data_image0
_cell_length_a       46.5777
_cell_length_b       46.5978
_cell_length_c       46.5403
_cell_angle_alpha    90
_cell_angle_beta     90
_cell_angle_gamma    90

_symmetry_space_group_name_H-M    "P 1"
_symmetry_int_tables_number       1

loop_
  _symmetry_equiv_pos_as_xyz
  'x, y, z'

loop_
  _atom_site_label
  _atom_site_occupancy
  _atom_site_fract_x
  _atom_site_fract_y
  _atom_site_fract_z
  _atom_site_thermal_displace_type
  _atom_site_B_iso_or_equiv
  _atom_site_type_symbol
  C1       1.0000 0.55510  0.96021  0.33096  Biso   1.000  C
  C2       1.0000 0.32210  0.52331  0.02043  Biso   1.000  C
  C3       1.0000 0.01457  0.29553  0.56624  Biso   1.000  C
  C4       1.0000 0.05927  0.98070  0.19743  Biso   1.000  C
  C5       1.0000 0.82023  0.52715  0.50842  Biso   1.000  C
  C6       1.0000 0.51487  0.29977  0.96244  Biso   1.000  C
  C7       1.0000 0.96455  0.47485  0.33106  Biso   1.000  C
  C8       1.0000 0.18416  0.02461  0.01256  Biso   1.000  C
  C9       1.0000 0.50199  0.79231  0.56961  Biso   1.000  C
  C10      1.0000 0.46396  0.45525  0.19551  Biso   1.000  C
  C11      1.0000 0.67948  0.02832  0.52312  Biso   1.000  C
  C12      1.0000 0.00377  0.79039  0.96514  Biso   1.000  C
  C13      1.0000 0.45188  0.96937  0.69140  Biso   1.000  C
  C14      1.0000 0.68383  0.41937  0.00522  Biso   1.000  C
  C15      1.0000 0.99902  0.65770  0.46353  Biso   1.000  C
  C16      1.0000 0.95188  0.96367  0.84040  Biso   1.000  C
  C17      1.0000 0.18873  0.42001  0.52276  Biso   1.000  C
  C18      1.0000 0.49277  0.64448  0.06687  Biso   1.000  C
  C19      1.0000 0.04485  0.47385  0.70096  Biso   1.000  C
  C20      1.0000 0.82230  0.92169  0.03232  Biso   1.000  C
  C21      1.0000 0.50280  0.14922  0.45304  Biso   1.000  C
  C22      1.0000 0.54834  0.48409  0.82994  Biso   1.000  C
  C23      1.0000 0.32800  0.91858  0.50983  Biso   1.000  C
  C24      1.0000 0.99829  0.15579  0.07109  Biso   1.000  C
  C25      1.0000 0.31911  0.02840  0.50787  Biso   1.000  C
  C26      1.0000 0.48706  0.28740  0.06502  Biso   1.000  C
  C27      1.0000 0.07601  0.47446  0.33416  Biso   1.000  C
  C28      1.0000 0.82105  0.02696  0.01622  Biso   1.000  C
  C29      1.0000 0.99578  0.30360  0.45852  Biso   1.000  C
  C30      1.0000 0.57337  0.46446  0.19433  Biso   1.000  C
  C31      1.0000 0.18811  0.52831  0.52190  Biso   1.000  C
  C32      1.0000 0.00802  0.79335  0.07320  Biso   1.000  C
  C33      1.0000 0.44847  0.95563  0.33097  Biso   1.000  C
  C34      1.0000 0.68384  0.52707  0.00249  Biso   1.000  C
  C35      1.0000 0.50183  0.77986  0.46341  Biso   1.000  C
  C36      1.0000 0.94883  0.96481  0.20075  Biso   1.000  C
  C37      1.0000 0.68184  0.92191  0.51996  Biso   1.000  C
  C38      1.0000 0.51408  0.65425  0.96154  Biso   1.000  C
  C39      1.0000 0.93254  0.47333  0.69377  Biso   1.000  C
  C40      1.0000 0.18941  0.91537  0.01519  Biso   1.000  C
  C41      1.0000 0.01051  0.65284  0.57023  Biso   1.000  C
  C42      1.0000 0.44091  0.47196  0.84018  Biso   1.000  C
  C43      1.0000 0.82540  0.41876  0.49771  Biso   1.000  C
  C44      1.0000 0.99908  0.15326  0.96301  Biso   1.000  C
  C45      1.0000 0.56046  0.98310  0.70099  Biso   1.000  C
  C46      1.0000 0.32480  0.41468  0.02209  Biso   1.000  C
  C47      1.0000 0.50276  0.16127  0.56256  Biso   1.000  C
  C48      1.0000 0.06042  0.97612  0.83145  Biso   1.000  C
  C49      1.0000 0.00296  0.02592  0.83343  Biso   1.000  C
  C50      1.0000 0.82088  0.98406  0.07648  Biso   1.000  C
  C51      1.0000 0.05998  0.78921  0.01652  Biso   1.000  C
  C52      1.0000 0.50283  0.03331  0.69187  Biso   1.000  C
  C53      1.0000 0.32507  0.96906  0.45780  Biso   1.000  C
  C54      1.0000 0.55602  0.78798  0.52009  Biso   1.000  C
  C55      1.0000 0.49417  0.53282  0.83690  Biso   1.000  C
  C56      1.0000 0.68873  0.47373  0.05751  Biso   1.000  C
  C57      1.0000 0.44938  0.29171  0.99675  Biso   1.000  C
  C58      1.0000 0.99255  0.52487  0.69510  Biso   1.000  C
  C59      1.0000 0.19413  0.47325  0.46681  Biso   1.000  C
  C60      1.0000 0.95133  0.29364  0.52222  Biso   1.000  C
  C61      1.0000 0.01233  0.92101  0.19876  Biso   1.000  C
  C62      1.0000 0.18952  0.96887  0.95900  Biso   1.000  C
  C63      1.0000 0.94886  0.15333  0.01670  Biso   1.000  C
  C64      1.0000 0.50236  0.90175  0.33186  Biso   1.000  C
  C65      1.0000 0.68288  0.97366  0.57301  Biso   1.000  C
  C66      1.0000 0.44772  0.15674  0.50642  Biso   1.000  C
  C67      1.0000 0.51942  0.40778  0.19592  Biso   1.000  C
  C68      1.0000 0.31905  0.47004  0.96852  Biso   1.000  C
  C69      1.0000 0.55583  0.65110  0.02549  Biso   1.000  C
  C70      1.0000 0.01529  0.42221  0.32522  Biso   1.000  C
  C71      1.0000 0.81306  0.46920  0.55647  Biso   1.000  C
  C72      1.0000 0.05775  0.65332  0.51270  Biso   1.000  C
  C73      1.0000 0.02002  0.52933  0.33841  Biso   1.000  C
  C74      1.0000 0.32636  0.97673  0.56537  Biso   1.000  C
  C75      1.0000 0.55266  0.29134  0.03264  Biso   1.000  C
  C76      1.0000 0.51626  0.51556  0.19300  Biso   1.000  C
  C77      1.0000 0.82759  0.96383  0.97093  Biso   1.000  C
  C78      1.0000 0.05628  0.29817  0.50233  Biso   1.000  C
  C79      1.0000 0.49943  0.01100  0.33515  Biso   1.000  C
  C80      1.0000 0.17970  0.47364  0.57533  Biso   1.000  C
  C81      1.0000 0.95005  0.79645  0.02618  Biso   1.000  C
  C82      1.0000 0.99496  0.02912  0.19814  Biso   1.000  C
  C83      1.0000 0.67752  0.47131  0.95011  Biso   1.000  C
  C84      1.0000 0.44704  0.78695  0.51220  Biso   1.000  C
  C85      1.0000 0.98520  0.41528  0.69930  Biso   1.000  C
  C86      1.0000 0.68078  0.97425  0.46327  Biso   1.000  C
  C87      1.0000 0.45078  0.64710  0.99753  Biso   1.000  C
  C88      1.0000 0.49888  0.42340  0.83018  Biso   1.000  C
  C89      1.0000 0.18462  0.97431  0.06883  Biso   1.000  C
  C90      1.0000 0.95007  0.65459  0.52385  Biso   1.000  C
  C91      1.0000 0.51460  0.92457  0.69578  Biso   1.000  C
  C92      1.0000 0.82513  0.47902  0.44746  Biso   1.000  C
  C93      1.0000 0.05505  0.15631  0.01894  Biso   1.000  C
  C94      1.0000 0.00810  0.91843  0.83573  Biso   1.000  C
  C95      1.0000 0.32782  0.46788  0.07839  Biso   1.000  C
  C96      1.0000 0.55766  0.15872  0.51113  Biso   1.000  C
  C97      1.0000 0.67895  0.06123  0.53064  Biso   1.000  C
  C98      1.0000 0.49610  0.64270  0.10010  Biso   1.000  C
  C99      1.0000 0.07646  0.47712  0.70023  Biso   1.000  C
  C100     1.0000 0.18243  0.05558  0.01645  Biso   1.000  C
  C101     1.0000 0.00133  0.65764  0.43148  Biso   1.000  C
  C102     1.0000 0.58017  0.48510  0.82664  Biso   1.000  C
  C103     1.0000 0.82037  0.55904  0.51058  Biso   1.000  C
  C104     1.0000 0.99951  0.15488  0.10370  Biso   1.000  C
  C105     1.0000 0.41942  0.96613  0.69132  Biso   1.000  C
  C106     1.0000 0.32174  0.55522  0.01534  Biso   1.000  C
  C107     1.0000 0.49909  0.14711  0.42229  Biso   1.000  C
  C108     1.0000 0.91942  0.96452  0.84415  Biso   1.000  C
  C109     1.0000 0.32799  0.88694  0.50137  Biso   1.000  C
  C110     1.0000 0.51465  0.30058  0.92954  Biso   1.000  C
  C111     1.0000 0.93308  0.47433  0.32791  Biso   1.000  C
  C112     1.0000 0.82464  0.88962  0.03448  Biso   1.000  C
  C113     1.0000 0.01992  0.29446  0.59792  Biso   1.000  C
  C114     1.0000 0.43146  0.45387  0.19689  Biso   1.000  C
  C115     1.0000 0.18776  0.38809  0.52001  Biso   1.000  C
  C116     1.0000 0.00603  0.78935  0.93263  Biso   1.000  C
  C117     1.0000 0.58775  0.96146  0.33068  Biso   1.000  C
  C118     1.0000 0.68433  0.38638  0.00711  Biso   1.000  C
  C119     1.0000 0.51265  0.79419  0.60083  Biso   1.000  C
  C120     1.0000 0.09030  0.97431  0.19794  Biso   1.000  C
  C121     1.0000 0.82115  0.98496  0.10925  Biso   1.000  C
  C122     1.0000 0.09266  0.78848  0.01895  Biso   1.000  C
  C123     1.0000 0.00094  0.05818  0.83347  Biso   1.000  C
  C124     1.0000 0.32338  0.96358  0.42595  Biso   1.000  C
  C125     1.0000 0.58742  0.79061  0.51965  Biso   1.000  C
  C126     1.0000 0.50385  0.06549  0.69207  Biso   1.000  C
  C127     1.0000 0.69186  0.46979  0.08884  Biso   1.000  C
  C128     1.0000 0.41643  0.29036  0.99527  Biso   1.000  C
  C129     1.0000 0.50031  0.56461  0.83570  Biso   1.000  C
  C130     1.0000 0.19788  0.47963  0.43618  Biso   1.000  C
  C131     1.0000 0.91877  0.29202  0.52029  Biso   1.000  C
  C132     1.0000 0.99741  0.55683  0.69594  Biso   1.000  C
  C133     1.0000 0.18841  0.96965  0.92546  Biso   1.000  C
  C134     1.0000 0.91668  0.15327  0.01719  Biso   1.000  C
  C135     1.0000 0.01261  0.88937  0.19920  Biso   1.000  C
  C136     1.0000 0.68390  0.97689  0.60599  Biso   1.000  C
  C137     1.0000 0.41576  0.15694  0.50513  Biso   1.000  C
  C138     1.0000 0.50147  0.86949  0.33318  Biso   1.000  C
  C139     1.0000 0.31718  0.47171  0.93766  Biso   1.000  C
  C140     1.0000 0.58776  0.65105  0.02948  Biso   1.000  C
  C141     1.0000 0.51686  0.37568  0.19526  Biso   1.000  C
  C142     1.0000 0.81284  0.47475  0.58847  Biso   1.000  C
  C143     1.0000 0.08871  0.65303  0.51274  Biso   1.000  C
  C144     1.0000 0.01036  0.39003  0.32605  Biso   1.000  C
  C145     1.0000 0.33058  0.46742  0.11107  Biso   1.000  C
  C146     1.0000 0.08871  0.29855  0.50234  Biso   1.000  C
  C147     1.0000 0.49439  0.04279  0.33424  Biso   1.000  C
  C148     1.0000 0.82840  0.48074  0.41448  Biso   1.000  C
  C149     1.0000 0.58605  0.29372  0.03277  Biso   1.000  C
  C150     1.0000 0.99068  0.06077  0.19762  Biso   1.000  C
  C151     1.0000 0.18328  0.96818  0.10035  Biso   1.000  C
  C152     1.0000 0.41435  0.78739  0.50961  Biso   1.000  C
  C153     1.0000 0.01978  0.56182  0.33751  Biso   1.000  C
  C154     1.0000 0.67956  0.97331  0.43027  Biso   1.000  C
  C155     1.0000 0.91851  0.79693  0.03182  Biso   1.000  C
  C156     1.0000 0.51367  0.54775  0.19343  Biso   1.000  C
  C157     1.0000 0.67684  0.47029  0.91836  Biso   1.000  C
  C158     1.0000 0.91718  0.65372  0.52344  Biso   1.000  C
  C159     1.0000 0.51571  0.89221  0.69491  Biso   1.000  C
  C160     1.0000 0.17735  0.47861  0.60850  Biso   1.000  C
  C161     1.0000 0.41936  0.64659  0.99226  Biso   1.000  C
  C162     1.0000 0.00812  0.88644  0.83571  Biso   1.000  C
  C163     1.0000 0.82707  0.96191  0.93835  Biso   1.000  C
  C164     1.0000 0.58868  0.15808  0.51636  Biso   1.000  C
  C165     1.0000 0.98615  0.38268  0.69786  Biso   1.000  C
  C166     1.0000 0.32459  0.98185  0.59761  Biso   1.000  C
  C167     1.0000 0.08847  0.15506  0.02320  Biso   1.000  C
  C168     1.0000 0.49659  0.39098  0.83108  Biso   1.000  C
  C169     1.0000 0.00999  0.79506  0.10509  Biso   1.000  C
  C170     1.0000 0.09217  0.98267  0.83296  Biso   1.000  C
  C171     1.0000 0.82025  0.06004  0.01576  Biso   1.000  C
  C172     1.0000 0.49165  0.77850  0.43209  Biso   1.000  C
  C173     1.0000 0.59207  0.97795  0.70341  Biso   1.000  C
  C174     1.0000 0.31889  0.06035  0.51141  Biso   1.000  C
  C175     1.0000 0.48693  0.28567  0.09670  Biso   1.000  C
  C176     1.0000 0.40937  0.46907  0.84091  Biso   1.000  C
  C177     1.0000 0.68259  0.55890  0.00482  Biso   1.000  C
  C178     1.0000 0.99587  0.30195  0.42660  Biso   1.000  C
  C179     1.0000 0.90117  0.47094  0.69040  Biso   1.000  C
  C180     1.0000 0.18360  0.56058  0.52252  Biso   1.000  C
  C181     1.0000 0.99843  0.15168  0.93095  Biso   1.000  C
  C182     1.0000 0.91719  0.95807  0.19945  Biso   1.000  C
  C183     1.0000 0.19090  0.88377  0.01907  Biso   1.000  C
  C184     1.0000 0.50693  0.16207  0.59546  Biso   1.000  C
  C185     1.0000 0.41672  0.95608  0.33023  Biso   1.000  C
  C186     1.0000 0.68124  0.88947  0.51425  Biso   1.000  C
  C187     1.0000 0.51620  0.65670  0.92910  Biso   1.000  C
  C188     1.0000 0.60511  0.46557  0.19318  Biso   1.000  C
  C189     1.0000 0.32330  0.38220  0.02183  Biso   1.000  C
  C190     1.0000 0.01382  0.65143  0.60216  Biso   1.000  C
  C191     1.0000 0.10801  0.47807  0.33524  Biso   1.000  C
  C192     1.0000 0.82779  0.38727  0.49564  Biso   1.000  C
  C193     1.0000 0.85296  0.96273  0.92213  Biso   1.000  C
  C194     1.0000 0.90326  0.82338  0.03261  Biso   1.000  C
  C195     1.0000 0.00763  0.86843  0.86310  Biso   1.000  C
  C196     1.0000 0.35168  0.97987  0.61339  Biso   1.000  C
  C197     1.0000 0.40125  0.81634  0.50683  Biso   1.000  C
  C198     1.0000 0.51609  0.87548  0.66843  Biso   1.000  C
  C199     1.0000 0.65036  0.47174  0.90277  Biso   1.000  C
  C200     1.0000 0.60152  0.32033  0.02945  Biso   1.000  C
  C201     1.0000 0.50339  0.37744  0.85826  Biso   1.000  C
  C202     1.0000 0.14919  0.47553  0.62399  Biso   1.000  C
  C203     1.0000 0.10507  0.32487  0.50972  Biso   1.000  C
  C204     1.0000 0.99440  0.36800  0.67031  Biso   1.000  C
  C205     1.0000 0.15723  0.97080  0.11684  Biso   1.000  C
  C206     1.0000 0.10261  0.12747  0.01855  Biso   1.000  C
  C207     1.0000 0.98974  0.07594  0.17008  Biso   1.000  C
  C208     1.0000 0.65295  0.97013  0.41363  Biso   1.000  C
  C209     1.0000 0.60357  0.13082  0.51871  Biso   1.000  C
  C210     1.0000 0.49730  0.06208  0.36005  Biso   1.000  C
  C211     1.0000 0.35818  0.46311  0.12410  Biso   1.000  C
  C212     1.0000 0.40302  0.62033  0.99606  Biso   1.000  C
  C213     1.0000 0.50884  0.56257  0.16645  Biso   1.000  C
  C214     1.0000 0.85724  0.47760  0.40172  Biso   1.000  C
  C215     1.0000 0.89944  0.62648  0.52533  Biso   1.000  C
  C216     1.0000 0.01344  0.57755  0.36426  Biso   1.000  C
  C217     1.0000 0.10945  0.98181  0.85940  Biso   1.000  C
  C218     1.0000 0.84678  0.07709  0.01826  Biso   1.000  C
  C219     1.0000 0.01132  0.82165  0.12253  Biso   1.000  C
  C220     1.0000 0.60848  0.98061  0.67568  Biso   1.000  C
  C221     1.0000 0.34537  0.07686  0.50679  Biso   1.000  C
  C222     1.0000 0.49216  0.80533  0.41528  Biso   1.000  C
  C223     1.0000 0.39344  0.47152  0.86736  Biso   1.000  C
  C224     1.0000 0.65604  0.57424  0.01131  Biso   1.000  C
  C225     1.0000 0.49205  0.31163  0.11376  Biso   1.000  C
  C226     1.0000 0.88813  0.47282  0.66210  Biso   1.000  C
  C227     1.0000 0.15460  0.57482  0.52167  Biso   1.000  C
  C228     1.0000 0.99788  0.32764  0.40746  Biso   1.000  C
  C229     1.0000 0.89989  0.96672  0.17324  Biso   1.000  C
  C230     1.0000 0.16316  0.86765  0.01886  Biso   1.000  C
  C231     1.0000 0.99545  0.12529  0.91409  Biso   1.000  C
  C232     1.0000 0.40177  0.95933  0.35775  Biso   1.000  C
  C233     1.0000 0.65476  0.87214  0.51638  Biso   1.000  C
  C234     1.0000 0.50638  0.13511  0.61140  Biso   1.000  C
  C235     1.0000 0.61882  0.46583  0.16450  Biso   1.000  C
  C236     1.0000 0.34984  0.36622  0.01333  Biso   1.000  C
  C237     1.0000 0.51314  0.63049  0.91206  Biso   1.000  C
  C238     1.0000 0.12316  0.47897  0.36452  Biso   1.000  C
  C239     1.0000 0.85411  0.37156  0.50327  Biso   1.000  C
  C240     1.0000 0.01115  0.62317  0.61843  Biso   1.000  C
  C241     1.0000 0.59809  0.48066  0.85297  Biso   1.000  C
  C242     1.0000 0.84535  0.57353  0.52117  Biso   1.000  C
  C243     1.0000 0.51320  0.82207  0.61657  Biso   1.000  C
  C244     1.0000 0.09226  0.47667  0.67343  Biso   1.000  C
  C245     1.0000 0.34710  0.57028  0.00785  Biso   1.000  C
  C246     1.0000 0.00581  0.81667  0.91506  Biso   1.000  C
  C247     1.0000 0.90415  0.95959  0.87153  Biso   1.000  C
  C248     1.0000 0.65148  0.07783  0.53041  Biso   1.000  C
  C249     1.0000 0.01239  0.32001  0.61520  Biso   1.000  C
  C250     1.0000 0.40306  0.96858  0.66337  Biso   1.000  C
  C251     1.0000 0.15500  0.07135  0.01653  Biso   1.000  C
  C252     1.0000 0.51183  0.32681  0.91262  Biso   1.000  C
  C253     1.0000 0.41486  0.45598  0.17081  Biso   1.000  C
  C254     1.0000 0.15987  0.37459  0.51763  Biso   1.000  C
  C255     1.0000 0.49863  0.11729  0.40705  Biso   1.000  C
  C256     1.0000 0.91514  0.47578  0.35337  Biso   1.000  C
  C257     1.0000 0.65722  0.37068  0.01429  Biso   1.000  C
  C258     1.0000 0.99419  0.12666  0.11787  Biso   1.000  C
  C259     1.0000 0.10592  0.97507  0.17050  Biso   1.000  C
  C260     1.0000 0.35358  0.87031  0.50604  Biso   1.000  C
  C261     1.0000 0.00148  0.63023  0.41547  Biso   1.000  C
  C262     1.0000 0.60250  0.96235  0.35925  Biso   1.000  C
  C263     1.0000 0.85224  0.87474  0.03136  Biso   1.000  C
  C264     1.0000 0.50008  0.61466  0.11464  Biso   1.000  C
  C265     1.0000 0.99912  0.07415  0.86092  Biso   1.000  C
  C266     1.0000 0.84894  0.98175  0.12512  Biso   1.000  C
  C267     1.0000 0.11055  0.81523  0.01952  Biso   1.000  C
  C268     1.0000 0.50183  0.08128  0.66428  Biso   1.000  C
  C269     1.0000 0.35051  0.96143  0.40950  Biso   1.000  C
  C270     1.0000 0.60330  0.81805  0.51799  Biso   1.000  C
  C271     1.0000 0.50294  0.57891  0.86329  Biso   1.000  C
  C272     1.0000 0.66593  0.47138  0.10756  Biso   1.000  C
  C273     1.0000 0.39972  0.31737  0.99877  Biso   1.000  C
  C274     1.0000 0.00603  0.57301  0.66934  Biso   1.000  C
  C275     1.0000 0.17127  0.47647  0.41672  Biso   1.000  C
  C276     1.0000 0.90446  0.31842  0.51584  Biso   1.000  C
  C277     1.0000 0.01058  0.87284  0.17186  Biso   1.000  C
  C278     1.0000 0.16054  0.97341  0.90983  Biso   1.000  C
  C279     1.0000 0.89930  0.12723  0.01614  Biso   1.000  C
  C280     1.0000 0.49780  0.85381  0.36062  Biso   1.000  C
  C281     1.0000 0.65789  0.98181  0.62316  Biso   1.000  C
  C282     1.0000 0.39777  0.12909  0.50382  Biso   1.000  C
  C283     1.0000 0.51021  0.36044  0.16748  Biso   1.000  C
  C284     1.0000 0.34332  0.46884  0.91959  Biso   1.000  C
  C285     1.0000 0.60484  0.62422  0.02551  Biso   1.000  C
  C286     1.0000 0.00727  0.37699  0.35336  Biso   1.000  C
  C287     1.0000 0.83995  0.47742  0.60534  Biso   1.000  C
  C288     1.0000 0.10452  0.62505  0.51300  Biso   1.000  C
  C289     1.0000 0.34933  0.83978  0.50606  Biso   1.000  C
  C290     1.0000 0.50805  0.32557  0.88119  Biso   1.000  C
  C291     1.0000 0.88416  0.47713  0.35091  Biso   1.000  C
  C292     1.0000 0.85013  0.84282  0.03135  Biso   1.000  C
  C293     1.0000 0.00749  0.31677  0.64779  Biso   1.000  C
  C294     1.0000 0.38313  0.46049  0.17421  Biso   1.000  C
  C295     1.0000 0.15894  0.34362  0.51366  Biso   1.000  C
  C296     1.0000 0.00757  0.81550  0.88442  Biso   1.000  C
  C297     1.0000 0.63412  0.96561  0.36082  Biso   1.000  C
  C298     1.0000 0.65605  0.33928  0.01807  Biso   1.000  C
  C299     1.0000 0.51464  0.82205  0.64767  Biso   1.000  C
  C300     1.0000 0.13692  0.97018  0.17159  Biso   1.000  C
  C301     1.0000 0.65451  0.10859  0.52628  Biso   1.000  C
  C302     1.0000 0.50119  0.61595  0.14578  Biso   1.000  C
  C303     1.0000 0.12462  0.47649  0.67658  Biso   1.000  C
  C304     1.0000 0.15575  0.10338  0.01636  Biso   1.000  C
  C305     1.0000 0.00712  0.63145  0.38526  Biso   1.000  C
  C306     1.0000 0.62871  0.47684  0.85074  Biso   1.000  C
  C307     1.0000 0.84553  0.60535  0.51910  Biso   1.000  C
  C308     1.0000 0.99088  0.12828  0.14889  Biso   1.000  C
  C309     1.0000 0.37073  0.97154  0.66406  Biso   1.000  C
  C310     1.0000 0.34994  0.60153  0.00534  Biso   1.000  C
  C311     1.0000 0.49742  0.11669  0.37555  Biso   1.000  C
  C312     1.0000 0.87261  0.96000  0.86896  Biso   1.000  C
  C313     1.0000 0.17559  0.48000  0.38649  Biso   1.000  C
  C314     1.0000 0.36609  0.13003  0.50260  Biso   1.000  C
  C315     1.0000 0.50504  0.32993  0.16687  Biso   1.000  C
  C316     1.0000 0.66928  0.46655  0.13872  Biso   1.000  C
  C317     1.0000 0.86784  0.12863  0.01415  Biso   1.000  C
  C318     1.0000 0.00303  0.34361  0.35339  Biso   1.000  C
  C319     1.0000 0.34876  0.95559  0.37803  Biso   1.000  C
  C320     1.0000 0.13642  0.62780  0.51187  Biso   1.000  C
  C321     1.0000 0.01283  0.84135  0.17487  Biso   1.000  C
  C322     1.0000 0.84772  0.97531  0.15565  Biso   1.000  C
  C323     1.0000 0.63778  0.62443  0.02468  Biso   1.000  C
  C324     1.0000 0.49227  0.82334  0.36054  Biso   1.000  C
  C325     1.0000 0.83720  0.47600  0.63727  Biso   1.000  C
  C326     1.0000 0.63421  0.81856  0.51550  Biso   1.000  C
  C327     1.0000 0.50410  0.61014  0.86117  Biso   1.000  C
  C328     1.0000 0.34075  0.46808  0.88895  Biso   1.000  C
  C329     1.0000 0.14155  0.81486  0.02237  Biso   1.000  C
  C330     1.0000 0.00790  0.60419  0.67051  Biso   1.000  C
  C331     1.0000 0.66145  0.98039  0.65465  Biso   1.000  C
  C332     1.0000 0.87265  0.31980  0.51243  Biso   1.000  C
  C333     1.0000 0.99937  0.10462  0.85992  Biso   1.000  C
  C334     1.0000 0.16193  0.97862  0.87934  Biso   1.000  C
  C335     1.0000 0.36855  0.31404  0.00171  Biso   1.000  C
  C336     1.0000 0.50250  0.11260  0.66273  Biso   1.000  C
  C337     1.0000 0.65025  0.47350  0.87102  Biso   1.000  C
  C338     1.0000 0.86781  0.62659  0.52125  Biso   1.000  C
  C339     1.0000 0.51470  0.84333  0.67029  Biso   1.000  C
  C340     1.0000 0.14734  0.47764  0.65536  Biso   1.000  C
  C341     1.0000 0.37190  0.62194  0.00025  Biso   1.000  C
  C342     1.0000 0.00817  0.83728  0.86228  Biso   1.000  C
  C343     1.0000 0.85135  0.96015  0.89086  Biso   1.000  C
  C344     1.0000 0.63532  0.13045  0.52191  Biso   1.000  C
  C345     1.0000 0.99932  0.33724  0.67082  Biso   1.000  C
  C346     1.0000 0.34916  0.97464  0.64402  Biso   1.000  C
  C347     1.0000 0.13554  0.12588  0.01753  Biso   1.000  C
  C348     1.0000 0.50515  0.34621  0.85885  Biso   1.000  C
  C349     1.0000 0.35888  0.46345  0.15547  Biso   1.000  C
  C350     1.0000 0.13592  0.32304  0.51050  Biso   1.000  C
  C351     1.0000 0.49730  0.09278  0.35635  Biso   1.000  C
  C352     1.0000 0.85999  0.47787  0.36978  Biso   1.000  C
  C353     1.0000 0.63426  0.31875  0.02472  Biso   1.000  C
  C354     1.0000 0.98725  0.10728  0.17120  Biso   1.000  C
  C355     1.0000 0.15791  0.96913  0.14880  Biso   1.000  C
  C356     1.0000 0.36980  0.81684  0.50754  Biso   1.000  C
  C357     1.0000 0.01095  0.60972  0.36363  Biso   1.000  C
  C358     1.0000 0.65493  0.96855  0.38246  Biso   1.000  C
  C359     1.0000 0.87173  0.82161  0.03379  Biso   1.000  C
  C360     1.0000 0.50411  0.59449  0.16714  Biso   1.000  C
  C361     1.0000 0.99818  0.12618  0.88231  Biso   1.000  C
  C362     1.0000 0.86897  0.96707  0.17506  Biso   1.000  C
  C363     1.0000 0.16293  0.83646  0.02062  Biso   1.000  C
  C364     1.0000 0.50479  0.13516  0.64218  Biso   1.000  C
  C365     1.0000 0.37113  0.95470  0.35579  Biso   1.000  C
  C366     1.0000 0.65621  0.84133  0.51404  Biso   1.000  C
  C367     1.0000 0.50845  0.63164  0.88200  Biso   1.000  C
  C368     1.0000 0.65022  0.46705  0.16247  Biso   1.000  C
  C369     1.0000 0.34792  0.33528  0.00762  Biso   1.000  C
  C370     1.0000 0.01026  0.62493  0.64921  Biso   1.000  C
  C371     1.0000 0.15493  0.48210  0.36449  Biso   1.000  C
  C372     1.0000 0.85252  0.34119  0.50690  Biso   1.000  C
  C373     1.0000 0.01283  0.81951  0.15358  Biso   1.000  C
  C374     1.0000 0.14041  0.98153  0.85816  Biso   1.000  C
  C375     1.0000 0.84517  0.10809  0.01350  Biso   1.000  C
  C376     1.0000 0.49098  0.80292  0.38257  Biso   1.000  C
  C377     1.0000 0.64066  0.98013  0.67747  Biso   1.000  C
  C378     1.0000 0.34354  0.10899  0.50508  Biso   1.000  C
  C379     1.0000 0.49749  0.30981  0.14457  Biso   1.000  C
  C380     1.0000 0.36168  0.47036  0.86672  Biso   1.000  C
  C381     1.0000 0.65907  0.60440  0.01777  Biso   1.000  C
  C382     1.0000 0.99992  0.32410  0.37627  Biso   1.000  C
  C383     1.0000 0.85732  0.47221  0.66045  Biso   1.000  C
  C384     1.0000 0.15680  0.60680  0.51739  Biso   1.000  C
  C385     1.0000 0.18355  0.11951  0.01802  Biso   1.000  C
  C386     1.0000 0.99061  0.15502  0.16512  Biso   1.000  C
  C387     1.0000 0.15385  0.96311  0.19737  Biso   1.000  C
  C388     1.0000 0.68208  0.12457  0.52623  Biso   1.000  C
  C389     1.0000 0.49401  0.14176  0.35798  Biso   1.000  C
  C390     1.0000 0.65053  0.96711  0.33422  Biso   1.000  C
  C391     1.0000 0.32405  0.61834  0.00595  Biso   1.000  C
  C392     1.0000 0.49760  0.64276  0.16195  Biso   1.000  C
  C393     1.0000 0.36998  0.45965  0.20233  Biso   1.000  C
  C394     1.0000 0.82027  0.62155  0.51402  Biso   1.000  C
  C395     1.0000 0.00598  0.65778  0.36880  Biso   1.000  C
  C396     1.0000 0.86988  0.47603  0.32303  Biso   1.000  C
  C397     1.0000 0.82318  0.82745  0.03440  Biso   1.000  C
  C398     1.0000 0.01000  0.78863  0.86719  Biso   1.000  C
  C399     1.0000 0.85711  0.95883  0.84132  Biso   1.000  C
  C400     1.0000 0.32147  0.82586  0.50315  Biso   1.000  C
  C401     1.0000 0.51634  0.79506  0.66419  Biso   1.000  C
  C402     1.0000 0.35653  0.97265  0.69250  Biso   1.000  C
  C403     1.0000 0.68348  0.32327  0.01647  Biso   1.000  C
  C404     1.0000 0.50694  0.29905  0.86623  Biso   1.000  C
  C405     1.0000 0.64337  0.48070  0.82324  Biso   1.000  C
  C406     1.0000 0.18529  0.32653  0.51275  Biso   1.000  C
  C407     1.0000 0.00912  0.28932  0.66279  Biso   1.000  C
  C408     1.0000 0.13961  0.47810  0.70500  Biso   1.000  C
  C409     1.0000 0.15601  0.98514  0.83114  Biso   1.000  C
  C410     1.0000 0.81856  0.12370  0.00824  Biso   1.000  C
  C411     1.0000 0.01494  0.79401  0.17048  Biso   1.000  C
  C412     1.0000 0.65699  0.97993  0.70391  Biso   1.000  C
  C413     1.0000 0.31686  0.12524  0.50535  Biso   1.000  C
  C414     1.0000 0.48770  0.77540  0.36851  Biso   1.000  C
  C415     1.0000 0.34552  0.46924  0.83984  Biso   1.000  C
  C416     1.0000 0.68587  0.62095  0.01901  Biso   1.000  C
  C417     1.0000 0.49672  0.28235  0.15827  Biso   1.000  C
  C418     1.0000 0.84033  0.46892  0.68652  Biso   1.000  C
  C419     1.0000 0.18343  0.62358  0.51608  Biso   1.000  C
  C420     1.0000 0.99719  0.29661  0.36347  Biso   1.000  C
  C421     1.0000 0.85369  0.96255  0.20086  Biso   1.000  C
  C422     1.0000 0.18915  0.82153  0.02052  Biso   1.000  C
  C423     1.0000 0.00155  0.15283  0.86705  Biso   1.000  C
  C424     1.0000 0.35540  0.94651  0.33056  Biso   1.000  C
  C425     1.0000 0.68361  0.82664  0.51141  Biso   1.000  C
  C426     1.0000 0.50247  0.16149  0.65891  Biso   1.000  C
  C427     1.0000 0.66879  0.46476  0.18681  Biso   1.000  C
  C428     1.0000 0.32125  0.31955  0.01040  Biso   1.000  C
  C429     1.0000 0.50848  0.65832  0.86576  Biso   1.000  C
  C430     1.0000 0.17287  0.48559  0.33921  Biso   1.000  C
  C431     1.0000 0.82573  0.32469  0.50612  Biso   1.000  C
  C432     1.0000 0.01079  0.65203  0.66464  Biso   1.000  C
  C433     1.0000 0.99981  0.12000  0.83363  Biso   1.000  C
  C434     1.0000 0.82087  0.97335  0.17085  Biso   1.000  C
  C435     1.0000 0.15658  0.78825  0.02407  Biso   1.000  C
  C436     1.0000 0.49955  0.12815  0.68946  Biso   1.000  C
  C437     1.0000 0.32229  0.94845  0.36249  Biso   1.000  C
  C438     1.0000 0.65091  0.79235  0.51448  Biso   1.000  C
  C439     1.0000 0.50415  0.62571  0.83464  Biso   1.000  C
  C440     1.0000 0.69794  0.46494  0.15152  Biso   1.000  C
  C441     1.0000 0.35224  0.28708  0.00047  Biso   1.000  C
  C442     1.0000 0.00446  0.61927  0.69788  Biso   1.000  C
  C443     1.0000 0.20365  0.48477  0.37315  Biso   1.000  C
  C444     1.0000 0.85687  0.29222  0.51413  Biso   1.000  C
  C445     1.0000 0.01835  0.82680  0.20162  Biso   1.000  C
  C446     1.0000 0.18950  0.98218  0.86431  Biso   1.000  C
  C447     1.0000 0.85273  0.15580  0.01103  Biso   1.000  C
  C448     1.0000 0.49041  0.80651  0.33362  Biso   1.000  C
  C449     1.0000 0.68861  0.97802  0.66895  Biso   1.000  C
  C450     1.0000 0.35110  0.15636  0.50254  Biso   1.000  C
  C451     1.0000 0.50518  0.31293  0.19253  Biso   1.000  C
  C452     1.0000 0.31426  0.46929  0.87392  Biso   1.000  C
  C453     1.0000 0.65324  0.65077  0.02909  Biso   1.000  C
  C454     1.0000 0.00223  0.32629  0.32776  Biso   1.000  C
  C455     1.0000 0.80968  0.47476  0.65170  Biso   1.000  C
  C456     1.0000 0.15082  0.65391  0.50834  Biso   1.000  C
  C457     1.0000 0.01287  0.62621  0.33697  Biso   1.000  C
  C458     1.0000 0.32245  0.97393  0.65999  Biso   1.000  C
  C459     1.0000 0.64978  0.29242  0.02542  Biso   1.000  C
  C460     1.0000 0.50177  0.61052  0.19337  Biso   1.000  C
  C461     1.0000 0.82391  0.95975  0.87476  Biso   1.000  C
  C462     1.0000 0.15012  0.29651  0.50605  Biso   1.000  C
  C463     1.0000 0.49364  0.10552  0.32753  Biso   1.000  C
  C464     1.0000 0.17316  0.47821  0.67280  Biso   1.000  C
  C465     1.0000 0.85642  0.79433  0.03720  Biso   1.000  C
  C466     1.0000 0.98316  0.12264  0.19704  Biso   1.000  C
  C467     1.0000 0.67781  0.47585  0.85631  Biso   1.000  C
  C468     1.0000 0.35189  0.79120  0.50728  Biso   1.000  C
  C469     1.0000 0.99774  0.32060  0.69691  Biso   1.000  C
  C470     1.0000 0.68270  0.97123  0.36795  Biso   1.000  C
  C471     1.0000 0.35685  0.64917  0.99924  Biso   1.000  C
  C472     1.0000 0.50285  0.32929  0.83285  Biso   1.000  C
  C473     1.0000 0.18416  0.96230  0.16417  Biso   1.000  C
  C474     1.0000 0.85265  0.65278  0.52045  Biso   1.000  C
  C475     1.0000 0.51442  0.82758  0.69656  Biso   1.000  C
  C476     1.0000 0.83363  0.48046  0.35141  Biso   1.000  C
  C477     1.0000 0.15108  0.15271  0.02123  Biso   1.000  C
  C478     1.0000 0.01039  0.82157  0.83494  Biso   1.000  C
  C479     1.0000 0.33283  0.46540  0.17333  Biso   1.000  C
  C480     1.0000 0.65152  0.15858  0.51815  Biso   1.000  C
  C481     1.0000 0.36434  0.76306  0.51007  Biso   1.000  C
  C482     1.0000 0.49597  0.34248  0.80507  Biso   1.000  C
  C483     1.0000 0.80551  0.48397  0.36622  Biso   1.000  C
  C484     1.0000 0.87185  0.76736  0.03541  Biso   1.000  C
  C485     1.0000 0.98708  0.33431  0.72346  Biso   1.000  C
  C486     1.0000 0.30474  0.47019  0.15912  Biso   1.000  C
  C487     1.0000 0.13469  0.26975  0.49845  Biso   1.000  C
  C488     1.0000 0.01277  0.83915  0.80750  Biso   1.000  C
  C489     1.0000 0.70996  0.97465  0.38475  Biso   1.000  C
  C490     1.0000 0.63366  0.26549  0.02973  Biso   1.000  C
  C491     1.0000 0.51383  0.84443  0.72279  Biso   1.000  C
  C492     1.0000 0.21004  0.95832  0.14811  Biso   1.000  C
  C493     1.0000 0.63563  0.18544  0.51596  Biso   1.000  C
  C494     1.0000 0.50923  0.59562  0.22004  Biso   1.000  C
  C495     1.0000 0.20118  0.48078  0.65815  Biso   1.000  C
  C496     1.0000 0.13770  0.18101  0.02473  Biso   1.000  C
  C497     1.0000 0.01757  0.60996  0.30909  Biso   1.000  C
  C498     1.0000 0.70492  0.47128  0.87191  Biso   1.000  C
  C499     1.0000 0.86887  0.67944  0.52389  Biso   1.000  C
  C500     1.0000 0.98090  0.10704  0.22504  Biso   1.000  C
  C501     1.0000 0.29554  0.97860  0.64347  Biso   1.000  C
  C502     1.0000 0.37377  0.67573  0.99262  Biso   1.000  C
  C503     1.0000 0.49246  0.08728  0.30156  Biso   1.000  C
  C504     1.0000 0.79675  0.96005  0.89135  Biso   1.000  C
  C505     1.0000 0.62759  0.48668  0.79695  Biso   1.000  C
  C506     1.0000 0.79489  0.60617  0.50389  Biso   1.000  C
  C507     1.0000 0.52023  0.76795  0.64738  Biso   1.000  C
  C508     1.0000 0.12324  0.47790  0.73057  Biso   1.000  C
  C509     1.0000 0.29525  0.60159  0.00977  Biso   1.000  C
  C510     1.0000 0.00848  0.76159  0.88483  Biso   1.000  C
  C511     1.0000 0.87357  0.96202  0.81572  Biso   1.000  C
  C512     1.0000 0.70787  0.10806  0.52529  Biso   1.000  C
  C513     1.0000 0.02022  0.26522  0.64547  Biso   1.000  C
  C514     1.0000 0.37252  0.96880  0.71970  Biso   1.000  C
  C515     1.0000 0.21063  0.10244  0.01783  Biso   1.000  C
  C516     1.0000 0.51089  0.27302  0.88195  Biso   1.000  C
  C517     1.0000 0.38824  0.45683  0.22947  Biso   1.000  C
  C518     1.0000 0.21401  0.34134  0.51349  Biso   1.000  C
  C519     1.0000 0.49404  0.17043  0.37271  Biso   1.000  C
  C520     1.0000 0.88883  0.47387  0.29674  Biso   1.000  C
  C521     1.0000 0.71127  0.33915  0.01111  Biso   1.000  C
  C522     1.0000 0.99452  0.18303  0.15034  Biso   1.000  C
  C523     1.0000 0.13783  0.96074  0.22394  Biso   1.000  C
  C524     1.0000 0.29526  0.84298  0.49905  Biso   1.000  C
  C525     1.0000 0.00238  0.68575  0.38426  Biso   1.000  C
  C526     1.0000 0.63620  0.96442  0.30543  Biso   1.000  C
  C527     1.0000 0.79563  0.84261  0.04007  Biso   1.000  C
  C528     1.0000 0.49415  0.67054  0.14766  Biso   1.000  C
  C529     1.0000 0.79133  0.10581  0.00632  Biso   1.000  C
  C530     1.0000 0.01339  0.76672  0.15275  Biso   1.000  C
  C531     1.0000 0.13957  0.98871  0.80470  Biso   1.000  C
  C532     1.0000 0.29038  0.10860  0.51146  Biso   1.000  C
  C533     1.0000 0.48449  0.74924  0.38644  Biso   1.000  C
  C534     1.0000 0.63986  0.97615  0.73101  Biso   1.000  C
  C535     1.0000 0.71223  0.60803  0.00965  Biso   1.000  C
  C536     1.0000 0.49190  0.25478  0.14219  Biso   1.000  C
  C537     1.0000 0.36039  0.46479  0.81321  Biso   1.000  C
  C538     1.0000 0.21133  0.60849  0.51637  Biso   1.000  C
  C539     1.0000 0.99555  0.26975  0.38066  Biso   1.000  C
  C540     1.0000 0.85306  0.46490  0.71477  Biso   1.000  C
  C541     1.0000 0.21612  0.83667  0.01990  Biso   1.000  C
  C542     1.0000 0.00405  0.17894  0.88498  Biso   1.000  C
  C543     1.0000 0.86965  0.95224  0.22726  Biso   1.000  C
  C544     1.0000 0.70924  0.84454  0.50726  Biso   1.000  C
  C545     1.0000 0.50349  0.18944  0.64292  Biso   1.000  C
  C546     1.0000 0.37096  0.94344  0.30267  Biso   1.000  C
  C547     1.0000 0.29452  0.33542  0.01660  Biso   1.000  C
  C548     1.0000 0.51128  0.68556  0.88237  Biso   1.000  C
  C549     1.0000 0.65547  0.46139  0.21479  Biso   1.000  C
  C550     1.0000 0.79805  0.33942  0.49920  Biso   1.000  C
  C551     1.0000 0.01196  0.67949  0.64918  Biso   1.000  C
  C552     1.0000 0.15792  0.48253  0.31100  Biso   1.000  C
  C553     1.0000 0.99640  0.10259  0.80604  Biso   1.000  C
  C554     1.0000 0.79461  0.97798  0.15578  Biso   1.000  C
  C555     1.0000 0.13825  0.76209  0.02356  Biso   1.000  C
  C556     1.0000 0.49790  0.11375  0.71915  Biso   1.000  C
  C557     1.0000 0.29513  0.95072  0.37904  Biso   1.000  C
  C558     1.0000 0.63476  0.76585  0.52015  Biso   1.000  C
  C559     1.0000 0.50101  0.61102  0.80740  Biso   1.000  C
  C560     1.0000 0.72430  0.46736  0.13388  Biso   1.000  C
  C561     1.0000 0.36984  0.26182  0.99481  Biso   1.000  C
  C562     1.0000 0.99695  0.60391  0.72519  Biso   1.000  C
  C563     1.0000 0.22810  0.48729  0.39264  Biso   1.000  C
  C564     1.0000 0.87134  0.26494  0.52038  Biso   1.000  C
  C565     1.0000 0.02202  0.84409  0.22842  Biso   1.000  C
  C566     1.0000 0.21683  0.97818  0.87917  Biso   1.000  C
  C567     1.0000 0.86984  0.18222  0.00958  Biso   1.000  C
  C568     1.0000 0.49519  0.82182  0.30581  Biso   1.000  C
  C569     1.0000 0.71544  0.97633  0.65245  Biso   1.000  C
  C570     1.0000 0.36695  0.18372  0.50011  Biso   1.000  C
  C571     1.0000 0.50950  0.32710  0.22039  Biso   1.000  C
  C572     1.0000 0.28737  0.47049  0.89096  Biso   1.000  C
  C573     1.0000 0.63638  0.67673  0.03616  Biso   1.000  C
  C574     1.0000 0.00509  0.34183  0.30096  Biso   1.000  C
  C575     1.0000 0.78339  0.47380  0.63496  Biso   1.000  C
  C576     1.0000 0.13549  0.68030  0.50779  Biso   1.000  C
  C577     1.0000 0.30304  0.46875  0.12682  Biso   1.000  C
  C578     1.0000 0.10356  0.27205  0.49489  Biso   1.000  C
  C579     1.0000 0.49449  0.05597  0.30609  Biso   1.000  C
  C580     1.0000 0.80360  0.48548  0.39728  Biso   1.000  C
  C581     1.0000 0.60217  0.26586  0.03259  Biso   1.000  C
  C582     1.0000 0.98595  0.07599  0.22471  Biso   1.000  C
  C583     1.0000 0.20946  0.96357  0.11719  Biso   1.000  C
  C584     1.0000 0.39620  0.76092  0.51284  Biso   1.000  C
  C585     1.0000 0.02007  0.57837  0.31009  Biso   1.000  C
  C586     1.0000 0.70639  0.97420  0.41558  Biso   1.000  C
  C587     1.0000 0.90317  0.76962  0.03299  Biso   1.000  C
  C588     1.0000 0.51380  0.56418  0.22075  Biso   1.000  C
  C589     1.0000 0.70440  0.46937  0.90381  Biso   1.000  C
  C590     1.0000 0.90048  0.67961  0.52483  Biso   1.000  C
  C591     1.0000 0.51459  0.87663  0.72259  Biso   1.000  C
  C592     1.0000 0.20321  0.48195  0.62646  Biso   1.000  C
  C593     1.0000 0.40455  0.67512  0.99134  Biso   1.000  C
  C594     1.0000 0.01220  0.87084  0.80722  Biso   1.000  C
  C595     1.0000 0.79887  0.95930  0.92189  Biso   1.000  C
  C596     1.0000 0.60438  0.18584  0.51503  Biso   1.000  C
  C597     1.0000 0.97879  0.36454  0.72332  Biso   1.000  C
  C598     1.0000 0.29718  0.98304  0.61158  Biso   1.000  C
  C599     1.0000 0.10594  0.18254  0.02556  Biso   1.000  C
  C600     1.0000 0.48997  0.37321  0.80455  Biso   1.000  C
  C601     1.0000 0.21571  0.96983  0.90945  Biso   1.000  C
  C602     1.0000 0.90099  0.18123  0.01432  Biso   1.000  C
  C603     1.0000 0.01853  0.87449  0.22666  Biso   1.000  C
  C604     1.0000 0.71242  0.97444  0.62065  Biso   1.000  C
  C605     1.0000 0.39825  0.18341  0.50256  Biso   1.000  C
  C606     1.0000 0.49955  0.85364  0.30686  Biso   1.000  C
  C607     1.0000 0.28790  0.47286  0.92270  Biso   1.000  C
  C608     1.0000 0.60473  0.67782  0.03719  Biso   1.000  C
  C609     1.0000 0.51570  0.35884  0.22196  Biso   1.000  C
  C610     1.0000 0.78490  0.47430  0.60293  Biso   1.000  C
  C611     1.0000 0.10377  0.68066  0.51058  Biso   1.000  C
  C612     1.0000 0.00972  0.37368  0.29956  Biso   1.000  C
  C613     1.0000 0.79419  0.98461  0.12523  Biso   1.000  C
  C614     1.0000 0.10701  0.76108  0.02070  Biso   1.000  C
  C615     1.0000 0.99991  0.07223  0.80617  Biso   1.000  C
  C616     1.0000 0.29573  0.95717  0.40967  Biso   1.000  C
  C617     1.0000 0.60294  0.76349  0.52103  Biso   1.000  C
  C618     1.0000 0.50112  0.08248  0.71885  Biso   1.000  C
  C619     1.0000 0.72230  0.47001  0.10177  Biso   1.000  C
  C620     1.0000 0.40146  0.26389  0.98928  Biso   1.000  C
  C621     1.0000 0.50011  0.57904  0.80811  Biso   1.000  C
  C622     1.0000 0.22578  0.48561  0.42355  Biso   1.000  C
  C623     1.0000 0.90324  0.26401  0.52238  Biso   1.000  C
  C624     1.0000 0.99356  0.57220  0.72383  Biso   1.000  C
  C625     1.0000 0.00171  0.17983  0.91561  Biso   1.000  C
  C626     1.0000 0.90093  0.94824  0.22650  Biso   1.000  C
  C627     1.0000 0.21771  0.86786  0.01771  Biso   1.000  C
  C628     1.0000 0.50706  0.18930  0.61164  Biso   1.000  C
  C629     1.0000 0.40127  0.94909  0.30344  Biso   1.000  C
  C630     1.0000 0.70746  0.87487  0.50801  Biso   1.000  C
  C631     1.0000 0.51658  0.68586  0.91329  Biso   1.000  C
  C632     1.0000 0.62415  0.46123  0.21773  Biso   1.000  C
  C633     1.0000 0.29550  0.36583  0.02246  Biso   1.000  C
  C634     1.0000 0.01434  0.67856  0.61774  Biso   1.000  C
  C635     1.0000 0.12617  0.48053  0.30960  Biso   1.000  C
  C636     1.0000 0.80090  0.37175  0.49434  Biso   1.000  C
  C637     1.0000 0.01149  0.76753  0.12015  Biso   1.000  C
  C638     1.0000 0.10682  0.98662  0.80579  Biso   1.000  C
  C639     1.0000 0.79211  0.07323  0.00953  Biso   1.000  C
  C640     1.0000 0.48535  0.75039  0.41828  Biso   1.000  C
  C641     1.0000 0.60772  0.97586  0.73123  Biso   1.000  C
  C642     1.0000 0.29120  0.07632  0.51504  Biso   1.000  C
  C643     1.0000 0.48488  0.25755  0.11126  Biso   1.000  C
  C644     1.0000 0.39239  0.46531  0.81327  Biso   1.000  C
  C645     1.0000 0.71196  0.57661  0.00118  Biso   1.000  C
  C646     1.0000 0.99401  0.27378  0.41174  Biso   1.000  C
  C647     1.0000 0.88453  0.46844  0.71709  Biso   1.000  C
  C648     1.0000 0.21016  0.57740  0.51947  Biso   1.000  C
  C649     1.0000 0.00099  0.68584  0.41593  Biso   1.000  C
  C650     1.0000 0.40346  0.96681  0.71871  Biso   1.000  C
  C651     1.0000 0.71050  0.37030  0.00496  Biso   1.000  C
  C652     1.0000 0.49258  0.67018  0.11620  Biso   1.000  C
  C653     1.0000 0.90404  0.96625  0.81688  Biso   1.000  C
  C654     1.0000 0.21429  0.37245  0.51822  Biso   1.000  C
  C655     1.0000 0.49593  0.17306  0.40455  Biso   1.000  C
  C656     1.0000 0.09163  0.47716  0.72913  Biso   1.000  C
  C657     1.0000 0.79708  0.87335  0.04069  Biso   1.000  C
  C658     1.0000 0.99829  0.18193  0.11961  Biso   1.000  C
  C659     1.0000 0.59537  0.48787  0.79892  Biso   1.000  C
  C660     1.0000 0.29997  0.87410  0.49649  Biso   1.000  C
  C661     1.0000 0.02540  0.26697  0.61395  Biso   1.000  C
  C662     1.0000 0.60528  0.96218  0.30459  Biso   1.000  C
  C663     1.0000 0.29412  0.57120  0.01456  Biso   1.000  C
  C664     1.0000 0.51523  0.27445  0.91317  Biso   1.000  C
  C665     1.0000 0.10700  0.96666  0.22452  Biso   1.000  C
  C666     1.0000 0.79460  0.57477  0.50089  Biso   1.000  C
  C667     1.0000 0.51777  0.76774  0.61594  Biso   1.000  C
  C668     1.0000 0.92034  0.47379  0.29889  Biso   1.000  C
  C669     1.0000 0.20966  0.07107  0.01739  Biso   1.000  C
  C670     1.0000 0.00631  0.76292  0.91623  Biso   1.000  C
  C671     1.0000 0.41898  0.45320  0.22597  Biso   1.000  C
  C672     1.0000 0.70596  0.07683  0.53006  Biso   1.000  C
  C673     1.0000 0.20200  0.98509  0.81482  Biso   1.000  C
  C674     1.0000 0.80676  0.17032  0.00601  Biso   1.000  C
  C675     1.0000 0.02047  0.78072  0.21563  Biso   1.000  C
  C676     1.0000 0.70152  0.97690  0.71715  Biso   1.000  C
  C677     1.0000 0.30393  0.17230  0.50170  Biso   1.000  C
  C678     1.0000 0.48501  0.75831  0.32412  Biso   1.000  C
  C679     1.0000 0.29870  0.46585  0.82657  Biso   1.000  C
  C680     1.0000 0.69963  0.66640  0.02587  Biso   1.000  C
  C681     1.0000 0.49810  0.26572  0.20477  Biso   1.000  C
  C682     1.0000 0.79299  0.47209  0.69613  Biso   1.000  C
  C683     1.0000 0.19666  0.67156  0.50778  Biso   1.000  C
  C684     1.0000 0.99438  0.28016  0.31748  Biso   1.000  C
  C685     1.0000 0.80693  0.96789  0.21671  Biso   1.000  C
  C686     1.0000 0.20245  0.77341  0.02196  Biso   1.000  C
  C687     1.0000 0.00702  0.16517  0.81747  Biso   1.000  C
  C688     1.0000 0.30778  0.94233  0.31676  Biso   1.000  C
  C689     1.0000 0.69753  0.77860  0.51272  Biso   1.000  C
  C690     1.0000 0.49839  0.17391  0.70645  Biso   1.000  C
  C691     1.0000 0.71616  0.46684  0.19803  Biso   1.000  C
  C692     1.0000 0.30448  0.27518  0.00465  Biso   1.000  C
  C693     1.0000 0.51100  0.67202  0.81976  Biso   1.000  C
  C694     1.0000 0.22037  0.48672  0.32746  Biso   1.000  C
  C695     1.0000 0.80944  0.27900  0.51160  Biso   1.000  C
  C696     1.0000 0.00649  0.66539  0.71144  Biso   1.000  C
  C697     1.0000 0.69747  0.97165  0.32197  Biso   1.000  C
  C698     1.0000 0.31070  0.66566  0.00361  Biso   1.000  C
  C699     1.0000 0.00607  0.27528  0.70956  Biso   1.000  C
  C700     1.0000 0.19960  0.95059  0.21047  Biso   1.000  C
  C701     1.0000 0.80554  0.66922  0.51549  Biso   1.000  C
  C702     1.0000 0.50347  0.28362  0.81754  Biso   1.000  C
  C703     1.0000 0.82570  0.47747  0.30284  Biso   1.000  C
  C704     1.0000 0.19722  0.16673  0.01530  Biso   1.000  C
  C705     1.0000 0.51649  0.78058  0.71279  Biso   1.000  C
  C706     1.0000 0.32580  0.46801  0.22110  Biso   1.000  C
  C707     1.0000 0.69887  0.17122  0.52104  Biso   1.000  C
  C708     1.0000 0.01221  0.77364  0.82290  Biso   1.000  C
  C709     1.0000 0.30958  0.97378  0.70771  Biso   1.000  C
  C710     1.0000 0.69571  0.27597  0.01737  Biso   1.000  C
  C711     1.0000 0.01186  0.67127  0.32160  Biso   1.000  C
  C712     1.0000 0.81224  0.96506  0.82652  Biso   1.000  C
  C713     1.0000 0.19778  0.28130  0.50623  Biso   1.000  C
  C714     1.0000 0.49452  0.65696  0.20904  Biso   1.000  C
  C715     1.0000 0.18719  0.47314  0.71914  Biso   1.000  C
  C716     1.0000 0.80905  0.78131  0.03690  Biso   1.000  C
  C717     1.0000 0.49284  0.15119  0.30953  Biso   1.000  C
  C718     1.0000 0.68926  0.47967  0.80919  Biso   1.000  C
  C719     1.0000 0.30540  0.77824  0.50700  Biso   1.000  C
  C720     1.0000 0.98627  0.16891  0.21113  Biso   1.000  C
  C721     1.0000 0.46755  0.76047  0.29692  Biso   1.000  C
  C722     1.0000 0.30107  0.47868  0.79750  Biso   1.000  C
  C723     1.0000 0.78076  0.28486  0.52335  Biso   1.000  C
  C724     1.0000 0.03394  0.75298  0.21046  Biso   1.000  C
  C725     1.0000 0.77133  0.49631  0.69550  Biso   1.000  C
  C726     1.0000 0.27449  0.28124  0.99525  Biso   1.000  C
  C727     1.0000 0.97318  0.25642  0.32070  Biso   1.000  C
  C728     1.0000 0.23093  0.99863  0.81834  Biso   1.000  C
  C729     1.0000 0.72519  0.78307  0.52691  Biso   1.000  C
  C730     1.0000 0.48422  0.27021  0.23364  Biso   1.000  C
  C731     1.0000 0.72331  0.95335  0.71680  Biso   1.000  C
  C732     1.0000 0.22777  0.77855  0.00419  Biso   1.000  C
  C733     1.0000 0.48005  0.17222  0.73195  Biso   1.000  C
  C734     1.0000 0.71436  0.44800  0.22494  Biso   1.000  C
  C735     1.0000 0.19359  0.69499  0.48758  Biso   1.000  C
  C736     1.0000 0.99209  0.19258  0.82162  Biso   1.000  C
  C737     1.0000 0.24753  0.47247  0.33302  Biso   1.000  C
  C738     1.0000 0.72862  0.66029  0.03915  Biso   1.000  C
  C739     1.0000 0.02340  0.66114  0.73878  Biso   1.000  C
  C740     1.0000 0.77896  0.95579  0.20973  Biso   1.000  C
  C741     1.0000 0.27555  0.16738  0.48787  Biso   1.000  C
  C742     1.0000 0.52602  0.66832  0.79381  Biso   1.000  C
  C743     1.0000 0.28127  0.92503  0.32210  Biso   1.000  C
  C744     1.0000 0.80993  0.19287  0.02622  Biso   1.000  C
  C745     1.0000 0.02983  0.69599  0.32738  Biso   1.000  C
  C746     1.0000 0.31478  0.98924  0.73453  Biso   1.000  C
  C747     1.0000 0.72472  0.28095  0.02605  Biso   1.000  C
  C748     1.0000 0.50790  0.68669  0.20846  Biso   1.000  C
  C749     1.0000 0.81316  0.94624  0.80079  Biso   1.000  C
  C750     1.0000 0.22127  0.28087  0.52703  Biso   1.000  C
  C751     1.0000 0.50994  0.14819  0.28177  Biso   1.000  C
  C752     1.0000 0.21319  0.45504  0.71424  Biso   1.000  C
  C753     1.0000 0.78343  0.78381  0.01726  Biso   1.000  C
  C754     1.0000 0.00965  0.18880  0.21186  Biso   1.000  C
  C755     1.0000 0.68603  0.46382  0.78040  Biso   1.000  C
  C756     1.0000 0.27688  0.78204  0.52106  Biso   1.000  C
  C757     1.0000 0.00019  0.24568  0.70383  Biso   1.000  C
  C758     1.0000 0.69438  0.98557  0.29361  Biso   1.000  C
  C759     1.0000 0.28910  0.66341  0.02567  Biso   1.000  C
  C760     1.0000 0.51935  0.28623  0.78889  Biso   1.000  C
  C761     1.0000 0.22421  0.93203  0.20452  Biso   1.000  C
  C762     1.0000 0.81104  0.69843  0.50271  Biso   1.000  C
  C763     1.0000 0.49893  0.75511  0.70782  Biso   1.000  C
  C764     1.0000 0.80053  0.49538  0.30239  Biso   1.000  C
  C765     1.0000 0.22184  0.16628  0.03453  Biso   1.000  C
  C766     1.0000 0.99352  0.77567  0.79614  Biso   1.000  C
  C767     1.0000 0.33527  0.48796  0.24426  Biso   1.000  C
  C768     1.0000 0.69608  0.19478  0.50014  Biso   1.000  C
  C769     1.0000 0.49789  0.70122  0.82385  Biso   1.000  C
  C770     1.0000 0.78976  0.44885  0.71755  Biso   1.000  C
  C771     1.0000 0.69043  0.75084  0.49607  Biso   1.000  C
  C772     1.0000 0.99120  0.69169  0.71047  Biso   1.000  C
  C773     1.0000 0.26927  0.45338  0.83294  Biso   1.000  C
  C774     1.0000 0.20154  0.74465  0.03843  Biso   1.000  C
  C775     1.0000 0.02263  0.16170  0.79002  Biso   1.000  C
  C776     1.0000 0.70242  0.99594  0.74222  Biso   1.000  C
  C777     1.0000 0.81276  0.25114  0.49830  Biso   1.000  C
  C778     1.0000 0.51746  0.19937  0.70439  Biso   1.000  C
  C779     1.0000 0.19477  0.96970  0.78767  Biso   1.000  C
  C780     1.0000 0.31150  0.24566  0.01353  Biso   1.000  C
  C781     1.0000 0.51377  0.23772  0.19812  Biso   1.000  C
  C782     1.0000 0.21933  0.50479  0.30032  Biso   1.000  C
  C783     1.0000 0.30886  0.19909  0.51620  Biso   1.000  C
  C784     1.0000 0.01598  0.27923  0.29442  Biso   1.000  C
  C785     1.0000 0.74255  0.48537  0.19503  Biso   1.000  C
  C786     1.0000 0.78093  0.16965  0.98739  Biso   1.000  C
  C787     1.0000 0.00937  0.78594  0.24381  Biso   1.000  C
  C788     1.0000 0.31317  0.95425  0.28742  Biso   1.000  C
  C789     1.0000 0.22063  0.67127  0.52869  Biso   1.000  C
  C790     1.0000 0.50328  0.73231  0.32686  Biso   1.000  C
  C791     1.0000 0.81281  0.97784  0.24668  Biso   1.000  C
  C792     1.0000 0.69443  0.69699  0.01774  Biso   1.000  C
  C793     1.0000 0.47540  0.17790  0.31079  Biso   1.000  C
  C794     1.0000 0.29550  0.45706  0.22146  Biso   1.000  C
  C795     1.0000 0.19559  0.25951  0.48307  Biso   1.000  C
  C796     1.0000 0.96358  0.17091  0.23400  Biso   1.000  C
  C797     1.0000 0.82922  0.45606  0.28026  Biso   1.000  C
  C798     1.0000 0.69019  0.24695  0.00566  Biso   1.000  C
  C799     1.0000 0.99803  0.66996  0.29357  Biso   1.000  C
  C800     1.0000 0.19854  0.96305  0.23972  Biso   1.000  C
  C801     1.0000 0.30884  0.75113  0.48959  Biso   1.000  C
  C802     1.0000 0.47900  0.64914  0.23473  Biso   1.000  C
  C803     1.0000 0.72354  0.95276  0.32732  Biso   1.000  C
  C804     1.0000 0.80967  0.75544  0.05503  Biso   1.000  C
  C805     1.0000 0.53319  0.78417  0.73880  Biso   1.000  C
  C806     1.0000 0.71602  0.49743  0.81320  Biso   1.000  C
  C807     1.0000 0.77529  0.66241  0.52746  Biso   1.000  C
  C808     1.0000 0.02799  0.74773  0.82671  Biso   1.000  C
  C809     1.0000 0.18578  0.48558  0.74938  Biso   1.000  C
  C810     1.0000 0.30989  0.69117  0.98545  Biso   1.000  C
  C811     1.0000 0.01470  0.28378  0.73880  Biso   1.000  C
  C812     1.0000 0.79082  0.98686  0.82852  Biso   1.000  C
  C813     1.0000 0.72632  0.17108  0.53778  Biso   1.000  C
  C814     1.0000 0.48581  0.25790  0.82038  Biso   1.000  C
  C815     1.0000 0.28245  0.95925  0.70456  Biso   1.000  C
  C816     1.0000 0.19391  0.19025  0.99531  Biso   1.000  C
  C817     1.0000 0.99515  0.21537  0.80074  Biso   1.000  C
  C818     1.0000 0.75795  0.95486  0.23043  Biso   1.000  C
  C819     1.0000 0.24799  0.75742  0.00088  Biso   1.000  C
  C820     1.0000 0.48228  0.19330  0.75286  Biso   1.000  C
  C821     1.0000 0.26195  0.92245  0.29928  Biso   1.000  C
  C822     1.0000 0.74511  0.76060  0.52518  Biso   1.000  C
  C823     1.0000 0.52571  0.68915  0.77170  Biso   1.000  C
  C824     1.0000 0.73699  0.44803  0.24548  Biso   1.000  C
  C825     1.0000 0.25261  0.26081  0.99909  Biso   1.000  C
  C826     1.0000 0.02258  0.68194  0.76043  Biso   1.000  C
  C827     1.0000 0.27106  0.47505  0.31488  Biso   1.000  C
  C828     1.0000 0.76000  0.26326  0.52328  Biso   1.000  C
  C829     1.0000 0.03733  0.73309  0.23198  Biso   1.000  C
  C830     1.0000 0.25116  0.99594  0.79718  Biso   1.000  C
  C831     1.0000 0.78990  0.21446  0.02753  Biso   1.000  C
  C832     1.0000 0.46656  0.73868  0.27664  Biso   1.000  C
  C833     1.0000 0.74285  0.95013  0.73911  Biso   1.000  C
  C834     1.0000 0.25475  0.18827  0.49037  Biso   1.000  C
  C835     1.0000 0.48507  0.24607  0.25296  Biso   1.000  C
  C836     1.0000 0.27951  0.47419  0.77661  Biso   1.000  C
  C837     1.0000 0.74772  0.68426  0.04339  Biso   1.000  C
  C838     1.0000 0.97490  0.23338  0.30220  Biso   1.000  C
  C839     1.0000 0.75238  0.49921  0.71770  Biso   1.000  C
  C840     1.0000 0.21671  0.71491  0.48543  Biso   1.000  C
  C841     1.0000 0.21552  0.96945  0.76539  Biso   1.000  C
  C842     1.0000 0.76262  0.19256  0.98803  Biso   1.000  C
  C843     1.0000 0.01230  0.76559  0.26524  Biso   1.000  C
  C844     1.0000 0.72486  0.99409  0.76277  Biso   1.000  C
  C845     1.0000 0.28553  0.21963  0.51776  Biso   1.000  C
  C846     1.0000 0.50150  0.71086  0.30535  Biso   1.000  C
  C847     1.0000 0.24758  0.44990  0.81210  Biso   1.000  C
  C848     1.0000 0.71397  0.71930  0.02276  Biso   1.000  C
  C849     1.0000 0.51179  0.21494  0.21796  Biso   1.000  C
  C850     1.0000 0.76939  0.45306  0.73951  Biso   1.000  C
  C851     1.0000 0.23988  0.69493  0.52908  Biso   1.000  C
  C852     1.0000 0.01646  0.25437  0.27688  Biso   1.000  C
  C853     1.0000 0.78998  0.97744  0.26609  Biso   1.000  C
  C854     1.0000 0.22411  0.72563  0.03544  Biso   1.000  C
  C855     1.0000 0.02428  0.18368  0.77041  Biso   1.000  C
  C856     1.0000 0.29185  0.95066  0.26611  Biso   1.000  C
  C857     1.0000 0.71375  0.73018  0.49403  Biso   1.000  C
  C858     1.0000 0.51954  0.21992  0.72637  Biso   1.000  C
  C859     1.0000 0.76548  0.48280  0.21634  Biso   1.000  C
  C860     1.0000 0.28913  0.22410  0.01410  Biso   1.000  C
  C861     1.0000 0.50107  0.72402  0.80292  Biso   1.000  C
  C862     1.0000 0.24396  0.50507  0.28221  Biso   1.000  C
  C863     1.0000 0.79137  0.22960  0.49897  Biso   1.000  C
  C864     1.0000 0.99379  0.71274  0.73082  Biso   1.000  C
  C865     1.0000 0.70754  0.46502  0.76029  Biso   1.000  C
  C866     1.0000 0.78952  0.71867  0.50109  Biso   1.000  C
  C867     1.0000 0.49880  0.73321  0.72881  Biso   1.000  C
  C868     1.0000 0.23324  0.45057  0.73607  Biso   1.000  C
  C869     1.0000 0.26790  0.68383  0.02774  Biso   1.000  C
  C870     1.0000 0.99225  0.75344  0.77652  Biso   1.000  C
  C871     1.0000 0.79246  0.95043  0.78004  Biso   1.000  C
  C872     1.0000 0.71787  0.21609  0.49634  Biso   1.000  C
  C873     1.0000 0.00595  0.22466  0.72501  Biso   1.000  C
  C874     1.0000 0.29344  0.99189  0.75442  Biso   1.000  C
  C875     1.0000 0.24198  0.18904  0.03298  Biso   1.000  C
  C876     1.0000 0.51480  0.26436  0.76732  Biso   1.000  C
  C877     1.0000 0.31808  0.49442  0.26688  Biso   1.000  C
  C878     1.0000 0.24136  0.25972  0.52663  Biso   1.000  C
  C879     1.0000 0.50890  0.16980  0.26089  Biso   1.000  C
  C880     1.0000 0.78051  0.49084  0.28088  Biso   1.000  C
  C881     1.0000 0.74784  0.26196  0.02261  Biso   1.000  C
  C882     1.0000 0.01050  0.21083  0.23221  Biso   1.000  C
  C883     1.0000 0.24422  0.92453  0.22580  Biso   1.000  C
  C884     1.0000 0.25655  0.76024  0.52092  Biso   1.000  C
  C885     1.0000 0.03359  0.71826  0.30667  Biso   1.000  C
  C886     1.0000 0.71581  0.98090  0.27208  Biso   1.000  C
  C887     1.0000 0.76220  0.76233  0.01597  Biso   1.000  C
  C888     1.0000 0.50233  0.70549  0.23178  Biso   1.000  C
  C889     1.0000 0.74404  0.95097  0.30672  Biso   1.000  C
  C890     1.0000 0.28899  0.71350  0.98915  Biso   1.000  C
  C891     1.0000 0.01436  0.26242  0.76024  Biso   1.000  C
  C892     1.0000 0.21948  0.95633  0.26012  Biso   1.000  C
  C893     1.0000 0.75509  0.68486  0.52365  Biso   1.000  C
  C894     1.0000 0.48317  0.23659  0.79770  Biso   1.000  C
  C895     1.0000 0.80611  0.45078  0.26102  Biso   1.000  C
  C896     1.0000 0.21577  0.21056  0.99225  Biso   1.000  C
  C897     1.0000 0.53167  0.76274  0.75926  Biso   1.000  C
  C898     1.0000 0.27775  0.46612  0.24383  Biso   1.000  C
  C899     1.0000 0.74498  0.19393  0.53510  Biso   1.000  C
  C900     1.0000 0.02574  0.72696  0.80564  Biso   1.000  C
  C901     1.0000 0.26125  0.95952  0.72572  Biso   1.000  C
  C902     1.0000 0.71383  0.22763  0.00242  Biso   1.000  C
  C903     1.0000 0.00344  0.69149  0.27302  Biso   1.000  C
  C904     1.0000 0.77082  0.98789  0.80658  Biso   1.000  C
  C905     1.0000 0.21575  0.23793  0.48580  Biso   1.000  C
  C906     1.0000 0.47599  0.66724  0.25763  Biso   1.000  C
  C907     1.0000 0.20613  0.47807  0.77082  Biso   1.000  C
  C908     1.0000 0.78722  0.73370  0.05470  Biso   1.000  C
  C909     1.0000 0.47440  0.19813  0.28826  Biso   1.000  C
  C910     1.0000 0.73596  0.49928  0.79006  Biso   1.000  C
  C911     1.0000 0.28616  0.72936  0.48982  Biso   1.000  C
  C912     1.0000 0.96620  0.19247  0.25462  Biso   1.000  C
  C913     1.0000 0.75109  0.47657  0.73920  Biso   1.000  C
  C914     1.0000 0.74048  0.73620  0.50904  Biso   1.000  C
  C915     1.0000 0.51350  0.71707  0.77702  Biso   1.000  C
  C916     1.0000 0.25342  0.46079  0.78439  Biso   1.000  C
  C917     1.0000 0.24739  0.73227  0.01746  Biso   1.000  C
  C918     1.0000 0.00962  0.70770  0.75669  Biso   1.000  C
  C919     1.0000 0.74493  0.97157  0.76188  Biso   1.000  C
  C920     1.0000 0.76477  0.23703  0.51087  Biso   1.000  C
  C921     1.0000 0.01232  0.21121  0.77632  Biso   1.000  C
  C922     1.0000 0.24436  0.98025  0.77108  Biso   1.000  C
  C923     1.0000 0.26131  0.23201  0.00860  Biso   1.000  C
  C924     1.0000 0.50149  0.21662  0.75060  Biso   1.000  C
  C925     1.0000 0.26816  0.49042  0.28891  Biso   1.000  C
  C926     1.0000 0.25930  0.21334  0.50566  Biso   1.000  C
  C927     1.0000 0.49690  0.22004  0.24415  Biso   1.000  C
  C928     1.0000 0.76093  0.46597  0.23991  Biso   1.000  C
  C929     1.0000 0.76628  0.21404  0.00817  Biso   1.000  C
  C930     1.0000 0.99501  0.23257  0.27989  Biso   1.000  C
  C931     1.0000 0.26786  0.93532  0.27235  Biso   1.000  C
  C932     1.0000 0.23829  0.71436  0.50594  Biso   1.000  C
  C933     1.0000 0.02566  0.73941  0.25928  Biso   1.000  C
  C934     1.0000 0.76384  0.96510  0.25887  Biso   1.000  C
  C935     1.0000 0.74161  0.71321  0.03360  Biso   1.000  C
  C936     1.0000 0.48259  0.71372  0.28132  Biso   1.000  C
  C937     1.0000 0.74239  0.23528  0.01017  Biso   1.000  C
  C938     1.0000 0.02257  0.71430  0.27944  Biso   1.000  C
  C939     1.0000 0.26679  0.97735  0.74961  Biso   1.000  C
  C940     1.0000 0.23760  0.23737  0.50694  Biso   1.000  C
  C941     1.0000 0.48562  0.69619  0.25566  Biso   1.000  C
  C942     1.0000 0.77122  0.97118  0.78213  Biso   1.000  C
  C943     1.0000 0.76517  0.73786  0.03413  Biso   1.000  C
  C944     1.0000 0.49214  0.19448  0.26400  Biso   1.000  C
  C945     1.0000 0.22884  0.46103  0.76379  Biso   1.000  C
  C946     1.0000 0.26084  0.73547  0.50389  Biso   1.000  C
  C947     1.0000 0.98925  0.21200  0.25410  Biso   1.000  C
  C948     1.0000 0.73149  0.48189  0.76461  Biso   1.000  C
  C949     1.0000 0.26803  0.70921  0.01060  Biso   1.000  C
  C950     1.0000 0.01291  0.23298  0.75292  Biso   1.000  C
  C951     1.0000 0.74034  0.96479  0.27916  Biso   1.000  C
  C952     1.0000 0.76139  0.71185  0.51050  Biso   1.000  C
  C953     1.0000 0.49852  0.24004  0.77182  Biso   1.000  C
  C954     1.0000 0.24171  0.93684  0.25268  Biso   1.000  C
  C955     1.0000 0.23870  0.21057  0.01248  Biso   1.000  C
  C956     1.0000 0.51505  0.73789  0.75326  Biso   1.000  C
  C957     1.0000 0.78303  0.46870  0.26102  Biso   1.000  C
  C958     1.0000 0.74299  0.21471  0.51310  Biso   1.000  C
  C959     1.0000 0.00963  0.72967  0.78051  Biso   1.000  C
  C960     1.0000 0.28800  0.48484  0.26497  Biso   1.000  C
  Cu1      1.0000 0.99247  0.46973  0.66882  Biso   1.000  Cu
  Cu2      1.0000 0.65336  0.97303  0.51903  Biso   1.000  Cu
  Cu3      1.0000 0.50456  0.62315  0.01233  Biso   1.000  Cu
  Cu4      1.0000 0.49696  0.47648  0.86309  Biso   1.000  Cu
  Cu5      1.0000 0.15925  0.96802  0.01468  Biso   1.000  Cu
  Cu6      1.0000 0.00328  0.62976  0.51701  Biso   1.000  Cu
  Cu7      1.0000 0.50767  0.97863  0.66734  Biso   1.000  Cu
  Cu8      1.0000 0.84649  0.47405  0.50460  Biso   1.000  Cu
  Cu9      1.0000 0.00025  0.12891  0.01711  Biso   1.000  Cu
  Cu10     1.0000 0.00708  0.97108  0.86292  Biso   1.000  Cu
  Cu11     1.0000 0.35130  0.47044  0.02216  Biso   1.000  Cu
  Cu12     1.0000 0.50238  0.12939  0.51072  Biso   1.000  Cu
  Cu13     1.0000 0.01925  0.47369  0.35838  Biso   1.000  Cu
  Cu14     1.0000 0.35391  0.97448  0.51165  Biso   1.000  Cu
  Cu15     1.0000 0.49848  0.32042  0.01581  Biso   1.000  Cu
  Cu16     1.0000 0.51790  0.46083  0.16717  Biso   1.000  Cu
  Cu17     1.0000 0.84922  0.97521  0.02587  Biso   1.000  Cu
  Cu18     1.0000 0.00312  0.32512  0.51134  Biso   1.000  Cu
  Cu19     1.0000 0.50351  0.95547  0.35899  Biso   1.000  Cu
  Cu20     1.0000 0.16289  0.47270  0.51853  Biso   1.000  Cu
  Cu21     1.0000 0.00821  0.81992  0.01879  Biso   1.000  Cu
  Cu22     1.0000 0.00458  0.97445  0.17358  Biso   1.000  Cu
  Cu23     1.0000 0.65417  0.47362  0.00648  Biso   1.000  Cu
  Cu24     1.0000 0.50246  0.81234  0.51380  Biso   1.000  Cu
  Cu25     1.0000 0.21614  0.97333  0.01415  Biso   1.000  Cu
  Cu26     1.0000 0.00317  0.18220  0.01665  Biso   1.000  Cu
  Cu27     1.0000 0.00627  0.97436  0.22748  Biso   1.000  Cu
  Cu28     1.0000 0.70743  0.97617  0.51744  Biso   1.000  Cu
  Cu29     1.0000 0.50308  0.18275  0.50552  Biso   1.000  Cu
  Cu30     1.0000 0.50124  0.95570  0.30199  Biso   1.000  Cu
  Cu31     1.0000 0.29589  0.46862  0.02328  Biso   1.000  Cu
  Cu32     1.0000 0.50079  0.67729  0.01565  Biso   1.000  Cu
  Cu33     1.0000 0.52027  0.46110  0.22238  Biso   1.000  Cu
  Cu34     1.0000 0.79321  0.47107  0.49891  Biso   1.000  Cu
  Cu35     1.0000 0.00681  0.68228  0.51689  Biso   1.000  Cu
  Cu36     1.0000 0.02109  0.47684  0.30446  Biso   1.000  Cu
  Cu37     1.0000 0.79533  0.97279  0.02350  Biso   1.000  Cu
  Cu38     1.0000 0.00341  0.76585  0.01952  Biso   1.000  Cu
  Cu39     1.0000 0.00318  0.97067  0.80782  Biso   1.000  Cu
  Cu40     1.0000 0.29937  0.97143  0.51148  Biso   1.000  Cu
  Cu41     1.0000 0.50242  0.75850  0.51988  Biso   1.000  Cu
  Cu42     1.0000 0.50506  0.98011  0.72329  Biso   1.000  Cu
  Cu43     1.0000 0.70864  0.47427  0.99948  Biso   1.000  Cu
  Cu44     1.0000 0.50203  0.26561  0.01161  Biso   1.000  Cu
  Cu45     1.0000 0.49106  0.47881  0.80895  Biso   1.000  Cu
  Cu46     1.0000 0.21777  0.47330  0.52368  Biso   1.000  Cu
  Cu47     1.0000 0.00484  0.26896  0.51179  Biso   1.000  Cu
  Cu48     1.0000 0.98748  0.47220  0.72125  Biso   1.000  Cu
  H1       1.0000 0.23398  0.76372  0.52658  Biso   1.000  H
  H2       1.0000 0.52368  0.26886  0.74630  Biso   1.000  H
  H3       1.0000 0.76157  0.50677  0.27987  Biso   1.000  H
  H4       1.0000 0.74545  0.76538  0.99912  Biso   1.000  H
  H5       1.0000 0.00229  0.20229  0.71966  Biso   1.000  H
  H6       1.0000 0.32501  0.50939  0.28362  Biso   1.000  H
  H7       1.0000 0.25647  0.26165  0.54483  Biso   1.000  H
  H8       1.0000 0.97829  0.75607  0.75900  Biso   1.000  H
  H9       1.0000 0.71267  0.99047  0.25171  Biso   1.000  H
  H10      1.0000 0.77009  0.26994  0.02908  Biso   1.000  H
  H11      1.0000 0.48526  0.71317  0.72824  Biso   1.000  H
  H12      1.0000 0.26202  0.90992  0.22234  Biso   1.000  H
  H13      1.0000 0.71397  0.23148  0.47829  Biso   1.000  H
  H14      1.0000 0.51292  0.72779  0.23180  Biso   1.000  H
  H15      1.0000 0.25055  0.43507  0.73215  Biso   1.000  H
  H16      1.0000 0.25929  0.18709  0.05054  Biso   1.000  H
  H17      1.0000 0.04535  0.74004  0.31254  Biso   1.000  H
  H18      1.0000 0.70291  0.45295  0.73913  Biso   1.000  H
  H19      1.0000 0.79672  0.73780  0.48947  Biso   1.000  H
  H20      1.0000 0.02698  0.22780  0.23120  Biso   1.000  H
  H21      1.0000 0.29804  0.00851  0.77077  Biso   1.000  H
  H22      1.0000 0.24971  0.67897  0.04199  Biso   1.000  H
  H23      1.0000 0.52503  0.16875  0.24314  Biso   1.000  H
  H24      1.0000 0.79307  0.93669  0.76170  Biso   1.000  H
  H25      1.0000 0.27295  0.00552  0.80175  Biso   1.000  H
  H26      1.0000 0.79149  0.23225  0.04303  Biso   1.000  H
  H27      1.0000 0.04803  0.71291  0.22608  Biso   1.000  H
  H28      1.0000 0.75524  0.93003  0.74006  Biso   1.000  H
  H29      1.0000 0.23344  0.18388  0.48189  Biso   1.000  H
  H30      1.0000 0.45148  0.74081  0.25862  Biso   1.000  H
  H31      1.0000 0.28006  0.48322  0.75499  Biso   1.000  H
  H32      1.0000 0.76879  0.68003  0.05181  Biso   1.000  H
  H33      1.0000 0.47749  0.24958  0.27351  Biso   1.000  H
  H34      1.0000 0.73958  0.51775  0.71908  Biso   1.000  H
  H35      1.0000 0.21681  0.73174  0.46936  Biso   1.000  H
  H36      1.0000 0.96180  0.21367  0.30697  Biso   1.000  H
  H37      1.0000 0.73744  0.94408  0.22399  Biso   1.000  H
  H38      1.0000 0.26601  0.76373  0.98677  Biso   1.000  H
  H39      1.0000 0.98409  0.23558  0.80260  Biso   1.000  H
  H40      1.0000 0.24347  0.90745  0.29785  Biso   1.000  H
  H41      1.0000 0.76452  0.76346  0.53773  Biso   1.000  H
  H42      1.0000 0.46806  0.19033  0.77061  Biso   1.000  H
  H43      1.0000 0.73824  0.43613  0.26544  Biso   1.000  H
  H44      1.0000 0.23095  0.26447  0.99134  Biso   1.000  H
  H45      1.0000 0.53612  0.68464  0.75105  Biso   1.000  H
  H46      1.0000 0.29065  0.46359  0.31881  Biso   1.000  H
  H47      1.0000 0.73872  0.26767  0.53289  Biso   1.000  H
  H48      1.0000 0.03666  0.67717  0.78021  Biso   1.000  H
  H49      1.0000 0.24360  0.51882  0.26366  Biso   1.000  H
  H50      1.0000 0.28743  0.24065  0.52742  Biso   1.000  H
  H51      1.0000 0.52252  0.19560  0.21112  Biso   1.000  H
  H52      1.0000 0.78333  0.49811  0.21680  Biso   1.000  H
  H53      1.0000 0.74488  0.19078  0.97233  Biso   1.000  H
  H54      1.0000 0.03261  0.25206  0.26017  Biso   1.000  H
  H55      1.0000 0.29581  0.96252  0.24492  Biso   1.000  H
  H56      1.0000 0.25829  0.69537  0.54401  Biso   1.000  H
  H57      1.0000 0.00336  0.76938  0.28587  Biso   1.000  H
  H58      1.0000 0.79610  0.98702  0.28881  Biso   1.000  H
  H59      1.0000 0.70781  0.74136  0.01702  Biso   1.000  H
  H60      1.0000 0.51480  0.69246  0.30726  Biso   1.000  H
  H61      1.0000 0.76555  0.43639  0.75485  Biso   1.000  H
  H62      1.0000 0.71243  0.71389  0.47768  Biso   1.000  H
  H63      1.0000 0.49199  0.74461  0.80498  Biso   1.000  H
  H64      1.0000 0.22685  0.43862  0.81412  Biso   1.000  H
  H65      1.0000 0.22229  0.70549  0.04788  Biso   1.000  H
  H66      1.0000 0.98448  0.73573  0.72578  Biso   1.000  H
  H67      1.0000 0.72665  0.00951  0.78030  Biso   1.000  H
  H68      1.0000 0.79388  0.20810  0.49074  Biso   1.000  H
  H69      1.0000 0.03817  0.18137  0.75019  Biso   1.000  H
  H70      1.0000 0.20958  0.96047  0.74554  Biso   1.000  H
  H71      1.0000 0.29238  0.20237  0.02128  Biso   1.000  H
  H72      1.0000 0.53631  0.23491  0.72242  Biso   1.000  H
  H73      1.0000 0.75634  0.50961  0.79451  Biso   1.000  H
  H74      1.0000 0.73321  0.68270  0.52913  Biso   1.000  H
  H75      1.0000 0.54289  0.76318  0.77923  Biso   1.000  H
  H76      1.0000 0.20579  0.48494  0.79412  Biso   1.000  H
  H77      1.0000 0.28844  0.73449  0.97872  Biso   1.000  H
  H78      1.0000 0.03982  0.70824  0.80899  Biso   1.000  H
  H79      1.0000 0.75239  0.00320  0.80839  Biso   1.000  H
  H80      1.0000 0.76463  0.19450  0.54937  Biso   1.000  H
  H81      1.0000 0.01758  0.26627  0.78378  Biso   1.000  H
  H82      1.0000 0.24165  0.94579  0.72549  Biso   1.000  H
  H83      1.0000 0.21410  0.22628  0.97539  Biso   1.000  H
  H84      1.0000 0.46879  0.21927  0.80036  Biso   1.000  H
  H85      1.0000 0.25635  0.45566  0.24575  Biso   1.000  H
  H86      1.0000 0.21453  0.21986  0.47077  Biso   1.000  H
  H87      1.0000 0.46009  0.21626  0.29174  Biso   1.000  H
  H88      1.0000 0.80681  0.43365  0.24498  Biso   1.000  H
  H89      1.0000 0.71169  0.20617  0.99433  Biso   1.000  H
  H90      1.0000 0.94966  0.19550  0.27097  Biso   1.000  H
  H91      1.0000 0.21720  0.96728  0.28203  Biso   1.000  H
  H92      1.0000 0.28711  0.70867  0.47638  Biso   1.000  H
  H93      1.0000 0.99408  0.68774  0.25062  Biso   1.000  H
  H94      1.0000 0.76204  0.93763  0.30955  Biso   1.000  H
  H95      1.0000 0.78969  0.71466  0.06867  Biso   1.000  H
  H96      1.0000 0.46477  0.65910  0.27640  Biso   1.000  H
  H97      1.0000 0.87394  0.96406  0.93419  Biso   1.000  H
  H98      1.0000 0.91429  0.84342  0.02609  Biso   1.000  H
  H99      1.0000 0.00387  0.87940  0.88355  Biso   1.000  H
  H100     1.0000 0.37277  0.98030  0.60168  Biso   1.000  H
  H101     1.0000 0.41202  0.83694  0.50641  Biso   1.000  H
  H102     1.0000 0.51544  0.88557  0.64629  Biso   1.000  H
  H103     1.0000 0.62952  0.47139  0.91590  Biso   1.000  H
  H104     1.0000 0.58843  0.34056  0.02723  Biso   1.000  H
  H105     1.0000 0.50630  0.39237  0.87662  Biso   1.000  H
  H106     1.0000 0.12813  0.47334  0.61286  Biso   1.000  H
  H107     1.0000 0.09624  0.34560  0.51279  Biso   1.000  H
  H108     1.0000 0.99508  0.37810  0.64965  Biso   1.000  H
  H109     1.0000 0.13716  0.97681  0.10650  Biso   1.000  H
  H110     1.0000 0.08928  0.10847  0.01830  Biso   1.000  H
  H111     1.0000 0.98793  0.06532  0.14818  Biso   1.000  H
  H112     1.0000 0.63327  0.96809  0.42454  Biso   1.000  H
  H113     1.0000 0.59344  0.11050  0.51994  Biso   1.000  H
  H114     1.0000 0.50218  0.05460  0.38205  Biso   1.000  H
  H115     1.0000 0.37855  0.46068  0.11226  Biso   1.000  H
  H116     1.0000 0.41256  0.59864  0.99606  Biso   1.000  H
  H117     1.0000 0.50829  0.54997  0.14577  Biso   1.000  H
  H118     1.0000 0.87705  0.47027  0.41268  Biso   1.000  H
  H119     1.0000 0.90922  0.60394  0.52461  Biso   1.000  H
  H120     1.0000 0.01215  0.56551  0.38356  Biso   1.000  H
  H121     1.0000 0.09794  0.98062  0.87918  Biso   1.000  H
  H122     1.0000 0.86790  0.06692  0.02504  Biso   1.000  H
  H123     1.0000 0.00919  0.84273  0.11289  Biso   1.000  H
  H124     1.0000 0.59712  0.98391  0.65287  Biso   1.000  H
  H125     1.0000 0.36663  0.06608  0.50544  Biso   1.000  H
  H126     1.0000 0.49501  0.82810  0.42478  Biso   1.000  H
  H127     1.0000 0.40541  0.47578  0.88707  Biso   1.000  H
  H128     1.0000 0.63570  0.56170  0.01376  Biso   1.000  H
  H129     1.0000 0.49257  0.33297  0.10294  Biso   1.000  H
  H130     1.0000 0.90088  0.47625  0.64248  Biso   1.000  H
  H131     1.0000 0.13437  0.56234  0.52344  Biso   1.000  H
  H132     1.0000 1.00000  0.35000  0.41680  Biso   1.000  H
  H133     1.0000 0.91033  0.97304  0.15421  Biso   1.000  H
  H134     1.0000 0.14141  0.87729  0.01743  Biso   1.000  H
  H135     1.0000 0.99205  0.10446  0.92440  Biso   1.000  H
  H136     1.0000 0.41310  0.96387  0.37852  Biso   1.000  H
  H137     1.0000 0.63187  0.88282  0.51739  Biso   1.000  H
  H138     1.0000 0.50736  0.11626  0.59789  Biso   1.000  H
  H139     1.0000 0.60824  0.46721  0.14284  Biso   1.000  H
  H140     1.0000 0.37004  0.37861  0.01375  Biso   1.000  H
  H141     1.0000 0.51408  0.61053  0.92226  Biso   1.000  H
  H142     1.0000 0.11184  0.47757  0.38442  Biso   1.000  H
  H143     1.0000 0.87516  0.38299  0.50304  Biso   1.000  H
  H144     1.0000 0.00826  0.60191  0.60849  Biso   1.000  H
  H145     1.0000 0.58714  0.48198  0.87428  Biso   1.000  H
  H146     1.0000 0.86564  0.56256  0.52929  Biso   1.000  H
  H147     1.0000 0.51039  0.84226  0.60715  Biso   1.000  H
  H148     1.0000 0.08119  0.47767  0.65238  Biso   1.000  H
  H149     1.0000 0.36778  0.55965  0.00579  Biso   1.000  H
  H150     1.0000 0.00549  0.83620  0.92732  Biso   1.000  H
  H151     1.0000 0.91631  0.95743  0.89240  Biso   1.000  H
  H152     1.0000 0.63054  0.06717  0.53264  Biso   1.000  H
  H153     1.0000 0.00767  0.33889  0.60317  Biso   1.000  H
  H154     1.0000 0.41138  0.96671  0.64157  Biso   1.000  H
  H155     1.0000 0.13396  0.05860  0.01630  Biso   1.000  H
  H156     1.0000 0.51250  0.34871  0.92375  Biso   1.000  H
  H157     1.0000 0.42621  0.45780  0.15022  Biso   1.000  H
  H158     1.0000 0.13789  0.38464  0.51688  Biso   1.000  H
  H159     1.0000 0.49854  0.09732  0.41974  Biso   1.000  H
  H160     1.0000 0.92163  0.47649  0.37624  Biso   1.000  H
  H161     1.0000 0.63718  0.38305  0.01518  Biso   1.000  H
  H162     1.0000 0.99471  0.10614  0.10612  Biso   1.000  H
  H163     1.0000 0.09456  0.98159  0.14990  Biso   1.000  H
  H164     1.0000 0.37493  0.88044  0.50740  Biso   1.000  H
  H165     1.0000 0.99899  0.60866  0.42433  Biso   1.000  H
  H166     1.0000 0.59088  0.96194  0.37932  Biso   1.000  H
  H167     1.0000 0.87420  0.88461  0.02856  Biso   1.000  H
  H168     1.0000 0.50324  0.59444  0.10450  Biso   1.000  H
  H169     1.0000 0.99868  0.06266  0.88153  Biso   1.000  H
  H170     1.0000 0.86910  0.97981  0.11439  Biso   1.000  H
  H171     1.0000 0.09814  0.83547  0.01526  Biso   1.000  H
  H172     1.0000 0.50157  0.06984  0.64412  Biso   1.000  H
  H173     1.0000 0.37188  0.96260  0.42040  Biso   1.000  H
  H174     1.0000 0.59011  0.83746  0.51550  Biso   1.000  H
  H175     1.0000 0.49813  0.56936  0.88363  Biso   1.000  H
  H176     1.0000 0.64458  0.47566  0.09687  Biso   1.000  H
  H177     1.0000 0.41080  0.33834  0.99937  Biso   1.000  H
  H178     1.0000 0.01032  0.56036  0.64964  Biso   1.000  H
  H179     1.0000 0.14998  0.47753  0.42587  Biso   1.000  H
  H180     1.0000 0.91584  0.34133  0.51411  Biso   1.000  H
  H181     1.0000 0.01131  0.88410  0.14957  Biso   1.000  H
  H182     1.0000 0.13942  0.96991  0.92080  Biso   1.000  H
  H183     1.0000 0.90949  0.10621  0.01759  Biso   1.000  H
  H184     1.0000 0.49984  0.86418  0.38129  Biso   1.000  H
  H185     1.0000 0.63588  0.98514  0.61571  Biso   1.000  H
  H186     1.0000 0.40923  0.10770  0.50669  Biso   1.000  H
  H187     1.0000 0.51019  0.37138  0.14706  Biso   1.000  H
  H188     1.0000 0.36488  0.46922  0.92929  Biso   1.000  H
  H189     1.0000 0.59170  0.60372  0.02200  Biso   1.000  H
  H190     1.0000 0.00508  0.38827  0.37462  Biso   1.000  H
  H191     1.0000 0.86146  0.47879  0.59635  Biso   1.000  H
  H192     1.0000 0.09328  0.60489  0.51436  Biso   1.000  H
  H193     1.0000 0.27282  0.83374  0.49668  Biso   1.000  H
  H194     1.0000 0.51031  0.25305  0.87058  Biso   1.000  H
  H195     1.0000 0.87802  0.47576  0.27553  Biso   1.000  H
  H196     1.0000 0.77513  0.83143  0.04232  Biso   1.000  H
  H197     1.0000 0.02739  0.24416  0.65515  Biso   1.000  H
  H198     1.0000 0.38024  0.45768  0.25196  Biso   1.000  H
  H199     1.0000 0.23380  0.32969  0.51021  Biso   1.000  H
  H200     1.0000 0.00898  0.73990  0.87425  Biso   1.000  H
  H201     1.0000 0.64326  0.96427  0.28385  Biso   1.000  H
  H202     1.0000 0.73171  0.32659  0.00908  Biso   1.000  H
  H203     1.0000 0.52688  0.74827  0.65782  Biso   1.000  H
  H204     1.0000 0.14905  0.95632  0.24380  Biso   1.000  H
  H205     1.0000 0.73157  0.11633  0.52513  Biso   1.000  H
  H206     1.0000 0.49134  0.69172  0.15778  Biso   1.000  H
  H207     1.0000 0.13348  0.47671  0.75224  Biso   1.000  H
  H208     1.0000 0.23081  0.11529  0.01683  Biso   1.000  H
  H209     1.0000 0.99926  0.70580  0.37199  Biso   1.000  H
  H210     1.0000 0.63884  0.49224  0.77673  Biso   1.000  H
  H211     1.0000 0.77619  0.61757  0.49569  Biso   1.000  H
  H212     1.0000 0.99474  0.20351  0.16162  Biso   1.000  H
  H213     1.0000 0.36394  0.96902  0.74052  Biso   1.000  H
  H214     1.0000 0.27487  0.61353  0.00797  Biso   1.000  H
  H215     1.0000 0.49588  0.19014  0.36043  Biso   1.000  H
  H216     1.0000 0.86287  0.96145  0.79355  Biso   1.000  H
  H217     1.0000 0.24988  0.48816  0.38274  Biso   1.000  H
  H218     1.0000 0.35801  0.20475  0.49451  Biso   1.000  H
  H219     1.0000 0.50947  0.31430  0.24096  Biso   1.000  H
  H220     1.0000 0.74631  0.46904  0.14360  Biso   1.000  H
  H221     1.0000 0.85828  0.20240  0.00506  Biso   1.000  H
  H222     1.0000 0.00487  0.32935  0.28047  Biso   1.000  H
  H223     1.0000 0.27345  0.94573  0.36927  Biso   1.000  H
  H224     1.0000 0.14568  0.70098  0.50812  Biso   1.000  H
  H225     1.0000 0.02932  0.83653  0.24962  Biso   1.000  H
  H226     1.0000 0.77402  0.97668  0.16631  Biso   1.000  H
  H227     1.0000 0.64892  0.69623  0.04242  Biso   1.000  H
  H228     1.0000 0.49469  0.81052  0.28544  Biso   1.000  H
  H229     1.0000 0.76315  0.47106  0.64512  Biso   1.000  H
  H230     1.0000 0.64827  0.74649  0.52366  Biso   1.000  H
  H231     1.0000 0.49929  0.62373  0.78814  Biso   1.000  H
  H232     1.0000 0.26709  0.47378  0.88060  Biso   1.000  H
  H233     1.0000 0.14991  0.74150  0.02407  Biso   1.000  H
  H234     1.0000 0.99041  0.61652  0.74285  Biso   1.000  H
  H235     1.0000 0.73662  0.97635  0.66203  Biso   1.000  H
  H236     1.0000 0.85984  0.24497  0.52267  Biso   1.000  H
  H237     1.0000 0.99467  0.11315  0.78480  Biso   1.000  H
  H238     1.0000 0.23587  0.98288  0.86762  Biso   1.000  H
  H239     1.0000 0.35949  0.24144  0.99284  Biso   1.000  H
  H240     1.0000 0.49797  0.12483  0.73997  Biso   1.000  H
  H241     1.0000 0.72506  0.46777  0.86044  Biso   1.000  H
  H242     1.0000 0.85766  0.70176  0.52619  Biso   1.000  H
  H243     1.0000 0.51080  0.83397  0.74399  Biso   1.000  H
  H244     1.0000 0.22134  0.48406  0.67037  Biso   1.000  H
  H245     1.0000 0.36274  0.69726  0.99049  Biso   1.000  H
  H246     1.0000 0.01503  0.82769  0.78653  Biso   1.000  H
  H247     1.0000 0.77686  0.95942  0.87873  Biso   1.000  H
  H248     1.0000 0.64651  0.20667  0.51936  Biso   1.000  H
  H249     1.0000 0.98525  0.32000  0.74348  Biso   1.000  H
  H250     1.0000 0.27631  0.97797  0.65559  Biso   1.000  H
  H251     1.0000 0.15193  0.20002  0.02725  Biso   1.000  H
  H252     1.0000 0.49337  0.33058  0.78462  Biso   1.000  H
  H253     1.0000 0.28468  0.47077  0.17058  Biso   1.000  H
  H254     1.0000 0.14342  0.24778  0.49441  Biso   1.000  H
  H255     1.0000 0.48855  0.09663  0.28070  Biso   1.000  H
  H256     1.0000 0.78454  0.48603  0.35659  Biso   1.000  H
  H257     1.0000 0.64393  0.24509  0.03087  Biso   1.000  H
  H258     1.0000 0.97578  0.11824  0.24416  Biso   1.000  H
  H259     1.0000 0.23091  0.95734  0.16043  Biso   1.000  H
  H260     1.0000 0.35089  0.74488  0.51338  Biso   1.000  H
  H261     1.0000 0.01925  0.62176  0.28852  Biso   1.000  H
  H262     1.0000 0.73206  0.97493  0.37463  Biso   1.000  H
  H263     1.0000 0.86060  0.74735  0.03815  Biso   1.000  H
  H264     1.0000 0.51579  0.60793  0.23929  Biso   1.000  H
  H265     1.0000 0.00612  0.20100  0.87425  Biso   1.000  H
  H266     1.0000 0.85880  0.94537  0.24613  Biso   1.000  H
  H267     1.0000 0.23690  0.82374  0.02054  Biso   1.000  H
  H268     1.0000 0.50067  0.20923  0.65446  Biso   1.000  H
  H269     1.0000 0.36194  0.93694  0.28225  Biso   1.000  H
  H270     1.0000 0.73084  0.83555  0.50171  Biso   1.000  H
  H271     1.0000 0.51128  0.70769  0.87330  Biso   1.000  H
  H272     1.0000 0.66998  0.46515  0.23247  Biso   1.000  H
  H273     1.0000 0.27244  0.32504  0.01878  Biso   1.000  H
  H274     1.0000 0.01157  0.70031  0.66167  Biso   1.000  H
  H275     1.0000 0.17061  0.48002  0.29180  Biso   1.000  H
  H276     1.0000 0.77577  0.32816  0.49898  Biso   1.000  H
  H277     1.0000 0.00992  0.74476  0.16261  Biso   1.000  H
  H278     1.0000 0.14804  0.99221  0.78266  Biso   1.000  H
  H279     1.0000 0.77131  0.11627  0.00407  Biso   1.000  H
  H280     1.0000 0.47791  0.72732  0.37788  Biso   1.000  H
  H281     1.0000 0.64977  0.97254  0.75206  Biso   1.000  H
  H282     1.0000 0.27009  0.11961  0.51759  Biso   1.000  H
  H283     1.0000 0.49304  0.23328  0.15209  Biso   1.000  H
  H284     1.0000 0.34727  0.45751  0.79349  Biso   1.000  H
  H285     1.0000 0.73263  0.62003  0.00510  Biso   1.000  H
  H286     1.0000 0.99341  0.24889  0.36869  Biso   1.000  H
  H287     1.0000 0.83974  0.46034  0.73522  Biso   1.000  H
  H288     1.0000 0.23141  0.62022  0.51318  Biso   1.000  H
  H289     1.0000 0.09522  0.20361  0.03127  Biso   1.000  H
  H290     1.0000 0.98464  0.06363  0.24519  Biso   1.000  H
  H291     1.0000 0.23086  0.96486  0.10810  Biso   1.000  H
  H292     1.0000 0.59220  0.20530  0.51567  Biso   1.000  H
  H293     1.0000 0.49816  0.04436  0.28626  Biso   1.000  H
  H294     1.0000 0.72628  0.97279  0.42905  Biso   1.000  H
  H295     1.0000 0.41774  0.69553  0.98872  Biso   1.000  H
  H296     1.0000 0.51894  0.55426  0.24177  Biso   1.000  H
  H297     1.0000 0.28259  0.47141  0.11396  Biso   1.000  H
  H298     1.0000 0.91143  0.70127  0.52509  Biso   1.000  H
  H299     1.0000 0.02289  0.56738  0.29000  Biso   1.000  H
  H300     1.0000 0.78264  0.48580  0.40831  Biso   1.000  H
  H301     1.0000 0.91719  0.75003  0.03353  Biso   1.000  H
  H302     1.0000 0.00982  0.88173  0.78693  Biso   1.000  H
  H303     1.0000 0.77974  0.95803  0.93646  Biso   1.000  H
  H304     1.0000 0.40584  0.74147  0.52042  Biso   1.000  H
  H305     1.0000 0.51120  0.88506  0.74460  Biso   1.000  H
  H306     1.0000 0.27735  0.98621  0.60023  Biso   1.000  H
  H307     1.0000 0.59087  0.24470  0.03419  Biso   1.000  H
  H308     1.0000 0.48215  0.38437  0.78513  Biso   1.000  H
  H309     1.0000 0.72411  0.46792  0.91644  Biso   1.000  H
  H310     1.0000 0.08984  0.25448  0.48405  Biso   1.000  H
  H311     1.0000 0.97039  0.37501  0.74307  Biso   1.000  H
  H312     1.0000 0.22362  0.48718  0.61674  Biso   1.000  H
  H313     1.0000 0.23634  0.96681  0.92152  Biso   1.000  H
  H314     1.0000 0.91407  0.20197  0.01452  Biso   1.000  H
  H315     1.0000 0.02397  0.88636  0.24486  Biso   1.000  H
  H316     1.0000 0.73121  0.97052  0.60754  Biso   1.000  H
  H317     1.0000 0.40895  0.20398  0.49916  Biso   1.000  H
  H318     1.0000 0.50085  0.86481  0.28613  Biso   1.000  H
  H319     1.0000 0.26758  0.47610  0.93366  Biso   1.000  H
  H320     1.0000 0.59518  0.69767  0.04374  Biso   1.000  H
  H321     1.0000 0.51895  0.36896  0.24255  Biso   1.000  H
  H322     1.0000 0.76405  0.47396  0.59112  Biso   1.000  H
  H323     1.0000 0.09026  0.70049  0.50887  Biso   1.000  H
  H324     1.0000 0.01370  0.38547  0.27837  Biso   1.000  H
  H325     1.0000 0.77301  0.98526  0.11634  Biso   1.000  H
  H326     1.0000 0.09475  0.74046  0.01834  Biso   1.000  H
  H327     1.0000 0.99995  0.06116  0.78531  Biso   1.000  H
  H328     1.0000 0.27581  0.95948  0.42151  Biso   1.000  H
  H329     1.0000 0.59306  0.74349  0.52707  Biso   1.000  H
  H330     1.0000 0.50534  0.07135  0.73884  Biso   1.000  H
  H331     1.0000 0.74015  0.47149  0.08865  Biso   1.000  H
  H332     1.0000 0.41163  0.24614  0.97920  Biso   1.000  H
  H333     1.0000 0.49803  0.56783  0.78590  Biso   1.000  H
  H334     1.0000 0.24630  0.48865  0.43290  Biso   1.000  H
  H335     1.0000 0.91253  0.24386  0.52778  Biso   1.000  H
  H336     1.0000 0.99217  0.56124  0.74517  Biso   1.000  H
  H337     1.0000 0.00152  0.19999  0.92658  Biso   1.000  H
  H338     1.0000 0.91242  0.94329  0.24745  Biso   1.000  H
  H339     1.0000 0.23881  0.87887  0.01629  Biso   1.000  H
  H340     1.0000 0.50811  0.20911  0.59970  Biso   1.000  H
  H341     1.0000 0.41386  0.94497  0.28424  Biso   1.000  H
  H342     1.0000 0.72875  0.88697  0.50403  Biso   1.000  H
  H343     1.0000 0.52060  0.70570  0.92425  Biso   1.000  H
  H344     1.0000 0.61321  0.45868  0.23781  Biso   1.000  H
  H345     1.0000 0.27454  0.37535  0.02665  Biso   1.000  H
  H346     1.0000 0.01525  0.69747  0.60488  Biso   1.000  H
  H347     1.0000 0.11553  0.47929  0.28947  Biso   1.000  H
  H348     1.0000 0.78089  0.38373  0.48931  Biso   1.000  H
  H349     1.0000 0.01362  0.74676  0.10915  Biso   1.000  H
  H350     1.0000 0.09372  0.98984  0.78677  Biso   1.000  H
  H351     1.0000 0.77053  0.06305  0.01181  Biso   1.000  H
  H352     1.0000 0.48241  0.72924  0.42955  Biso   1.000  H
  H353     1.0000 0.59663  0.96943  0.75106  Biso   1.000  H
  H354     1.0000 0.27342  0.06430  0.52238  Biso   1.000  H
  H355     1.0000 0.47789  0.23985  0.09764  Biso   1.000  H
  H356     1.0000 0.40387  0.45735  0.79464  Biso   1.000  H
  H357     1.0000 0.73141  0.56507  0.99238  Biso   1.000  H
  H358     1.0000 0.99421  0.25392  0.42413  Biso   1.000  H
  H359     1.0000 0.89542  0.46461  0.73848  Biso   1.000  H
  H360     1.0000 0.23024  0.56559  0.51926  Biso   1.000  H
  H361     1.0000 0.00246  0.70613  0.42730  Biso   1.000  H
  H362     1.0000 0.41653  0.96674  0.73787  Biso   1.000  H
  H363     1.0000 0.72880  0.38107  0.99821  Biso   1.000  H
  H364     1.0000 0.49005  0.69119  0.10489  Biso   1.000  H
  H365     1.0000 0.91351  0.96954  0.79589  Biso   1.000  H
  H366     1.0000 0.23445  0.38326  0.51816  Biso   1.000  H
  H367     1.0000 0.49455  0.19389  0.41423  Biso   1.000  H
  H368     1.0000 0.07740  0.47502  0.74752  Biso   1.000  H
  H369     1.0000 0.77707  0.88266  0.04646  Biso   1.000  H
  H370     1.0000 0.00195  0.20043  0.10589  Biso   1.000  H
  H371     1.0000 0.58391  0.49298  0.77903  Biso   1.000  H
  H372     1.0000 0.28044  0.88688  0.49101  Biso   1.000  H
  H373     1.0000 0.03392  0.24832  0.60397  Biso   1.000  H
  H374     1.0000 0.59396  0.95739  0.28438  Biso   1.000  H
  H375     1.0000 0.27236  0.56222  0.01997  Biso   1.000  H
  H376     1.0000 0.51976  0.25470  0.92564  Biso   1.000  H
  H377     1.0000 0.09616  0.96325  0.24514  Biso   1.000  H
  H378     1.0000 0.77567  0.56191  0.49332  Biso   1.000  H
  H379     1.0000 0.51999  0.74681  0.60425  Biso   1.000  H
  H380     1.0000 0.93027  0.47310  0.27838  Biso   1.000  H
  H381     1.0000 0.23123  0.05973  0.01885  Biso   1.000  H
  H382     1.0000 0.00545  0.74323  0.92873  Biso   1.000  H
  H383     1.0000 0.43381  0.45536  0.24431  Biso   1.000  H
  H384     1.0000 0.72552  0.06365  0.53360  Biso   1.000  H
  H385     1.0000 0.24946  0.45876  0.35230  Biso   1.000  H
  H386     1.0000 0.26880  0.14817  0.47623  Biso   1.000  H
  H387     1.0000 0.47481  0.29072  0.23753  Biso   1.000  H
  H388     1.0000 0.69520  0.43333  0.22751  Biso   1.000  H
  H389     1.0000 0.82819  0.19403  0.04114  Biso   1.000  H
  H390     1.0000 0.95473  0.25517  0.33691  Biso   1.000  H
  H391     1.0000 0.27790  0.91207  0.34185  Biso   1.000  H
  H392     1.0000 0.17532  0.69663  0.47243  Biso   1.000  H
  H393     1.0000 0.04620  0.74855  0.19029  Biso   1.000  H
  H394     1.0000 0.77495  0.94478  0.19017  Biso   1.000  H
  H395     1.0000 0.73277  0.63990  0.04780  Biso   1.000  H
  H396     1.0000 0.45676  0.78041  0.29232  Biso   1.000  H
  H397     1.0000 0.77215  0.51328  0.67975  Biso   1.000  H
  H398     1.0000 0.73153  0.80186  0.53960  Biso   1.000  H
  H399     1.0000 0.53742  0.64806  0.79111  Biso   1.000  H
  H400     1.0000 0.31982  0.49282  0.79199  Biso   1.000  H
  H401     1.0000 0.22730  0.79533  0.98716  Biso   1.000  H
  H402     1.0000 0.03421  0.64109  0.74269  Biso   1.000  H
  H403     1.0000 0.71879  0.93778  0.69948  Biso   1.000  H
  H404     1.0000 0.77947  0.30598  0.53385  Biso   1.000  H
  H405     1.0000 0.97830  0.19417  0.83991  Biso   1.000  H
  H406     1.0000 0.23410  0.01405  0.83556  Biso   1.000  H
  H407     1.0000 0.26711  0.30049  0.98654  Biso   1.000  H
  H408     1.0000 0.46332  0.15450  0.73110  Biso   1.000  H
  H409     1.0000 0.28711  0.44284  0.20378  Biso   1.000  H
  H410     1.0000 0.18010  0.26045  0.46594  Biso   1.000  H
  H411     1.0000 0.46338  0.18428  0.32888  Biso   1.000  H
  H412     1.0000 0.84854  0.44292  0.27805  Biso   1.000  H
  H413     1.0000 0.66807  0.24088  0.99999  Biso   1.000  H
  H414     1.0000 0.94700  0.15546  0.23837  Biso   1.000  H
  H415     1.0000 0.18396  0.97974  0.24472  Biso   1.000  H
  H416     1.0000 0.32877  0.74766  0.47644  Biso   1.000  H
  H417     1.0000 0.98357  0.65211  0.28858  Biso   1.000  H
  H418     1.0000 0.72613  0.94140  0.34784  Biso   1.000  H
  H419     1.0000 0.82751  0.75424  0.07083  Biso   1.000  H
  H420     1.0000 0.46808  0.62834  0.23640  Biso   1.000  H
  H421     1.0000 0.72076  0.50844  0.83440  Biso   1.000  H
  H422     1.0000 0.76983  0.64149  0.53639  Biso   1.000  H
  H423     1.0000 0.54941  0.80109  0.74196  Biso   1.000  H
  H424     1.0000 0.16892  0.50060  0.75370  Biso   1.000  H
  H425     1.0000 0.32331  0.69150  0.96695  Biso   1.000  H
  H426     1.0000 0.04499  0.74645  0.84461  Biso   1.000  H
  H427     1.0000 0.78963  0.99993  0.84837  Biso   1.000  H
  H428     1.0000 0.72887  0.15383  0.55229  Biso   1.000  H
  H429     1.0000 0.02305  0.30506  0.74431  Biso   1.000  H
  H430     1.0000 0.27688  0.94621  0.68463  Biso   1.000  H
  H431     1.0000 0.17441  0.19029  0.98248  Biso   1.000  H
  H432     1.0000 0.47376  0.25368  0.84235  Biso   1.000  H
  H433     1.0000 0.33522  0.00082  0.73695  Biso   1.000  H
  H434     1.0000 0.72933  0.30060  0.03686  Biso   1.000  H
  H435     1.0000 0.04230  0.69479  0.34745  Biso   1.000  H
  H436     1.0000 0.82957  0.93052  0.79832  Biso   1.000  H
  H437     1.0000 0.22179  0.29683  0.54400  Biso   1.000  H
  H438     1.0000 0.52212  0.69644  0.19253  Biso   1.000  H
  H439     1.0000 0.21526  0.44353  0.69198  Biso   1.000  H
  H440     1.0000 0.78078  0.80258  0.00302  Biso   1.000  H
  H441     1.0000 0.52407  0.13109  0.27862  Biso   1.000  H
  H442     1.0000 0.66620  0.45066  0.77461  Biso   1.000  H
  H443     1.0000 0.26917  0.80333  0.53123  Biso   1.000  H
  H444     1.0000 0.02745  0.18525  0.19708  Biso   1.000  H
  H445     1.0000 0.67537  0.99709  0.28709  Biso   1.000  H
  H446     1.0000 0.28831  0.64716  0.04291  Biso   1.000  H
  H447     1.0000 0.99361  0.23781  0.68354  Biso   1.000  H
  H448     1.0000 0.22592  0.92004  0.18335  Biso   1.000  H
  H449     1.0000 0.83116  0.70408  0.49216  Biso   1.000  H
  H450     1.0000 0.53315  0.30421  0.78516  Biso   1.000  H
  H451     1.0000 0.79904  0.51254  0.31741  Biso   1.000  H
  H452     1.0000 0.22453  0.15065  0.05115  Biso   1.000  H
  H453     1.0000 0.48385  0.75367  0.68943  Biso   1.000  H
  H454     1.0000 0.35641  0.49952  0.24261  Biso   1.000  H
  H455     1.0000 0.67722  0.19747  0.48509  Biso   1.000  H
  H456     1.0000 0.98114  0.79446  0.79132  Biso   1.000  H
  H457     1.0000 0.66975  0.74769  0.48531  Biso   1.000  H
  H458     1.0000 0.48518  0.70651  0.84306  Biso   1.000  H
  H459     1.0000 0.80230  0.42917  0.71626  Biso   1.000  H
  H460     1.0000 0.18098  0.73977  0.05015  Biso   1.000  H
  H461     1.0000 0.97693  0.69629  0.69171  Biso   1.000  H
  H462     1.0000 0.26594  0.44449  0.85388  Biso   1.000  H
  H463     1.0000 0.83329  0.24574  0.48818  Biso   1.000  H
  H464     1.0000 0.03587  0.14173  0.78371  Biso   1.000  H
  H465     1.0000 0.68495  0.01119  0.74438  Biso   1.000  H
  H466     1.0000 0.33264  0.24128  0.02297  Biso   1.000  H
  H467     1.0000 0.53163  0.20013  0.68540  Biso   1.000  H
  H468     1.0000 0.17523  0.95656  0.78186  Biso   1.000  H
  H469     1.0000 0.32784  0.20324  0.52830  Biso   1.000  H
  H470     1.0000 0.52688  0.23408  0.17845  Biso   1.000  H
  H471     1.0000 0.20093  0.51753  0.29408  Biso   1.000  H
  H472     1.0000 0.77534  0.15135  0.97409  Biso   1.000  H
  H473     1.0000 0.03355  0.29369  0.29316  Biso   1.000  H
  H474     1.0000 0.74670  0.49814  0.17543  Biso   1.000  H
  H475     1.0000 0.22230  0.65657  0.54733  Biso   1.000  H
  H476     1.0000 0.99919  0.80525  0.24807  Biso   1.000  H
  H477     1.0000 0.32954  0.97036  0.28507  Biso   1.000  H
  H478     1.0000 0.67353  0.70157  0.00740  Biso   1.000  H
  H479     1.0000 0.52051  0.73242  0.34358  Biso   1.000  H
  H480     1.0000 0.83456  0.98479  0.25414  Biso   1.000  H
  N1       1.0000 0.67841  0.15281  0.52278  Biso   1.000  N
  N2       1.0000 0.49715  0.63777  0.18881  Biso   1.000  N
  N3       1.0000 0.16727  0.47676  0.69981  Biso   1.000  N
  N4       1.0000 0.17823  0.14691  0.01797  Biso   1.000  N
  N5       1.0000 0.00904  0.65378  0.34227  Biso   1.000  N
  N6       1.0000 0.67054  0.47798  0.82911  Biso   1.000  N
  N7       1.0000 0.82506  0.64864  0.51651  Biso   1.000  N
  N8       1.0000 0.98537  0.15018  0.19147  Biso   1.000  N
  N9       1.0000 0.32902  0.97352  0.68759  Biso   1.000  N
  N10      1.0000 0.32981  0.64566  0.00169  Biso   1.000  N
  N11      1.0000 0.49442  0.13353  0.33119  Biso   1.000  N
  N12      1.0000 0.83023  0.96056  0.84682  Biso   1.000  N
  N13      1.0000 0.32478  0.79783  0.50589  Biso   1.000  N
  N14      1.0000 0.50432  0.30256  0.83839  Biso   1.000  N
  N15      1.0000 0.84298  0.47868  0.32520  Biso   1.000  N
  N16      1.0000 0.82854  0.80000  0.03637  Biso   1.000  N
  N17      1.0000 0.00392  0.29441  0.68952  Biso   1.000  N
  N18      1.0000 0.34182  0.46324  0.19955  Biso   1.000  N
  N19      1.0000 0.17768  0.30004  0.50831  Biso   1.000  N
  N20      1.0000 0.01130  0.79406  0.84074  Biso   1.000  N
  N21      1.0000 0.67776  0.96990  0.34111  Biso   1.000  N
  N22      1.0000 0.67724  0.29670  0.01960  Biso   1.000  N
  N23      1.0000 0.51519  0.79969  0.69267  Biso   1.000  N
  N24      1.0000 0.18085  0.95892  0.19110  Biso   1.000  N
  N25      1.0000 0.81394  0.47184  0.67877  Biso   1.000  N
  N26      1.0000 0.67818  0.79862  0.51317  Biso   1.000  N
  N27      1.0000 0.50769  0.65295  0.83922  Biso   1.000  N
  N28      1.0000 0.31834  0.46809  0.84606  Biso   1.000  N
  N29      1.0000 0.18423  0.79358  0.02380  Biso   1.000  N
  N30      1.0000 0.00668  0.64636  0.69172  Biso   1.000  N
  N31      1.0000 0.68356  0.97884  0.69660  Biso   1.000  N
  N32      1.0000 0.82998  0.29835  0.51070  Biso   1.000  N
  N33      1.0000 0.00271  0.14716  0.83850  Biso   1.000  N
  N34      1.0000 0.18413  0.98526  0.83584  Biso   1.000  N
  N35      1.0000 0.32540  0.29324  0.00433  Biso   1.000  N
  N36      1.0000 0.49956  0.15601  0.68546  Biso   1.000  N
  N37      1.0000 0.19965  0.48490  0.34509  Biso   1.000  N
  N38      1.0000 0.32278  0.15260  0.50229  Biso   1.000  N
  N39      1.0000 0.49900  0.28681  0.18528  Biso   1.000  N
  N40      1.0000 0.69574  0.46531  0.17883  Biso   1.000  N
  N41      1.0000 0.82576  0.15086  0.00773  Biso   1.000  N
  N42      1.0000 0.99719  0.29982  0.33586  Biso   1.000  N
  N43      1.0000 0.32785  0.94353  0.33571  Biso   1.000  N
  N44      1.0000 0.17788  0.65030  0.51027  Biso   1.000  N
  N45      1.0000 0.01832  0.79934  0.19694  Biso   1.000  N
  N46      1.0000 0.82645  0.96688  0.19711  Biso   1.000  N
  N47      1.0000 0.68035  0.64732  0.02541  Biso   1.000  N
  N48      1.0000 0.48611  0.77979  0.34147  Biso   1.000  N
  O1       1.0000 0.34629  0.51179  0.02092  Biso   1.000  O
  O2       1.0000 0.00956  0.31882  0.55277  Biso   1.000  O
  O3       1.0000 0.54496  0.95714  0.35555  Biso   1.000  O
  O4       1.0000 0.84465  0.51492  0.51245  Biso   1.000  O
  O5       1.0000 0.51306  0.32430  0.97575  Biso   1.000  O
  O6       1.0000 0.04547  0.98075  0.17363  Biso   1.000  O
  O7       1.0000 0.16025  0.01073  0.00954  Biso   1.000  O
  O8       1.0000 0.49983  0.81566  0.55561  Biso   1.000  O
  O9       1.0000 0.97627  0.47632  0.35557  Biso   1.000  O
  O10      1.0000 0.65622  0.01413  0.52252  Biso   1.000  O
  O11      1.0000 0.00519  0.81585  0.97504  Biso   1.000  O
  O12      1.0000 0.47643  0.45546  0.17079  Biso   1.000  O
  O13      1.0000 0.65982  0.43200  0.00932  Biso   1.000  O
  O14      1.0000 0.00088  0.63306  0.47600  Biso   1.000  O
  O15      1.0000 0.46397  0.97039  0.66641  Biso   1.000  O
  O16      1.0000 0.16394  0.43192  0.51912  Biso   1.000  O
  O17      1.0000 0.49474  0.62131  0.05228  Biso   1.000  O
  O18      1.0000 0.96522  0.96639  0.86422  Biso   1.000  O
  O19      1.0000 0.84721  0.93414  0.03114  Biso   1.000  O
  O20      1.0000 0.50181  0.12649  0.46831  Biso   1.000  O
  O21      1.0000 0.03278  0.47155  0.67669  Biso   1.000  O
  O22      1.0000 0.35217  0.93296  0.51333  Biso   1.000  O
  O23      1.0000 0.99361  0.13201  0.05813  Biso   1.000  O
  O24      1.0000 0.53911  0.48168  0.85609  Biso   1.000  O
  O25      1.0000 0.96215  0.96986  0.17738  Biso   1.000  O
  O26      1.0000 0.16415  0.92615  0.01850  Biso   1.000  O
  O27      1.0000 0.00024  0.12908  0.97637  Biso   1.000  O
  O28      1.0000 0.46209  0.95219  0.35516  Biso   1.000  O
  O29      1.0000 0.65683  0.93277  0.52254  Biso   1.000  O
  O30      1.0000 0.49994  0.13670  0.55112  Biso   1.000  O
  O31      1.0000 0.56053  0.46616  0.17044  Biso   1.000  O
  O32      1.0000 0.34852  0.42785  0.02102  Biso   1.000  O
  O33      1.0000 0.51690  0.62982  0.97212  Biso   1.000  O
  O34      1.0000 0.06321  0.47256  0.35846  Biso   1.000  O
  O35      1.0000 0.84835  0.43260  0.50077  Biso   1.000  O
  O36      1.0000 0.00599  0.62901  0.55893  Biso   1.000  O
  O37      1.0000 0.04982  0.97537  0.85596  Biso   1.000  O
  O38      1.0000 0.84637  0.01722  0.01848  Biso   1.000  O
  O39      1.0000 0.01276  0.81684  0.05954  Biso   1.000  O
  O40      1.0000 0.54846  0.98404  0.67620  Biso   1.000  O
  O41      1.0000 0.34394  0.01610  0.50632  Biso   1.000  O
  O42      1.0000 0.50509  0.80515  0.47190  Biso   1.000  O
  O43      1.0000 0.45438  0.47219  0.86354  Biso   1.000  O
  O44      1.0000 0.66021  0.51413  0.00241  Biso   1.000  O
  O45      1.0000 0.48900  0.31215  0.05487  Biso   1.000  O
  O46      1.0000 0.94685  0.47247  0.67028  Biso   1.000  O
  O47      1.0000 0.16388  0.51576  0.51755  Biso   1.000  O
  O48      1.0000 0.99721  0.32821  0.47199  Biso   1.000  O
  O49      1.0000 0.01068  0.93325  0.17329  Biso   1.000  O
  O50      1.0000 0.16493  0.96527  0.97216  Biso   1.000  O
  O51      1.0000 0.96071  0.12917  0.01538  Biso   1.000  O
  O52      1.0000 0.50253  0.91463  0.35572  Biso   1.000  O
  O53      1.0000 0.65870  0.97423  0.56051  Biso   1.000  O
  O54      1.0000 0.45912  0.13224  0.50775  Biso   1.000  O
  O55      1.0000 0.52030  0.42060  0.17225  Biso   1.000  O
  O56      1.0000 0.34402  0.47035  0.98243  Biso   1.000  O
  O57      1.0000 0.54454  0.62695  0.01818  Biso   1.000  O
  O58      1.0000 0.01751  0.43423  0.35078  Biso   1.000  O
  O59      1.0000 0.83785  0.46572  0.54654  Biso   1.000  O
  O60      1.0000 0.04432  0.62941  0.51043  Biso   1.000  O
  O61      1.0000 0.00320  0.01402  0.85706  Biso   1.000  O
  O62      1.0000 0.84574  0.98278  0.06468  Biso   1.000  O
  O63      1.0000 0.04845  0.81286  0.01546  Biso   1.000  O
  O64      1.0000 0.50396  0.01927  0.66791  Biso   1.000  O
  O65      1.0000 0.35022  0.97214  0.46859  Biso   1.000  O
  O66      1.0000 0.54215  0.81212  0.51798  Biso   1.000  O
  O67      1.0000 0.49621  0.51930  0.86157  Biso   1.000  O
  O68      1.0000 0.66319  0.47835  0.04898  Biso   1.000  O
  O69      1.0000 0.46046  0.31658  0.00100  Biso   1.000  O
  O70      1.0000 0.99336  0.51167  0.67079  Biso   1.000  O
  O71      1.0000 0.16906  0.47410  0.47682  Biso   1.000  O
  O72      1.0000 0.96308  0.31906  0.52336  Biso   1.000  O
  O73      1.0000 0.98626  0.43056  0.67629  Biso   1.000  O
  O74      1.0000 0.65703  0.97148  0.47644  Biso   1.000  O
  O75      1.0000 0.46356  0.62363  0.00056  Biso   1.000  O
  O76      1.0000 0.50174  0.43608  0.85450  Biso   1.000  O
  O77      1.0000 0.16095  0.97815  0.05609  Biso   1.000  O
  O78      1.0000 0.96231  0.63056  0.52009  Biso   1.000  O
  O79      1.0000 0.51280  0.93713  0.67182  Biso   1.000  O
  O80      1.0000 0.84759  0.48099  0.46351  Biso   1.000  O
  O81      1.0000 0.04095  0.13283  0.01972  Biso   1.000  O
  O82      1.0000 0.01054  0.93117  0.85979  Biso   1.000  O
  O83      1.0000 0.35104  0.46627  0.06468  Biso   1.000  O
  O84      1.0000 0.54523  0.13505  0.51369  Biso   1.000  O
  O85      1.0000 0.01775  0.51587  0.36241  Biso   1.000  O
  O86      1.0000 0.34928  0.97876  0.55270  Biso   1.000  O
  O87      1.0000 0.54080  0.31587  0.03050  Biso   1.000  O
  O88      1.0000 0.51199  0.50282  0.16899  Biso   1.000  O
  O89      1.0000 0.85092  0.96664  0.98482  Biso   1.000  O
  O90      1.0000 0.04327  0.32315  0.50513  Biso   1.000  O
  O91      1.0000 0.50408  0.00046  0.35955  Biso   1.000  O
  O92      1.0000 0.15799  0.47369  0.55944  Biso   1.000  O
  O93      1.0000 0.96448  0.82086  0.02436  Biso   1.000  O
  O94      1.0000 0.99816  0.01574  0.17432  Biso   1.000  O
  O95      1.0000 0.65392  0.47125  0.96436  Biso   1.000  O
  O96      1.0000 0.46076  0.81118  0.50896  Biso   1.000  O
  O97      1.0000 0.46038  0.17988  0.50435  Biso   1.000  O
  O98      1.0000 0.51960  0.42140  0.21967  Biso   1.000  O
  O99      1.0000 0.21721  0.46842  0.48034  Biso   1.000  O
  O100     1.0000 0.96176  0.17828  0.01473  Biso   1.000  O
  O101     1.0000 0.01853  0.43475  0.30074  Biso   1.000  O
  O102     1.0000 0.71021  0.47536  0.04094  Biso   1.000  O
  O103     1.0000 0.04683  0.67858  0.51402  Biso   1.000  O
  O104     1.0000 0.01258  0.93351  0.22244  Biso   1.000  O
  O105     1.0000 0.30161  0.96718  0.46983  Biso   1.000  O
  O106     1.0000 0.54152  0.67501  0.02799  Biso   1.000  O
  O107     1.0000 0.50586  0.91477  0.30741  Biso   1.000  O
  O108     1.0000 0.79560  0.98265  0.06490  Biso   1.000  O
  O109     1.0000 0.54337  0.76275  0.52271  Biso   1.000  O
  O110     1.0000 0.48929  0.51959  0.81317  Biso   1.000  O
  O111     1.0000 0.78963  0.46895  0.54227  Biso   1.000  O
  O112     1.0000 0.04598  0.76540  0.01648  Biso   1.000  O
  O113     1.0000 0.98772  0.51271  0.71920  Biso   1.000  O
  O114     1.0000 0.29452  0.46855  0.98089  Biso   1.000  O
  O115     1.0000 0.96428  0.26931  0.52198  Biso   1.000  O
  O116     1.0000 0.00641  0.01312  0.80913  Biso   1.000  O
  O117     1.0000 0.70760  0.97289  0.56058  Biso   1.000  O
  O118     1.0000 0.46212  0.26792  0.99466  Biso   1.000  O
  O119     1.0000 0.49945  0.02116  0.71615  Biso   1.000  O
  O120     1.0000 0.21444  0.97147  0.97034  Biso   1.000  O
  O121     1.0000 0.03099  0.47479  0.72416  Biso   1.000  O
  O122     1.0000 0.70462  0.01830  0.52101  Biso   1.000  O
  O123     1.0000 0.48927  0.66917  0.05668  Biso   1.000  O
  O124     1.0000 0.53455  0.48278  0.80671  Biso   1.000  O
  O125     1.0000 0.20785  0.01315  0.01156  Biso   1.000  O
  O126     1.0000 0.99741  0.68207  0.47507  Biso   1.000  O
  O127     1.0000 0.46533  0.97010  0.71542  Biso   1.000  O
  O128     1.0000 0.79775  0.51260  0.50211  Biso   1.000  O
  O129     1.0000 0.00357  0.18024  0.05929  Biso   1.000  O
  O130     1.0000 0.96302  0.96251  0.81584  Biso   1.000  O
  O131     1.0000 0.29789  0.51037  0.02265  Biso   1.000  O
  O132     1.0000 0.50292  0.17507  0.46339  Biso   1.000  O
  O133     1.0000 0.97827  0.47690  0.30681  Biso   1.000  O
  O134     1.0000 0.30336  0.92974  0.50981  Biso   1.000  O
  O135     1.0000 0.51626  0.27547  0.97451  Biso   1.000  O
  O136     1.0000 0.47810  0.46034  0.21824  Biso   1.000  O
  O137     1.0000 0.79702  0.93206  0.03105  Biso   1.000  O
  O138     1.0000 0.01564  0.27033  0.55485  Biso   1.000  O
  O139     1.0000 0.54278  0.95990  0.30623  Biso   1.000  O
  O140     1.0000 0.21336  0.43152  0.52583  Biso   1.000  O
  O141     1.0000 0.00140  0.76666  0.97683  Biso   1.000  O
  O142     1.0000 0.04749  0.98372  0.22239  Biso   1.000  O
  O143     1.0000 0.70739  0.43355  0.00258  Biso   1.000  O
  O144     1.0000 0.49839  0.76749  0.55997  Biso   1.000  O
  O145     1.0000 0.56327  0.46252  0.21958  Biso   1.000  O
  O146     1.0000 0.21157  0.51573  0.52550  Biso   1.000  O
  O147     1.0000 0.50297  0.18543  0.54901  Biso   1.000  O
  O148     1.0000 0.06446  0.47596  0.30942  Biso   1.000  O
  O149     1.0000 0.70862  0.51645  0.99937  Biso   1.000  O
  O150     1.0000 0.99963  0.17754  0.97472  Biso   1.000  O
  O151     1.0000 0.96156  0.96516  0.22572  Biso   1.000  O
  O152     1.0000 0.29508  0.01429  0.50765  Biso   1.000  O
  O153     1.0000 0.01103  0.67727  0.55855  Biso   1.000  O
  O154     1.0000 0.45996  0.95373  0.30626  Biso   1.000  O
  O155     1.0000 0.79775  0.01275  0.01591  Biso   1.000  O
  O156     1.0000 0.51019  0.67814  0.97489  Biso   1.000  O
  O157     1.0000 0.45032  0.47478  0.81382  Biso   1.000  O
  O158     1.0000 0.80073  0.42921  0.49552  Biso   1.000  O
  O159     1.0000 0.50285  0.75695  0.47772  Biso   1.000  O
  O160     1.0000 0.94280  0.47354  0.71852  Biso   1.000  O
  O161     1.0000 0.30047  0.42594  0.02242  Biso   1.000  O
  O162     1.0000 0.00360  0.76764  0.06362  Biso   1.000  O
  O163     1.0000 0.04602  0.97247  0.80899  Biso   1.000  O
  O164     1.0000 0.70603  0.93505  0.52084  Biso   1.000  O
  O165     1.0000 0.99590  0.27974  0.47069  Biso   1.000  O
  O166     1.0000 0.54750  0.98619  0.72469  Biso   1.000  O
  O167     1.0000 0.21148  0.93140  0.01268  Biso   1.000  O
  O168     1.0000 0.48675  0.26394  0.05115  Biso   1.000  O
  O169     1.0000 0.99787  0.01816  0.22279  Biso   1.000  O
  O170     1.0000 0.20945  0.97481  0.05744  Biso   1.000  O
  O171     1.0000 0.04455  0.18071  0.01436  Biso   1.000  O
  O172     1.0000 0.49626  0.99842  0.31062  Biso   1.000  O
  O173     1.0000 0.70427  0.97813  0.47714  Biso   1.000  O
  O174     1.0000 0.54536  0.18334  0.50530  Biso   1.000  O
  O175     1.0000 0.52040  0.50236  0.21676  Biso   1.000  O
  O176     1.0000 0.30532  0.47042  0.06589  Biso   1.000  O
  O177     1.0000 0.46200  0.67245  0.00059  Biso   1.000  O
  O178     1.0000 0.02346  0.51773  0.31357  Biso   1.000  O
  O179     1.0000 0.80004  0.47722  0.45757  Biso   1.000  O
  O180     1.0000 0.96327  0.67877  0.52437  Biso   1.000  O
  O181     1.0000 0.00645  0.92945  0.81074  Biso   1.000  O
  O182     1.0000 0.80231  0.96367  0.98262  Biso   1.000  O
  O183     1.0000 0.96244  0.77254  0.02390  Biso   1.000  O
  O184     1.0000 0.51357  0.93741  0.72002  Biso   1.000  O
  O185     1.0000 0.30289  0.97273  0.55170  Biso   1.000  O
  O186     1.0000 0.45976  0.76191  0.51467  Biso   1.000  O
  O187     1.0000 0.49797  0.43662  0.80604  Biso   1.000  O
  O188     1.0000 0.70314  0.47095  0.96009  Biso   1.000  O
  O189     1.0000 0.54141  0.26653  0.02878  Biso   1.000  O
  O190     1.0000 0.98369  0.42736  0.72422  Biso   1.000  O
  O191     1.0000 0.20639  0.46999  0.56668  Biso   1.000  O
  O192     1.0000 0.04349  0.27379  0.50035  Biso   1.000  O
