data_image0
_cell_length_a       47.6205
_cell_length_b       46.8345
_cell_length_c       46.5913
_cell_angle_alpha    90
_cell_angle_beta     90
_cell_angle_gamma    90

_symmetry_space_group_name_H-M    "P 1"
_symmetry_int_tables_number       1

loop_
  _symmetry_equiv_pos_as_xyz
  'x, y, z'

loop_
  _atom_site_label
  _atom_site_occupancy
  _atom_site_fract_x
  _atom_site_fract_y
  _atom_site_fract_z
  _atom_site_thermal_displace_type
  _atom_site_B_iso_or_equiv
  _atom_site_type_symbol
  C1       1.0000 0.53973  0.98779  0.33281  Biso   1.000  C
  C2       1.0000 0.30059  0.54533  0.02033  Biso   1.000  C
  C3       1.0000 0.00080  0.31152  0.55416  Biso   1.000  C
  C4       1.0000 0.03558  0.00599  0.19258  Biso   1.000  C
  C5       1.0000 0.79718  0.54097  0.50132  Biso   1.000  C
  C6       1.0000 0.49683  0.32483  0.94748  Biso   1.000  C
  C7       1.0000 0.94540  0.49558  0.32651  Biso   1.000  C
  C8       1.0000 0.17550  0.03948  0.01291  Biso   1.000  C
  C9       1.0000 0.47163  0.82305  0.57910  Biso   1.000  C
  C10      1.0000 0.43934  0.48272  0.19364  Biso   1.000  C
  C11      1.0000 0.67705  0.03649  0.50584  Biso   1.000  C
  C12      1.0000 0.96898  0.81714  0.96558  Biso   1.000  C
  C13      1.0000 0.44037  0.00976  0.69094  Biso   1.000  C
  C14      1.0000 0.67014  0.45143  0.01809  Biso   1.000  C
  C15      1.0000 0.97579  0.68072  0.46864  Biso   1.000  C
  C16      1.0000 0.94061  0.98724  0.82596  Biso   1.000  C
  C17      1.0000 0.17105  0.45726  0.52416  Biso   1.000  C
  C18      1.0000 0.48102  0.67313  0.08050  Biso   1.000  C
  C19      1.0000 0.02628  0.48705  0.70020  Biso   1.000  C
  C20      1.0000 0.80225  0.95325  0.00481  Biso   1.000  C
  C21      1.0000 0.49747  0.17372  0.44852  Biso   1.000  C
  C22      1.0000 0.53682  0.51660  0.83692  Biso   1.000  C
  C23      1.0000 0.30544  0.96168  0.50779  Biso   1.000  C
  C24      1.0000 0.99599  0.17599  0.05504  Biso   1.000  C
  C25      1.0000 0.31630  0.06877  0.51452  Biso   1.000  C
  C26      1.0000 0.49027  0.31187  0.05494  Biso   1.000  C
  C27      1.0000 0.05153  0.51771  0.33381  Biso   1.000  C
  C28      1.0000 0.80782  0.06245  0.00473  Biso   1.000  C
  C29      1.0000 0.99529  0.32429  0.44699  Biso   1.000  C
  C30      1.0000 0.54857  0.48236  0.19506  Biso   1.000  C
  C31      1.0000 0.16593  0.56574  0.51782  Biso   1.000  C
  C32      1.0000 0.97640  0.81745  0.07455  Biso   1.000  C
  C33      1.0000 0.43074  0.98844  0.33062  Biso   1.000  C
  C34      1.0000 0.66295  0.56103  0.01168  Biso   1.000  C
  C35      1.0000 0.46919  0.81736  0.47088  Biso   1.000  C
  C36      1.0000 0.92718  0.00892  0.18595  Biso   1.000  C
  C37      1.0000 0.66302  0.92807  0.50626  Biso   1.000  C
  C38      1.0000 0.47176  0.68391  0.97267  Biso   1.000  C
  C39      1.0000 0.91842  0.48281  0.68966  Biso   1.000  C
  C40      1.0000 0.16336  0.93057  0.01627  Biso   1.000  C
  C41      1.0000 0.96876  0.67225  0.57842  Biso   1.000  C
  C42      1.0000 0.42606  0.51361  0.83414  Biso   1.000  C
  C43      1.0000 0.80921  0.43181  0.49705  Biso   1.000  C
  C44      1.0000 0.99697  0.16871  0.94599  Biso   1.000  C
  C45      1.0000 0.54973  0.01872  0.69552  Biso   1.000  C
  C46      1.0000 0.30710  0.43713  0.00722  Biso   1.000  C
  C47      1.0000 0.50548  0.18386  0.55667  Biso   1.000  C
  C48      1.0000 0.04809  0.98474  0.83082  Biso   1.000  C
  C49      1.0000 0.99318  0.03886  0.82622  Biso   1.000  C
  C50      1.0000 0.80919  0.00449  0.05760  Biso   1.000  C
  C51      1.0000 0.02748  0.80737  0.01388  Biso   1.000  C
  C52      1.0000 0.49035  0.06980  0.69295  Biso   1.000  C
  C53      1.0000 0.30895  0.01861  0.45635  Biso   1.000  C
  C54      1.0000 0.52465  0.81666  0.52244  Biso   1.000  C
  C55      1.0000 0.47990  0.57061  0.83496  Biso   1.000  C
  C56      1.0000 0.66975  0.50652  0.06872  Biso   1.000  C
  C57      1.0000 0.44089  0.31958  0.99927  Biso   1.000  C
  C58      1.0000 0.96925  0.53873  0.69719  Biso   1.000  C
  C59      1.0000 0.17162  0.50870  0.46864  Biso   1.000  C
  C60      1.0000 0.94422  0.31332  0.51194  Biso   1.000  C
  C61      1.0000 0.97935  0.95282  0.19168  Biso   1.000  C
  C62      1.0000 0.16846  0.98399  0.95891  Biso   1.000  C
  C63      1.0000 0.94335  0.17991  0.00356  Biso   1.000  C
  C64      1.0000 0.48514  0.93322  0.33403  Biso   1.000  C
  C65      1.0000 0.66546  0.98063  0.56500  Biso   1.000  C
  C66      1.0000 0.44924  0.18230  0.50649  Biso   1.000  C
  C67      1.0000 0.49351  0.42733  0.19164  Biso   1.000  C
  C68      1.0000 0.29844  0.50409  0.95992  Biso   1.000  C
  C69      1.0000 0.53255  0.68058  0.02197  Biso   1.000  C
  C70      1.0000 0.00428  0.45544  0.32468  Biso   1.000  C
  C71      1.0000 0.80205  0.48236  0.55696  Biso   1.000  C
  C72      1.0000 0.02842  0.68128  0.52360  Biso   1.000  C
  C73      1.0000 0.98573  0.56269  0.33424  Biso   1.000  C
  C74      1.0000 0.31404  0.01036  0.56590  Biso   1.000  C
  C75      1.0000 0.54793  0.32079  0.00344  Biso   1.000  C
  C76      1.0000 0.49282  0.53688  0.19922  Biso   1.000  C
  C77      1.0000 0.81226  0.00612  0.95015  Biso   1.000  C
  C78      1.0000 0.05367  0.32258  0.49629  Biso   1.000  C
  C79      1.0000 0.48636  0.04035  0.32718  Biso   1.000  C
  C80      1.0000 0.15946  0.51131  0.57730  Biso   1.000  C
  C81      1.0000 0.92026  0.81809  0.02249  Biso   1.000  C
  C82      1.0000 0.98509  0.06178  0.18776  Biso   1.000  C
  C83      1.0000 0.66493  0.50145  0.96039  Biso   1.000  C
  C84      1.0000 0.41321  0.82105  0.52950  Biso   1.000  C
  C85      1.0000 0.97491  0.43149  0.68681  Biso   1.000  C
  C86      1.0000 0.66943  0.97930  0.45431  Biso   1.000  C
  C87      1.0000 0.42289  0.68020  0.03047  Biso   1.000  C
  C88      1.0000 0.47863  0.46170  0.83271  Biso   1.000  C
  C89      1.0000 0.16789  0.98860  0.06751  Biso   1.000  C
  C90      1.0000 0.91831  0.67474  0.52615  Biso   1.000  C
  C91      1.0000 0.49700  0.96051  0.69587  Biso   1.000  C
  C92      1.0000 0.80884  0.48596  0.44587  Biso   1.000  C
  C93      1.0000 0.05309  0.17125  0.00198  Biso   1.000  C
  C94      1.0000 0.99805  0.93030  0.83342  Biso   1.000  C
  C95      1.0000 0.31052  0.48487  0.06747  Biso   1.000  C
  C96      1.0000 0.55734  0.17113  0.50253  Biso   1.000  C
  C97      1.0000 0.67977  0.06782  0.50442  Biso   1.000  C
  C98      1.0000 0.48231  0.67164  0.11222  Biso   1.000  C
  C99      1.0000 0.05900  0.48814  0.70201  Biso   1.000  C
  C100     1.0000 0.17728  0.07121  0.01592  Biso   1.000  C
  C101     1.0000 0.97783  0.68259  0.43658  Biso   1.000  C
  C102     1.0000 0.56896  0.51836  0.83742  Biso   1.000  C
  C103     1.0000 0.79592  0.57330  0.50369  Biso   1.000  C
  C104     1.0000 0.99928  0.17894  0.08718  Biso   1.000  C
  C105     1.0000 0.40701  0.01049  0.69236  Biso   1.000  C
  C106     1.0000 0.30046  0.57630  0.02207  Biso   1.000  C
  C107     1.0000 0.49376  0.17254  0.41527  Biso   1.000  C
  C108     1.0000 0.90890  0.98831  0.82276  Biso   1.000  C
  C109     1.0000 0.30008  0.92855  0.50831  Biso   1.000  C
  C110     1.0000 0.50121  0.32918  0.91602  Biso   1.000  C
  C111     1.0000 0.91384  0.48945  0.32315  Biso   1.000  C
  C112     1.0000 0.79886  0.92164  0.00598  Biso   1.000  C
  C113     1.0000 0.99803  0.30921  0.58615  Biso   1.000  C
  C114     1.0000 0.40661  0.48134  0.19277  Biso   1.000  C
  C115     1.0000 0.17233  0.42492  0.52194  Biso   1.000  C
  C116     1.0000 0.96415  0.81606  0.93464  Biso   1.000  C
  C117     1.0000 0.57210  0.98501  0.33302  Biso   1.000  C
  C118     1.0000 0.67009  0.41994  0.01841  Biso   1.000  C
  C119     1.0000 0.47127  0.82551  0.61097  Biso   1.000  C
  C120     1.0000 0.06718  0.00077  0.19328  Biso   1.000  C
  C121     1.0000 0.80540  0.00170  0.08912  Biso   1.000  C
  C122     1.0000 0.06067  0.80698  0.01221  Biso   1.000  C
  C123     1.0000 0.99281  0.07129  0.82393  Biso   1.000  C
  C124     1.0000 0.30737  0.01066  0.42545  Biso   1.000  C
  C125     1.0000 0.55701  0.81161  0.52335  Biso   1.000  C
  C126     1.0000 0.48738  0.10169  0.69167  Biso   1.000  C
  C127     1.0000 0.67179  0.50746  0.10122  Biso   1.000  C
  C128     1.0000 0.40879  0.31867  0.99702  Biso   1.000  C
  C129     1.0000 0.48516  0.60237  0.83729  Biso   1.000  C
  C130     1.0000 0.17379  0.50815  0.43561  Biso   1.000  C
  C131     1.0000 0.91069  0.31043  0.51443  Biso   1.000  C
  C132     1.0000 0.96892  0.57084  0.70091  Biso   1.000  C
  C133     1.0000 0.16947  0.97959  0.92754  Biso   1.000  C
  C134     1.0000 0.91112  0.18317  0.00254  Biso   1.000  C
  C135     1.0000 0.97926  0.92154  0.19263  Biso   1.000  C
  C136     1.0000 0.66552  0.98189  0.59731  Biso   1.000  C
  C137     1.0000 0.41768  0.18274  0.50380  Biso   1.000  C
  C138     1.0000 0.48592  0.90136  0.33504  Biso   1.000  C
  C139     1.0000 0.29765  0.50347  0.92807  Biso   1.000  C
  C140     1.0000 0.56439  0.68275  0.02176  Biso   1.000  C
  C141     1.0000 0.48890  0.39543  0.19009  Biso   1.000  C
  C142     1.0000 0.79966  0.48160  0.58901  Biso   1.000  C
  C143     1.0000 0.06148  0.68472  0.52349  Biso   1.000  C
  C144     1.0000 0.00826  0.42399  0.32234  Biso   1.000  C
  C145     1.0000 0.31101  0.48404  0.09975  Biso   1.000  C
  C146     1.0000 0.08484  0.32547  0.49578  Biso   1.000  C
  C147     1.0000 0.48390  0.07397  0.32564  Biso   1.000  C
  C148     1.0000 0.81230  0.48232  0.41328  Biso   1.000  C
  C149     1.0000 0.58053  0.32187  0.00202  Biso   1.000  C
  C150     1.0000 0.99004  0.09421  0.18817  Biso   1.000  C
  C151     1.0000 0.16726  0.99068  0.09917  Biso   1.000  C
  C152     1.0000 0.38092  0.82361  0.52643  Biso   1.000  C
  C153     1.0000 0.98369  0.59513  0.33693  Biso   1.000  C
  C154     1.0000 0.66862  0.97595  0.42144  Biso   1.000  C
  C155     1.0000 0.88829  0.82199  0.02517  Biso   1.000  C
  C156     1.0000 0.49368  0.56945  0.20132  Biso   1.000  C
  C157     1.0000 0.66358  0.49984  0.92805  Biso   1.000  C
  C158     1.0000 0.88639  0.67188  0.52611  Biso   1.000  C
  C159     1.0000 0.48982  0.92910  0.69495  Biso   1.000  C
  C160     1.0000 0.15735  0.50970  0.60953  Biso   1.000  C
  C161     1.0000 0.39089  0.67811  0.03472  Biso   1.000  C
  C162     1.0000 0.99980  0.89909  0.83539  Biso   1.000  C
  C163     1.0000 0.81300  0.00209  0.91817  Biso   1.000  C
  C164     1.0000 0.58852  0.16947  0.50239  Biso   1.000  C
  C165     1.0000 0.97202  0.39968  0.68463  Biso   1.000  C
  C166     1.0000 0.31356  0.00981  0.59768  Biso   1.000  C
  C167     1.0000 0.08476  0.16773  0.00516  Biso   1.000  C
  C168     1.0000 0.47592  0.42918  0.83141  Biso   1.000  C
  C169     1.0000 0.97906  0.81823  0.10709  Biso   1.000  C
  C170     1.0000 0.07984  0.98673  0.83088  Biso   1.000  C
  C171     1.0000 0.81031  0.09479  0.00509  Biso   1.000  C
  C172     1.0000 0.47334  0.81357  0.43989  Biso   1.000  C
  C173     1.0000 0.58110  0.01733  0.69333  Biso   1.000  C
  C174     1.0000 0.31583  0.10141  0.51439  Biso   1.000  C
  C175     1.0000 0.49149  0.31029  0.08640  Biso   1.000  C
  C176     1.0000 0.39603  0.50672  0.83464  Biso   1.000  C
  C177     1.0000 0.66282  0.59300  0.00978  Biso   1.000  C
  C178     1.0000 0.00256  0.32505  0.41505  Biso   1.000  C
  C179     1.0000 0.88686  0.48372  0.68973  Biso   1.000  C
  C180     1.0000 0.16311  0.59867  0.51702  Biso   1.000  C
  C181     1.0000 0.99588  0.16865  0.91333  Biso   1.000  C
  C182     1.0000 0.89481  0.00873  0.18515  Biso   1.000  C
  C183     1.0000 0.16111  0.89960  0.01215  Biso   1.000  C
  C184     1.0000 0.50199  0.18652  0.58801  Biso   1.000  C
  C185     1.0000 0.39827  0.98935  0.32873  Biso   1.000  C
  C186     1.0000 0.65946  0.89646  0.50975  Biso   1.000  C
  C187     1.0000 0.47001  0.68705  0.94005  Biso   1.000  C
  C188     1.0000 0.57937  0.48387  0.19564  Biso   1.000  C
  C189     1.0000 0.30795  0.40528  0.00302  Biso   1.000  C
  C190     1.0000 0.96650  0.67084  0.61035  Biso   1.000  C
  C191     1.0000 0.08393  0.51790  0.33563  Biso   1.000  C
  C192     1.0000 0.81141  0.40004  0.49682  Biso   1.000  C
  C193     1.0000 0.84049  0.00093  0.90260  Biso   1.000  C
  C194     1.0000 0.87561  0.85084  0.02306  Biso   1.000  C
  C195     1.0000 0.99122  0.88546  0.86314  Biso   1.000  C
  C196     1.0000 0.34073  0.01170  0.61297  Biso   1.000  C
  C197     1.0000 0.36794  0.85198  0.52393  Biso   1.000  C
  C198     1.0000 0.48962  0.91128  0.66882  Biso   1.000  C
  C199     1.0000 0.63653  0.50379  0.91136  Biso   1.000  C
  C200     1.0000 0.59373  0.34857  0.01044  Biso   1.000  C
  C201     1.0000 0.48289  0.41150  0.85734  Biso   1.000  C
  C202     1.0000 0.13090  0.50840  0.62625  Biso   1.000  C
  C203     1.0000 0.09787  0.35393  0.50001  Biso   1.000  C
  C204     1.0000 0.97576  0.38606  0.65680  Biso   1.000  C
  C205     1.0000 0.13940  0.99278  0.11553  Biso   1.000  C
  C206     1.0000 0.09998  0.14007  0.00801  Biso   1.000  C
  C207     1.0000 0.99434  0.10878  0.15989  Biso   1.000  C
  C208     1.0000 0.64148  0.97543  0.40676  Biso   1.000  C
  C209     1.0000 0.60395  0.14187  0.50333  Biso   1.000  C
  C210     1.0000 0.48613  0.09033  0.35240  Biso   1.000  C
  C211     1.0000 0.33790  0.48255  0.11500  Biso   1.000  C
  C212     1.0000 0.37787  0.64842  0.03002  Biso   1.000  C
  C213     1.0000 0.49061  0.58735  0.17499  Biso   1.000  C
  C214     1.0000 0.84180  0.48041  0.39951  Biso   1.000  C
  C215     1.0000 0.87319  0.64487  0.51977  Biso   1.000  C
  C216     1.0000 0.98219  0.60840  0.36565  Biso   1.000  C
  C217     1.0000 0.09517  0.98808  0.85775  Biso   1.000  C
  C218     1.0000 0.83997  0.10813  0.00741  Biso   1.000  C
  C219     1.0000 0.97792  0.84567  0.12207  Biso   1.000  C
  C220     1.0000 0.59646  0.00983  0.66646  Biso   1.000  C
  C221     1.0000 0.34409  0.11468  0.51333  Biso   1.000  C
  C222     1.0000 0.47652  0.83857  0.42005  Biso   1.000  C
  C223     1.0000 0.37975  0.50548  0.86123  Biso   1.000  C
  C224     1.0000 0.63491  0.60832  0.01239  Biso   1.000  C
  C225     1.0000 0.49333  0.33530  0.10547  Biso   1.000  C
  C226     1.0000 0.87290  0.48130  0.66154  Biso   1.000  C
  C227     1.0000 0.13492  0.61261  0.51821  Biso   1.000  C
  C228     1.0000 0.00246  0.35344  0.40061  Biso   1.000  C
  C229     1.0000 0.87988  0.00931  0.15849  Biso   1.000  C
  C230     1.0000 0.13387  0.88506  0.00848  Biso   1.000  C
  C231     1.0000 0.99479  0.14124  0.89780  Biso   1.000  C
  C232     1.0000 0.38203  0.99404  0.35580  Biso   1.000  C
  C233     1.0000 0.63091  0.88440  0.51516  Biso   1.000  C
  C234     1.0000 0.50321  0.16129  0.60755  Biso   1.000  C
  C235     1.0000 0.59505  0.48789  0.16904  Biso   1.000  C
  C236     1.0000 0.33601  0.39188  0.99968  Biso   1.000  C
  C237     1.0000 0.47696  0.66218  0.92211  Biso   1.000  C
  C238     1.0000 0.09764  0.51847  0.36407  Biso   1.000  C
  C239     1.0000 0.83986  0.38814  0.50289  Biso   1.000  C
  C240     1.0000 0.96419  0.64223  0.62432  Biso   1.000  C
  C241     1.0000 0.58530  0.51283  0.86378  Biso   1.000  C
  C242     1.0000 0.82294  0.59042  0.50811  Biso   1.000  C
  C243     1.0000 0.47793  0.85328  0.62386  Biso   1.000  C
  C244     1.0000 0.07626  0.49583  0.67588  Biso   1.000  C
  C245     1.0000 0.32542  0.59438  0.02806  Biso   1.000  C
  C246     1.0000 0.97467  0.84063  0.91707  Biso   1.000  C
  C247     1.0000 0.89167  0.99392  0.85095  Biso   1.000  C
  C248     1.0000 0.65387  0.08673  0.50434  Biso   1.000  C
  C249     1.0000 0.99260  0.33596  0.60299  Biso   1.000  C
  C250     1.0000 0.39208  0.00892  0.66483  Biso   1.000  C
  C251     1.0000 0.15027  0.08864  0.01333  Biso   1.000  C
  C252     1.0000 0.49818  0.35702  0.90198  Biso   1.000  C
  C253     1.0000 0.39056  0.48055  0.16621  Biso   1.000  C
  C254     1.0000 0.14578  0.40869  0.51684  Biso   1.000  C
  C255     1.0000 0.49372  0.14408  0.40108  Biso   1.000  C
  C256     1.0000 0.89645  0.48388  0.34970  Biso   1.000  C
  C257     1.0000 0.64280  0.40422  0.01621  Biso   1.000  C
  C258     1.0000 0.99502  0.15609  0.10681  Biso   1.000  C
  C259     1.0000 0.08548  0.99935  0.16733  Biso   1.000  C
  C260     1.0000 0.32388  0.90928  0.51468  Biso   1.000  C
  C261     1.0000 0.97604  0.65566  0.41910  Biso   1.000  C
  C262     1.0000 0.58776  0.98235  0.36046  Biso   1.000  C
  C263     1.0000 0.82626  0.90338  0.00921  Biso   1.000  C
  C264     1.0000 0.48402  0.64446  0.12704  Biso   1.000  C
  C265     1.0000 0.99691  0.08866  0.84999  Biso   1.000  C
  C266     1.0000 0.83246  0.00215  0.10526  Biso   1.000  C
  C267     1.0000 0.07755  0.83429  0.01215  Biso   1.000  C
  C268     1.0000 0.49344  0.11481  0.66252  Biso   1.000  C
  C269     1.0000 0.33268  0.00261  0.40775  Biso   1.000  C
  C270     1.0000 0.57559  0.83746  0.51947  Biso   1.000  C
  C271     1.0000 0.48303  0.61589  0.86526  Biso   1.000  C
  C272     1.0000 0.64415  0.50413  0.11900  Biso   1.000  C
  C273     1.0000 0.39042  0.34421  0.99599  Biso   1.000  C
  C274     1.0000 0.96630  0.58917  0.67525  Biso   1.000  C
  C275     1.0000 0.14784  0.51331  0.41791  Biso   1.000  C
  C276     1.0000 0.89438  0.33823  0.51211  Biso   1.000  C
  C277     1.0000 0.98040  0.90339  0.16704  Biso   1.000  C
  C278     1.0000 0.14288  0.98166  0.90868  Biso   1.000  C
  C279     1.0000 0.89440  0.15629  0.00225  Biso   1.000  C
  C280     1.0000 0.48030  0.88681  0.36297  Biso   1.000  C
  C281     1.0000 0.64066  0.99062  0.61371  Biso   1.000  C
  C282     1.0000 0.40027  0.15729  0.51082  Biso   1.000  C
  C283     1.0000 0.49495  0.38125  0.16148  Biso   1.000  C
  C284     1.0000 0.32456  0.50172  0.91224  Biso   1.000  C
  C285     1.0000 0.58130  0.65777  0.01624  Biso   1.000  C
  C286     1.0000 0.00655  0.40760  0.34880  Biso   1.000  C
  C287     1.0000 0.82449  0.48211  0.60637  Biso   1.000  C
  C288     1.0000 0.08000  0.66010  0.52209  Biso   1.000  C
  C289     1.0000 0.31819  0.87822  0.51637  Biso   1.000  C
  C290     1.0000 0.49582  0.35787  0.87010  Biso   1.000  C
  C291     1.0000 0.86626  0.47939  0.34751  Biso   1.000  C
  C292     1.0000 0.82297  0.87363  0.01637  Biso   1.000  C
  C293     1.0000 0.98722  0.33480  0.63365  Biso   1.000  C
  C294     1.0000 0.35911  0.48022  0.16750  Biso   1.000  C
  C295     1.0000 0.14856  0.37652  0.51029  Biso   1.000  C
  C296     1.0000 0.97772  0.83651  0.88604  Biso   1.000  C
  C297     1.0000 0.61999  0.98055  0.35743  Biso   1.000  C
  C298     1.0000 0.64585  0.37256  0.01581  Biso   1.000  C
  C299     1.0000 0.47876  0.85608  0.65486  Biso   1.000  C
  C300     1.0000 0.11624  0.99641  0.16912  Biso   1.000  C
  C301     1.0000 0.65555  0.11769  0.50607  Biso   1.000  C
  C302     1.0000 0.48408  0.64266  0.15803  Biso   1.000  C
  C303     1.0000 0.10782  0.49790  0.67724  Biso   1.000  C
  C304     1.0000 0.15225  0.12040  0.01447  Biso   1.000  C
  C305     1.0000 0.97647  0.65957  0.38905  Biso   1.000  C
  C306     1.0000 0.61644  0.50904  0.85923  Biso   1.000  C
  C307     1.0000 0.81986  0.62228  0.51439  Biso   1.000  C
  C308     1.0000 0.00226  0.15961  0.13711  Biso   1.000  C
  C309     1.0000 0.36055  0.00725  0.66449  Biso   1.000  C
  C310     1.0000 0.32501  0.62579  0.02757  Biso   1.000  C
  C311     1.0000 0.49373  0.14327  0.36957  Biso   1.000  C
  C312     1.0000 0.86096  0.99588  0.84938  Biso   1.000  C
  C313     1.0000 0.15065  0.51132  0.38713  Biso   1.000  C
  C314     1.0000 0.36890  0.16444  0.51337  Biso   1.000  C
  C315     1.0000 0.48865  0.35030  0.16113  Biso   1.000  C
  C316     1.0000 0.64713  0.49839  0.14896  Biso   1.000  C
  C317     1.0000 0.86394  0.16031  0.00250  Biso   1.000  C
  C318     1.0000 0.00742  0.37682  0.34745  Biso   1.000  C
  C319     1.0000 0.32941  0.99494  0.37754  Biso   1.000  C
  C320     1.0000 0.11053  0.66391  0.52180  Biso   1.000  C
  C321     1.0000 0.97863  0.87158  0.17245  Biso   1.000  C
  C322     1.0000 0.82865  0.00148  0.13680  Biso   1.000  C
  C323     1.0000 0.61252  0.65911  0.01191  Biso   1.000  C
  C324     1.0000 0.47764  0.85477  0.36506  Biso   1.000  C
  C325     1.0000 0.82164  0.47943  0.63783  Biso   1.000  C
  C326     1.0000 0.60648  0.83357  0.52121  Biso   1.000  C
  C327     1.0000 0.48179  0.64794  0.86715  Biso   1.000  C
  C328     1.0000 0.32552  0.49937  0.88076  Biso   1.000  C
  C329     1.0000 0.10890  0.83277  0.00961  Biso   1.000  C
  C330     1.0000 0.96565  0.62004  0.67681  Biso   1.000  C
  C331     1.0000 0.64398  0.99354  0.64532  Biso   1.000  C
  C332     1.0000 0.86348  0.33501  0.50789  Biso   1.000  C
  C333     1.0000 0.99611  0.11958  0.84566  Biso   1.000  C
  C334     1.0000 0.14641  0.98537  0.87761  Biso   1.000  C
  C335     1.0000 0.35893  0.34003  0.99662  Biso   1.000  C
  C336     1.0000 0.49767  0.14628  0.66122  Biso   1.000  C
  C337     1.0000 0.63760  0.50544  0.88080  Biso   1.000  C
  C338     1.0000 0.84091  0.64346  0.51998  Biso   1.000  C
  C339     1.0000 0.48253  0.88027  0.67293  Biso   1.000  C
  C340     1.0000 0.13040  0.50357  0.65643  Biso   1.000  C
  C341     1.0000 0.34595  0.64758  0.03016  Biso   1.000  C
  C342     1.0000 0.98475  0.85496  0.86293  Biso   1.000  C
  C343     1.0000 0.84002  0.99932  0.87173  Biso   1.000  C
  C344     1.0000 0.63520  0.14070  0.50352  Biso   1.000  C
  C345     1.0000 0.98013  0.35527  0.65555  Biso   1.000  C
  C346     1.0000 0.33994  0.00938  0.64278  Biso   1.000  C
  C347     1.0000 0.13119  0.14232  0.01158  Biso   1.000  C
  C348     1.0000 0.48937  0.38177  0.85125  Biso   1.000  C
  C349     1.0000 0.33641  0.48117  0.14663  Biso   1.000  C
  C350     1.0000 0.12882  0.35358  0.50515  Biso   1.000  C
  C351     1.0000 0.48992  0.12116  0.34908  Biso   1.000  C
  C352     1.0000 0.84278  0.47768  0.36725  Biso   1.000  C
  C353     1.0000 0.62570  0.34957  0.01199  Biso   1.000  C
  C354     1.0000 0.99903  0.13896  0.16009  Biso   1.000  C
  C355     1.0000 0.13908  0.99353  0.14809  Biso   1.000  C
  C356     1.0000 0.33745  0.85418  0.52064  Biso   1.000  C
  C357     1.0000 0.97746  0.63978  0.36696  Biso   1.000  C
  C358     1.0000 0.64231  0.97982  0.37598  Biso   1.000  C
  C359     1.0000 0.84396  0.85188  0.02272  Biso   1.000  C
  C360     1.0000 0.48668  0.61881  0.17695  Biso   1.000  C
  C361     1.0000 0.99756  0.14230  0.86626  Biso   1.000  C
  C362     1.0000 0.84836  0.00670  0.15852  Biso   1.000  C
  C363     1.0000 0.13148  0.85381  0.00933  Biso   1.000  C
  C364     1.0000 0.50125  0.16623  0.63817  Biso   1.000  C
  C365     1.0000 0.35060  0.99274  0.35596  Biso   1.000  C
  C366     1.0000 0.62961  0.85372  0.51942  Biso   1.000  C
  C367     1.0000 0.47803  0.66608  0.89120  Biso   1.000  C
  C368     1.0000 0.62569  0.49153  0.17052  Biso   1.000  C
  C369     1.0000 0.33584  0.36030  0.99783  Biso   1.000  C
  C370     1.0000 0.96423  0.64204  0.65544  Biso   1.000  C
  C371     1.0000 0.12942  0.51403  0.36521  Biso   1.000  C
  C372     1.0000 0.84156  0.35569  0.50542  Biso   1.000  C
  C373     1.0000 0.97927  0.84718  0.15414  Biso   1.000  C
  C374     1.0000 0.12618  0.98652  0.85539  Biso   1.000  C
  C375     1.0000 0.84112  0.14001  0.00293  Biso   1.000  C
  C376     1.0000 0.47648  0.83589  0.38830  Biso   1.000  C
  C377     1.0000 0.62596  0.00281  0.66774  Biso   1.000  C
  C378     1.0000 0.34440  0.14584  0.51446  Biso   1.000  C
  C379     1.0000 0.48970  0.33056  0.13674  Biso   1.000  C
  C380     1.0000 0.34776  0.50143  0.86047  Biso   1.000  C
  C381     1.0000 0.63463  0.63951  0.00980  Biso   1.000  C
  C382     1.0000 0.00553  0.35422  0.36869  Biso   1.000  C
  C383     1.0000 0.84129  0.48215  0.66071  Biso   1.000  C
  C384     1.0000 0.13376  0.64447  0.52039  Biso   1.000  C
  C385     1.0000 0.17989  0.13501  0.01594  Biso   1.000  C
  C386     1.0000 0.01002  0.18653  0.15023  Biso   1.000  C
  C387     1.0000 0.13154  0.99705  0.19586  Biso   1.000  C
  C388     1.0000 0.68313  0.13148  0.50354  Biso   1.000  C
  C389     1.0000 0.49367  0.16925  0.35240  Biso   1.000  C
  C390     1.0000 0.63597  0.98150  0.32983  Biso   1.000  C
  C391     1.0000 0.29585  0.63972  0.02639  Biso   1.000  C
  C392     1.0000 0.48319  0.66836  0.17540  Biso   1.000  C
  C393     1.0000 0.34345  0.47835  0.19535  Biso   1.000  C
  C394     1.0000 0.79228  0.63586  0.51782  Biso   1.000  C
  C395     1.0000 0.97261  0.68781  0.37587  Biso   1.000  C
  C396     1.0000 0.85295  0.47952  0.32020  Biso   1.000  C
  C397     1.0000 0.79512  0.85970  0.01809  Biso   1.000  C
  C398     1.0000 0.97225  0.80855  0.87263  Biso   1.000  C
  C399     1.0000 0.84606  0.99501  0.82281  Biso   1.000  C
  C400     1.0000 0.28993  0.86667  0.51005  Biso   1.000  C
  C401     1.0000 0.47163  0.83216  0.67375  Biso   1.000  C
  C402     1.0000 0.34493  0.00807  0.69115  Biso   1.000  C
  C403     1.0000 0.67431  0.35741  0.01515  Biso   1.000  C
  C404     1.0000 0.49944  0.33319  0.85249  Biso   1.000  C
  C405     1.0000 0.63291  0.50861  0.83183  Biso   1.000  C
  C406     1.0000 0.17708  0.36269  0.50992  Biso   1.000  C
  C407     1.0000 0.98823  0.30739  0.64913  Biso   1.000  C
  C408     1.0000 0.12190  0.49451  0.70417  Biso   1.000  C
  C409     1.0000 0.14266  0.98469  0.82875  Biso   1.000  C
  C410     1.0000 0.81560  0.15765  0.99749  Biso   1.000  C
  C411     1.0000 0.98143  0.82170  0.17119  Biso   1.000  C
  C412     1.0000 0.64316  0.00427  0.69222  Biso   1.000  C
  C413     1.0000 0.31889  0.16433  0.51380  Biso   1.000  C
  C414     1.0000 0.47429  0.80756  0.37498  Biso   1.000  C
  C415     1.0000 0.33280  0.49809  0.83352  Biso   1.000  C
  C416     1.0000 0.66137  0.65529  0.00629  Biso   1.000  C
  C417     1.0000 0.48429  0.30242  0.14951  Biso   1.000  C
  C418     1.0000 0.82289  0.48485  0.68632  Biso   1.000  C
  C419     1.0000 0.15877  0.66298  0.52013  Biso   1.000  C
  C420     1.0000 0.00821  0.32864  0.35254  Biso   1.000  C
  C421     1.0000 0.83137  0.00618  0.18507  Biso   1.000  C
  C422     1.0000 0.15757  0.83650  0.01016  Biso   1.000  C
  C423     1.0000 0.99547  0.16838  0.85051  Biso   1.000  C
  C424     1.0000 0.33432  0.99058  0.32997  Biso   1.000  C
  C425     1.0000 0.65624  0.83477  0.52016  Biso   1.000  C
  C426     1.0000 0.50164  0.19465  0.65141  Biso   1.000  C
  C427     1.0000 0.64093  0.48863  0.19675  Biso   1.000  C
  C428     1.0000 0.30942  0.34423  0.99852  Biso   1.000  C
  C429     1.0000 0.47268  0.69489  0.87902  Biso   1.000  C
  C430     1.0000 0.14640  0.51029  0.33863  Biso   1.000  C
  C431     1.0000 0.81572  0.33883  0.50076  Biso   1.000  C
  C432     1.0000 0.96428  0.66856  0.67206  Biso   1.000  C
  C433     1.0000 0.99247  0.13351  0.81865  Biso   1.000  C
  C434     1.0000 0.79974  0.00134  0.15137  Biso   1.000  C
  C435     1.0000 0.12333  0.80529  0.01128  Biso   1.000  C
  C436     1.0000 0.49574  0.16488  0.68657  Biso   1.000  C
  C437     1.0000 0.30226  0.99272  0.36385  Biso   1.000  C
  C438     1.0000 0.61985  0.80574  0.52745  Biso   1.000  C
  C439     1.0000 0.47995  0.66617  0.84306  Biso   1.000  C
  C440     1.0000 0.67432  0.49941  0.16375  Biso   1.000  C
  C441     1.0000 0.34418  0.31269  0.99530  Biso   1.000  C
  C442     1.0000 0.96724  0.63431  0.70466  Biso   1.000  C
  C443     1.0000 0.17830  0.50523  0.37156  Biso   1.000  C
  C444     1.0000 0.84912  0.30743  0.50278  Biso   1.000  C
  C445     1.0000 0.97835  0.85793  0.20108  Biso   1.000  C
  C446     1.0000 0.17447  0.98427  0.86337  Biso   1.000  C
  C447     1.0000 0.85003  0.18784  0.99947  Biso   1.000  C
  C448     1.0000 0.47768  0.83713  0.34005  Biso   1.000  C
  C449     1.0000 0.67163  0.98849  0.65973  Biso   1.000  C
  C450     1.0000 0.35570  0.19300  0.51007  Biso   1.000  C
  C451     1.0000 0.48029  0.33397  0.18607  Biso   1.000  C
  C452     1.0000 0.29970  0.49746  0.86477  Biso   1.000  C
  C453     1.0000 0.62739  0.68593  0.00895  Biso   1.000  C
  C454     1.0000 0.00995  0.36144  0.32059  Biso   1.000  C
  C455     1.0000 0.79352  0.47982  0.65187  Biso   1.000  C
  C456     1.0000 0.12324  0.69275  0.52126  Biso   1.000  C
  C457     1.0000 0.97135  0.65556  0.34138  Biso   1.000  C
  C458     1.0000 0.31298  0.00591  0.65875  Biso   1.000  C
  C459     1.0000 0.64335  0.32449  0.00784  Biso   1.000  C
  C460     1.0000 0.48683  0.63337  0.20473  Biso   1.000  C
  C461     1.0000 0.81384  0.99940  0.85551  Biso   1.000  C
  C462     1.0000 0.14622  0.32778  0.50219  Biso   1.000  C
  C463     1.0000 0.49072  0.13442  0.32172  Biso   1.000  C
  C464     1.0000 0.15639  0.50329  0.67329  Biso   1.000  C
  C465     1.0000 0.82569  0.82645  0.02859  Biso   1.000  C
  C466     1.0000 0.00444  0.15605  0.18607  Biso   1.000  C
  C467     1.0000 0.66443  0.50403  0.86484  Biso   1.000  C
  C468     1.0000 0.31960  0.83038  0.51341  Biso   1.000  C
  C469     1.0000 0.97930  0.33833  0.68226  Biso   1.000  C
  C470     1.0000 0.67000  0.97995  0.36010  Biso   1.000  C
  C471     1.0000 0.32812  0.67323  0.03372  Biso   1.000  C
  C472     1.0000 0.48808  0.36721  0.82373  Biso   1.000  C
  C473     1.0000 0.16498  0.99207  0.16341  Biso   1.000  C
  C474     1.0000 0.82357  0.66942  0.52624  Biso   1.000  C
  C475     1.0000 0.47616  0.86856  0.70053  Biso   1.000  C
  C476     1.0000 0.81668  0.47506  0.35040  Biso   1.000  C
  C477     1.0000 0.14870  0.16864  0.01135  Biso   1.000  C
  C478     1.0000 0.98615  0.83781  0.83781  Biso   1.000  C
  C479     1.0000 0.31007  0.47910  0.16428  Biso   1.000  C
  C480     1.0000 0.65246  0.16689  0.50119  Biso   1.000  C
  C481     1.0000 0.33315  0.80104  0.51510  Biso   1.000  C
  C482     1.0000 0.47887  0.38517  0.79858  Biso   1.000  C
  C483     1.0000 0.78806  0.47234  0.36535  Biso   1.000  C
  C484     1.0000 0.83803  0.79821  0.02996  Biso   1.000  C
  C485     1.0000 0.97673  0.35158  0.70997  Biso   1.000  C
  C486     1.0000 0.28203  0.47938  0.14774  Biso   1.000  C
  C487     1.0000 0.13190  0.30070  0.49630  Biso   1.000  C
  C488     1.0000 0.99741  0.84973  0.81044  Biso   1.000  C
  C489     1.0000 0.69656  0.97952  0.37442  Biso   1.000  C
  C490     1.0000 0.62865  0.29701  0.00187  Biso   1.000  C
  C491     1.0000 0.47710  0.88568  0.72751  Biso   1.000  C
  C492     1.0000 0.19252  0.99161  0.14700  Biso   1.000  C
  C493     1.0000 0.63704  0.19552  0.50224  Biso   1.000  C
  C494     1.0000 0.48893  0.61506  0.23099  Biso   1.000  C
  C495     1.0000 0.18455  0.50557  0.65675  Biso   1.000  C
  C496     1.0000 0.13299  0.19591  0.00573  Biso   1.000  C
  C497     1.0000 0.97357  0.64259  0.31349  Biso   1.000  C
  C498     1.0000 0.69175  0.50026  0.87974  Biso   1.000  C
  C499     1.0000 0.83819  0.69636  0.53278  Biso   1.000  C
  C500     1.0000 0.99967  0.14241  0.21277  Biso   1.000  C
  C501     1.0000 0.28524  0.00383  0.64470  Biso   1.000  C
  C502     1.0000 0.34228  0.70154  0.04022  Biso   1.000  C
  C503     1.0000 0.48815  0.11826  0.29468  Biso   1.000  C
  C504     1.0000 0.78584  0.00059  0.87121  Biso   1.000  C
  C505     1.0000 0.61632  0.51441  0.80714  Biso   1.000  C
  C506     1.0000 0.76568  0.61943  0.51379  Biso   1.000  C
  C507     1.0000 0.46392  0.80321  0.66090  Biso   1.000  C
  C508     1.0000 0.10467  0.48882  0.73076  Biso   1.000  C
  C509     1.0000 0.27064  0.62219  0.02068  Biso   1.000  C
  C510     1.0000 0.96058  0.78463  0.88965  Biso   1.000  C
  C511     1.0000 0.86120  0.99212  0.79561  Biso   1.000  C
  C512     1.0000 0.70997  0.11392  0.50305  Biso   1.000  C
  C513     1.0000 0.99187  0.28001  0.63313  Biso   1.000  C
  C514     1.0000 0.35846  0.01282  0.71750  Biso   1.000  C
  C515     1.0000 0.20579  0.11781  0.02101  Biso   1.000  C
  C516     1.0000 0.50755  0.30690  0.86596  Biso   1.000  C
  C517     1.0000 0.35896  0.47774  0.22297  Biso   1.000  C
  C518     1.0000 0.20233  0.37913  0.51830  Biso   1.000  C
  C519     1.0000 0.49457  0.19873  0.36634  Biso   1.000  C
  C520     1.0000 0.86945  0.48483  0.29327  Biso   1.000  C
  C521     1.0000 0.70136  0.37308  0.01796  Biso   1.000  C
  C522     1.0000 0.01417  0.21121  0.13006  Biso   1.000  C
  C523     1.0000 0.11417  0.99883  0.22325  Biso   1.000  C
  C524     1.0000 0.26600  0.88585  0.50316  Biso   1.000  C
  C525     1.0000 0.96967  0.71316  0.39366  Biso   1.000  C
  C526     1.0000 0.61896  0.98035  0.30295  Biso   1.000  C
  C527     1.0000 0.76882  0.87677  0.01196  Biso   1.000  C
  C528     1.0000 0.48146  0.69559  0.16045  Biso   1.000  C
  C529     1.0000 0.78679  0.14322  0.99511  Biso   1.000  C
  C530     1.0000 0.98470  0.79366  0.15796  Biso   1.000  C
  C531     1.0000 0.12559  0.98908  0.80134  Biso   1.000  C
  C532     1.0000 0.29076  0.14993  0.51597  Biso   1.000  C
  C533     1.0000 0.46865  0.78116  0.39451  Biso   1.000  C
  C534     1.0000 0.62840  0.01135  0.71928  Biso   1.000  C
  C535     1.0000 0.68976  0.63947  0.00311  Biso   1.000  C
  C536     1.0000 0.48310  0.27696  0.13112  Biso   1.000  C
  C537     1.0000 0.35029  0.49761  0.80687  Biso   1.000  C
  C538     1.0000 0.18697  0.64923  0.51662  Biso   1.000  C
  C539     1.0000 0.01073  0.30120  0.36815  Biso   1.000  C
  C540     1.0000 0.83826  0.49318  0.71325  Biso   1.000  C
  C541     1.0000 0.18552  0.84968  0.01266  Biso   1.000  C
  C542     1.0000 0.99600  0.19561  0.86703  Biso   1.000  C
  C543     1.0000 0.84656  0.00827  0.21213  Biso   1.000  C
  C544     1.0000 0.68470  0.84794  0.51347  Biso   1.000  C
  C545     1.0000 0.50014  0.21999  0.63166  Biso   1.000  C
  C546     1.0000 0.34924  0.98510  0.30251  Biso   1.000  C
  C547     1.0000 0.28112  0.35939  0.00068  Biso   1.000  C
  C548     1.0000 0.46760  0.72009  0.89750  Biso   1.000  C
  C549     1.0000 0.62458  0.48517  0.22357  Biso   1.000  C
  C550     1.0000 0.78666  0.35063  0.49618  Biso   1.000  C
  C551     1.0000 0.96525  0.69605  0.65802  Biso   1.000  C
  C552     1.0000 0.13285  0.51429  0.30997  Biso   1.000  C
  C553     1.0000 0.98491  0.11527  0.79485  Biso   1.000  C
  C554     1.0000 0.77376  0.00205  0.13409  Biso   1.000  C
  C555     1.0000 0.10737  0.77788  0.01141  Biso   1.000  C
  C556     1.0000 0.49136  0.15158  0.71566  Biso   1.000  C
  C557     1.0000 0.27601  0.00058  0.38017  Biso   1.000  C
  C558     1.0000 0.60130  0.78062  0.53230  Biso   1.000  C
  C559     1.0000 0.48053  0.65287  0.81463  Biso   1.000  C
  C560     1.0000 0.70105  0.50609  0.14667  Biso   1.000  C
  C561     1.0000 0.36210  0.28661  0.99380  Biso   1.000  C
  C562     1.0000 0.96964  0.61522  0.72902  Biso   1.000  C
  C563     1.0000 0.20366  0.49849  0.38920  Biso   1.000  C
  C564     1.0000 0.86581  0.27999  0.50556  Biso   1.000  C
  C565     1.0000 0.97689  0.87661  0.22600  Biso   1.000  C
  C566     1.0000 0.20001  0.98118  0.88169  Biso   1.000  C
  C567     1.0000 0.86872  0.21430  0.99753  Biso   1.000  C
  C568     1.0000 0.48116  0.85092  0.31211  Biso   1.000  C
  C569     1.0000 0.69694  0.98017  0.64114  Biso   1.000  C
  C570     1.0000 0.37437  0.21762  0.50350  Biso   1.000  C
  C571     1.0000 0.47834  0.34787  0.21407  Biso   1.000  C
  C572     1.0000 0.27153  0.49833  0.88050  Biso   1.000  C
  C573     1.0000 0.60954  0.71366  0.01297  Biso   1.000  C
  C574     1.0000 0.01125  0.37771  0.29398  Biso   1.000  C
  C575     1.0000 0.76804  0.47620  0.63466  Biso   1.000  C
  C576     1.0000 0.10533  0.71858  0.52421  Biso   1.000  C
  C577     1.0000 0.28348  0.48080  0.11521  Biso   1.000  C
  C578     1.0000 0.10108  0.29850  0.49290  Biso   1.000  C
  C579     1.0000 0.48246  0.08850  0.29646  Biso   1.000  C
  C580     1.0000 0.78683  0.47642  0.39641  Biso   1.000  C
  C581     1.0000 0.59832  0.29668  0.99754  Biso   1.000  C
  C582     1.0000 0.99232  0.11128  0.21474  Biso   1.000  C
  C583     1.0000 0.19387  0.99112  0.11532  Biso   1.000  C
  C584     1.0000 0.36301  0.79804  0.52380  Biso   1.000  C
  C585     1.0000 0.98049  0.61318  0.31035  Biso   1.000  C
  C586     1.0000 0.69681  0.97813  0.40660  Biso   1.000  C
  C587     1.0000 0.87092  0.79674  0.02968  Biso   1.000  C
  C588     1.0000 0.49514  0.58425  0.22900  Biso   1.000  C
  C589     1.0000 0.69208  0.49722  0.91139  Biso   1.000  C
  C590     1.0000 0.86974  0.69758  0.53251  Biso   1.000  C
  C591     1.0000 0.48238  0.91668  0.72306  Biso   1.000  C
  C592     1.0000 0.18346  0.50595  0.62634  Biso   1.000  C
  C593     1.0000 0.37436  0.70427  0.03841  Biso   1.000  C
  C594     1.0000 0.00605  0.88088  0.81018  Biso   1.000  C
  C595     1.0000 0.78619  0.00063  0.90290  Biso   1.000  C
  C596     1.0000 0.60609  0.19534  0.50119  Biso   1.000  C
  C597     1.0000 0.97247  0.38258  0.71066  Biso   1.000  C
  C598     1.0000 0.28682  0.00644  0.61334  Biso   1.000  C
  C599     1.0000 0.10058  0.19401  0.00551  Biso   1.000  C
  C600     1.0000 0.47324  0.41531  0.80311  Biso   1.000  C
  C601     1.0000 0.19717  0.97878  0.91362  Biso   1.000  C
  C602     1.0000 0.90013  0.21249  0.99926  Biso   1.000  C
  C603     1.0000 0.97532  0.90782  0.22193  Biso   1.000  C
  C604     1.0000 0.69339  0.97624  0.61126  Biso   1.000  C
  C605     1.0000 0.40492  0.21145  0.50156  Biso   1.000  C
  C606     1.0000 0.48513  0.88251  0.30977  Biso   1.000  C
  C607     1.0000 0.26997  0.50084  0.91280  Biso   1.000  C
  C608     1.0000 0.57884  0.71087  0.02030  Biso   1.000  C
  C609     1.0000 0.48239  0.37878  0.21627  Biso   1.000  C
  C610     1.0000 0.77245  0.47848  0.60373  Biso   1.000  C
  C611     1.0000 0.07396  0.71334  0.52503  Biso   1.000  C
  C612     1.0000 0.01232  0.41009  0.29367  Biso   1.000  C
  C613     1.0000 0.77604  0.00064  0.10282  Biso   1.000  C
  C614     1.0000 0.07580  0.77845  0.01196  Biso   1.000  C
  C615     1.0000 0.98770  0.08415  0.79751  Biso   1.000  C
  C616     1.0000 0.27873  0.01035  0.41086  Biso   1.000  C
  C617     1.0000 0.57003  0.78308  0.53064  Biso   1.000  C
  C618     1.0000 0.48662  0.12046  0.71777  Biso   1.000  C
  C619     1.0000 0.70082  0.50994  0.11580  Biso   1.000  C
  C620     1.0000 0.39469  0.28953  0.99556  Biso   1.000  C
  C621     1.0000 0.48494  0.62133  0.81253  Biso   1.000  C
  C622     1.0000 0.20130  0.50106  0.42039  Biso   1.000  C
  C623     1.0000 0.89680  0.28157  0.51268  Biso   1.000  C
  C624     1.0000 0.96971  0.58381  0.72893  Biso   1.000  C
  C625     1.0000 0.99858  0.19621  0.89815  Biso   1.000  C
  C626     1.0000 0.87836  0.00863  0.21123  Biso   1.000  C
  C627     1.0000 0.18667  0.88117  0.01365  Biso   1.000  C
  C628     1.0000 0.50066  0.21440  0.60082  Biso   1.000  C
  C629     1.0000 0.38099  0.98384  0.30266  Biso   1.000  C
  C630     1.0000 0.68625  0.87930  0.50956  Biso   1.000  C
  C631     1.0000 0.46648  0.71637  0.92836  Biso   1.000  C
  C632     1.0000 0.59353  0.48331  0.22241  Biso   1.000  C
  C633     1.0000 0.27983  0.38911  0.00454  Biso   1.000  C
  C634     1.0000 0.96495  0.69751  0.62699  Biso   1.000  C
  C635     1.0000 0.10174  0.51696  0.30871  Biso   1.000  C
  C636     1.0000 0.78563  0.38202  0.49302  Biso   1.000  C
  C637     1.0000 0.98362  0.79230  0.12622  Biso   1.000  C
  C638     1.0000 0.09498  0.98688  0.80237  Biso   1.000  C
  C639     1.0000 0.78468  0.11164  0.99918  Biso   1.000  C
  C640     1.0000 0.46857  0.78404  0.42655  Biso   1.000  C
  C641     1.0000 0.59865  0.01871  0.72007  Biso   1.000  C
  C642     1.0000 0.28874  0.11848  0.51860  Biso   1.000  C
  C643     1.0000 0.49100  0.28141  0.10065  Biso   1.000  C
  C644     1.0000 0.38167  0.50045  0.80785  Biso   1.000  C
  C645     1.0000 0.69019  0.60835  0.00253  Biso   1.000  C
  C646     1.0000 0.00626  0.29896  0.39952  Biso   1.000  C
  C647     1.0000 0.87013  0.48907  0.71712  Biso   1.000  C
  C648     1.0000 0.18865  0.61788  0.51672  Biso   1.000  C
  C649     1.0000 0.97319  0.71162  0.42448  Biso   1.000  C
  C650     1.0000 0.39008  0.01334  0.71801  Biso   1.000  C
  C651     1.0000 0.69919  0.40510  0.01902  Biso   1.000  C
  C652     1.0000 0.47959  0.69821  0.13008  Biso   1.000  C
  C653     1.0000 0.89265  0.98729  0.79595  Biso   1.000  C
  C654     1.0000 0.20094  0.41101  0.52321  Biso   1.000  C
  C655     1.0000 0.49512  0.19936  0.39722  Biso   1.000  C
  C656     1.0000 0.07300  0.48614  0.73002  Biso   1.000  C
  C657     1.0000 0.76972  0.90804  0.00695  Biso   1.000  C
  C658     1.0000 0.00905  0.20746  0.09936  Biso   1.000  C
  C659     1.0000 0.58537  0.52097  0.81068  Biso   1.000  C
  C660     1.0000 0.27018  0.91721  0.50354  Biso   1.000  C
  C661     1.0000 0.99577  0.28169  0.60231  Biso   1.000  C
  C662     1.0000 0.58761  0.98289  0.30523  Biso   1.000  C
  C663     1.0000 0.27171  0.59108  0.01814  Biso   1.000  C
  C664     1.0000 0.50944  0.30463  0.89736  Biso   1.000  C
  C665     1.0000 0.08247  0.00006  0.22168  Biso   1.000  C
  C666     1.0000 0.76680  0.58826  0.50626  Biso   1.000  C
  C667     1.0000 0.46531  0.79979  0.62918  Biso   1.000  C
  C668     1.0000 0.90118  0.49099  0.29487  Biso   1.000  C
  C669     1.0000 0.20545  0.08604  0.01998  Biso   1.000  C
  C670     1.0000 0.95643  0.78916  0.92153  Biso   1.000  C
  C671     1.0000 0.39054  0.47996  0.22102  Biso   1.000  C
  C672     1.0000 0.70809  0.08227  0.50495  Biso   1.000  C
  C673     1.0000 0.18924  0.98671  0.81659  Biso   1.000  C
  C674     1.0000 0.80441  0.20530  0.99678  Biso   1.000  C
  C675     1.0000 0.97807  0.81012  0.21730  Biso   1.000  C
  C676     1.0000 0.69066  0.99418  0.70382  Biso   1.000  C
  C677     1.0000 0.30834  0.21131  0.50679  Biso   1.000  C
  C678     1.0000 0.47694  0.78938  0.32916  Biso   1.000  C
  C679     1.0000 0.28554  0.49560  0.81924  Biso   1.000  C
  C680     1.0000 0.67426  0.70270  0.00762  Biso   1.000  C
  C681     1.0000 0.47359  0.28557  0.19589  Biso   1.000  C
  C682     1.0000 0.77758  0.48668  0.69993  Biso   1.000  C
  C683     1.0000 0.16797  0.71132  0.51850  Biso   1.000  C
  C684     1.0000 0.01224  0.31452  0.30432  Biso   1.000  C
  C685     1.0000 0.78288  0.99963  0.19858  Biso   1.000  C
  C686     1.0000 0.16974  0.78934  0.01525  Biso   1.000  C
  C687     1.0000 0.98819  0.17983  0.80185  Biso   1.000  C
  C688     1.0000 0.28640  0.99330  0.31922  Biso   1.000  C
  C689     1.0000 0.66597  0.78767  0.52442  Biso   1.000  C
  C690     1.0000 0.49778  0.21329  0.69582  Biso   1.000  C
  C691     1.0000 0.68831  0.48737  0.20842  Biso   1.000  C
  C692     1.0000 0.29786  0.29720  0.99833  Biso   1.000  C
  C693     1.0000 0.47288  0.71249  0.83217  Biso   1.000  C
  C694     1.0000 0.19339  0.50017  0.32590  Biso   1.000  C
  C695     1.0000 0.80458  0.29112  0.50023  Biso   1.000  C
  C696     1.0000 0.96472  0.68073  0.72008  Biso   1.000  C
  C697     1.0000 0.68105  0.97927  0.31250  Biso   1.000  C
  C698     1.0000 0.28216  0.68603  0.03063  Biso   1.000  C
  C699     1.0000 0.98249  0.29255  0.69525  Biso   1.000  C
  C700     1.0000 0.17674  0.99380  0.21138  Biso   1.000  C
  C701     1.0000 0.77696  0.68033  0.52440  Biso   1.000  C
  C702     1.0000 0.49461  0.32042  0.80465  Biso   1.000  C
  C703     1.0000 0.80593  0.47899  0.30252  Biso   1.000  C
  C704     1.0000 0.19490  0.18236  0.01310  Biso   1.000  C
  C705     1.0000 0.47283  0.82287  0.72040  Biso   1.000  C
  C706     1.0000 0.29638  0.47967  0.21163  Biso   1.000  C
  C707     1.0000 0.69941  0.17907  0.50064  Biso   1.000  C
  C708     1.0000 0.97632  0.78957  0.82730  Biso   1.000  C
  C709     1.0000 0.29839  0.00384  0.70614  Biso   1.000  C
  C710     1.0000 0.68996  0.31173  0.00810  Biso   1.000  C
  C711     1.0000 0.96898  0.70372  0.32952  Biso   1.000  C
  C712     1.0000 0.79876  0.99730  0.80923  Biso   1.000  C
  C713     1.0000 0.19511  0.31844  0.50103  Biso   1.000  C
  C714     1.0000 0.48035  0.67891  0.22211  Biso   1.000  C
  C715     1.0000 0.16840  0.49682  0.71989  Biso   1.000  C
  C716     1.0000 0.77791  0.81393  0.02411  Biso   1.000  C
  C717     1.0000 0.48917  0.18131  0.30546  Biso   1.000  C
  C718     1.0000 0.67885  0.50537  0.81723  Biso   1.000  C
  C719     1.0000 0.27191  0.82180  0.50860  Biso   1.000  C
  C720     1.0000 0.01218  0.20458  0.19600  Biso   1.000  C
  C721     1.0000 0.49076  0.76154  0.33663  Biso   1.000  C
  C722     1.0000 0.28746  0.51298  0.79146  Biso   1.000  C
  C723     1.0000 0.77707  0.28990  0.51596  Biso   1.000  C
  C724     1.0000 0.96342  0.78198  0.21359  Biso   1.000  C
  C725     1.0000 0.75038  0.50223  0.69623  Biso   1.000  C
  C726     1.0000 0.26876  0.30093  0.98650  Biso   1.000  C
  C727     1.0000 0.99431  0.28815  0.30597  Biso   1.000  C
  C728     1.0000 0.21620  0.00133  0.82287  Biso   1.000  C
  C729     1.0000 0.69596  0.79203  0.53753  Biso   1.000  C
  C730     1.0000 0.45693  0.29080  0.22175  Biso   1.000  C
  C731     1.0000 0.71097  0.97050  0.70450  Biso   1.000  C
  C732     1.0000 0.19447  0.78792  0.99551  Biso   1.000  C
  C733     1.0000 0.47832  0.21194  0.72300  Biso   1.000  C
  C734     1.0000 0.68765  0.46541  0.23223  Biso   1.000  C
  C735     1.0000 0.15874  0.73835  0.50343  Biso   1.000  C
  C736     1.0000 0.97433  0.20809  0.80729  Biso   1.000  C
  C737     1.0000 0.18548  0.48209  0.30056  Biso   1.000  C
  C738     1.0000 0.70053  0.69768  0.02394  Biso   1.000  C
  C739     1.0000 0.98709  0.67673  0.74154  Biso   1.000  C
  C740     1.0000 0.75738  0.98199  0.19198  Biso   1.000  C
  C741     1.0000 0.28009  0.20658  0.49192  Biso   1.000  C
  C742     1.0000 0.49336  0.71147  0.80787  Biso   1.000  C
  C743     1.0000 0.25767  0.97966  0.32372  Biso   1.000  C
  C744     1.0000 0.80779  0.23366  0.01082  Biso   1.000  C
  C745     1.0000 0.98310  0.73172  0.33476  Biso   1.000  C
  C746     1.0000 0.27207  0.02034  0.70746  Biso   1.000  C
  C747     1.0000 0.71475  0.31085  0.02656  Biso   1.000  C
  C748     1.0000 0.49385  0.70744  0.22040  Biso   1.000  C
  C749     1.0000 0.80147  0.97690  0.78468  Biso   1.000  C
  C750     1.0000 0.22418  0.32603  0.48970  Biso   1.000  C
  C751     1.0000 0.50017  0.21068  0.30672  Biso   1.000  C
  C752     1.0000 0.19143  0.51769  0.71986  Biso   1.000  C
  C753     1.0000 0.75589  0.81467  0.00020  Biso   1.000  C
  C754     1.0000 0.02493  0.20135  0.22490  Biso   1.000  C
  C755     1.0000 0.67134  0.49226  0.78995  Biso   1.000  C
  C756     1.0000 0.24506  0.82766  0.52495  Biso   1.000  C
  C757     1.0000 0.00316  0.26884  0.69355  Biso   1.000  C
  C758     1.0000 0.67483  0.99558  0.28699  Biso   1.000  C
  C759     1.0000 0.25255  0.67931  0.04061  Biso   1.000  C
  C760     1.0000 0.50299  0.32976  0.77591  Biso   1.000  C
  C761     1.0000 0.20047  0.01306  0.20726  Biso   1.000  C
  C762     1.0000 0.75695  0.68064  0.49915  Biso   1.000  C
  C763     1.0000 0.45585  0.82837  0.74726  Biso   1.000  C
  C764     1.0000 0.78228  0.49862  0.30716  Biso   1.000  C
  C765     1.0000 0.18812  0.21057  0.02795  Biso   1.000  C
  C766     1.0000 0.96625  0.79484  0.79871  Biso   1.000  C
  C767     1.0000 0.30106  0.49881  0.23674  Biso   1.000  C
  C768     1.0000 0.69698  0.20690  0.48458  Biso   1.000  C
  C769     1.0000 0.45193  0.73632  0.83239  Biso   1.000  C
  C770     1.0000 0.78263  0.47410  0.72800  Biso   1.000  C
  C771     1.0000 0.65952  0.75830  0.51287  Biso   1.000  C
  C772     1.0000 0.94558  0.70588  0.72314  Biso   1.000  C
  C773     1.0000 0.25963  0.47925  0.82379  Biso   1.000  C
  C774     1.0000 0.16594  0.76671  0.03705  Biso   1.000  C
  C775     1.0000 0.99800  0.17429  0.77308  Biso   1.000  C
  C776     1.0000 0.69467  0.01900  0.72185  Biso   1.000  C
  C777     1.0000 0.81330  0.26310  0.48481  Biso   1.000  C
  C778     1.0000 0.51525  0.23918  0.69100  Biso   1.000  C
  C779     1.0000 0.18624  0.97328  0.78799  Biso   1.000  C
  C780     1.0000 0.30278  0.26934  0.01363  Biso   1.000  C
  C781     1.0000 0.49057  0.25848  0.19372  Biso   1.000  C
  C782     1.0000 0.22369  0.50688  0.32861  Biso   1.000  C
  C783     1.0000 0.31304  0.24133  0.51571  Biso   1.000  C
  C784     1.0000 0.03189  0.31789  0.27896  Biso   1.000  C
  C785     1.0000 0.71459  0.50474  0.20584  Biso   1.000  C
  C786     1.0000 0.77854  0.20302  0.97892  Biso   1.000  C
  C787     1.0000 0.98650  0.81661  0.24661  Biso   1.000  C
  C788     1.0000 0.29159  0.00627  0.29050  Biso   1.000  C
  C789     1.0000 0.19654  0.71008  0.53064  Biso   1.000  C
  C790     1.0000 0.46292  0.79162  0.30127  Biso   1.000  C
  C791     1.0000 0.78446  0.01217  0.22778  Biso   1.000  C
  C792     1.0000 0.67003  0.73148  0.99598  Biso   1.000  C
  C793     1.0000 0.47292  0.17370  0.28048  Biso   1.000  C
  C794     1.0000 0.26934  0.46334  0.21252  Biso   1.000  C
  C795     1.0000 0.19291  0.28803  0.51194  Biso   1.000  C
  C796     1.0000 0.00125  0.23398  0.18892  Biso   1.000  C
  C797     1.0000 0.80785  0.46370  0.27425  Biso   1.000  C
  C798     1.0000 0.68896  0.29042  0.98372  Biso   1.000  C
  C799     1.0000 0.95433  0.69982  0.30166  Biso   1.000  C
  C800     1.0000 0.17446  0.97553  0.23706  Biso   1.000  C
  C801     1.0000 0.27511  0.79554  0.49280  Biso   1.000  C
  C802     1.0000 0.46600  0.67212  0.24953  Biso   1.000  C
  C803     1.0000 0.71075  0.96621  0.31260  Biso   1.000  C
  C804     1.0000 0.77588  0.79004  0.04586  Biso   1.000  C
  C805     1.0000 0.49035  0.79688  0.71703  Biso   1.000  C
  C806     1.0000 0.70773  0.51742  0.81933  Biso   1.000  C
  C807     1.0000 0.77293  0.69960  0.54959  Biso   1.000  C
  C808     1.0000 0.98492  0.75996  0.83476  Biso   1.000  C
  C809     1.0000 0.17013  0.47357  0.73996  Biso   1.000  C
  C810     1.0000 0.28649  0.71461  0.01789  Biso   1.000  C
  C811     1.0000 0.95824  0.29046  0.71652  Biso   1.000  C
  C812     1.0000 0.77309  0.01594  0.81197  Biso   1.000  C
  C813     1.0000 0.72739  0.17442  0.51363  Biso   1.000  C
  C814     1.0000 0.48637  0.29032  0.80909  Biso   1.000  C
  C815     1.0000 0.30266  0.98508  0.73103  Biso   1.000  C
  C816     1.0000 0.22297  0.18081  0.99767  Biso   1.000  C
  C817     1.0000 0.97145  0.22772  0.78512  Biso   1.000  C
  C818     1.0000 0.73492  0.97758  0.21186  Biso   1.000  C
  C819     1.0000 0.21427  0.76675  0.99969  Biso   1.000  C
  C820     1.0000 0.47598  0.23704  0.74022  Biso   1.000  C
  C821     1.0000 0.23667  0.98334  0.30366  Biso   1.000  C
  C822     1.0000 0.71495  0.76810  0.53835  Biso   1.000  C
  C823     1.0000 0.49388  0.73399  0.78649  Biso   1.000  C
  C824     1.0000 0.71226  0.46426  0.25025  Biso   1.000  C
  C825     1.0000 0.24722  0.27923  0.98966  Biso   1.000  C
  C826     1.0000 0.98705  0.69738  0.76427  Biso   1.000  C
  C827     1.0000 0.20507  0.47606  0.27818  Biso   1.000  C
  C828     1.0000 0.75744  0.26843  0.51225  Biso   1.000  C
  C829     1.0000 0.96129  0.76284  0.23637  Biso   1.000  C
  C830     1.0000 0.23767  0.00267  0.80204  Biso   1.000  C
  C831     1.0000 0.78664  0.25558  0.00818  Biso   1.000  C
  C832     1.0000 0.48919  0.73795  0.31839  Biso   1.000  C
  C833     1.0000 0.73387  0.97198  0.72507  Biso   1.000  C
  C834     1.0000 0.26078  0.22800  0.48651  Biso   1.000  C
  C835     1.0000 0.45689  0.26980  0.24383  Biso   1.000  C
  C836     1.0000 0.26442  0.51408  0.77181  Biso   1.000  C
  C837     1.0000 0.72069  0.71994  0.02664  Biso   1.000  C
  C838     1.0000 0.99800  0.26821  0.28366  Biso   1.000  C
  C839     1.0000 0.73273  0.50933  0.71910  Biso   1.000  C
  C840     1.0000 0.17734  0.76171  0.49930  Biso   1.000  C
  C841     1.0000 0.20788  0.97648  0.76599  Biso   1.000  C
  C842     1.0000 0.75706  0.22415  0.97933  Biso   1.000  C
  C843     1.0000 0.98216  0.79736  0.26873  Biso   1.000  C
  C844     1.0000 0.71711  0.01883  0.74146  Biso   1.000  C
  C845     1.0000 0.29234  0.26181  0.51052  Biso   1.000  C
  C846     1.0000 0.46211  0.76662  0.28430  Biso   1.000  C
  C847     1.0000 0.23872  0.47965  0.80277  Biso   1.000  C
  C848     1.0000 0.68823  0.75475  0.00077  Biso   1.000  C
  C849     1.0000 0.48924  0.23713  0.21522  Biso   1.000  C
  C850     1.0000 0.76311  0.47921  0.75125  Biso   1.000  C
  C851     1.0000 0.21422  0.73438  0.52652  Biso   1.000  C
  C852     1.0000 0.03427  0.29696  0.25717  Biso   1.000  C
  C853     1.0000 0.76225  0.00715  0.24761  Biso   1.000  C
  C854     1.0000 0.18548  0.74506  0.03967  Biso   1.000  C
  C855     1.0000 0.99575  0.19542  0.75206  Biso   1.000  C
  C856     1.0000 0.26965  0.00856  0.27103  Biso   1.000  C
  C857     1.0000 0.68056  0.73581  0.51277  Biso   1.000  C
  C858     1.0000 0.51487  0.26248  0.71274  Biso   1.000  C
  C859     1.0000 0.73777  0.50157  0.22350  Biso   1.000  C
  C860     1.0000 0.28216  0.24781  0.01351  Biso   1.000  C
  C861     1.0000 0.45254  0.75838  0.81062  Biso   1.000  C
  C862     1.0000 0.24439  0.50057  0.30645  Biso   1.000  C
  C863     1.0000 0.79236  0.24089  0.48450  Biso   1.000  C
  C864     1.0000 0.94740  0.72602  0.74437  Biso   1.000  C
  C865     1.0000 0.69252  0.48984  0.76724  Biso   1.000  C
  C866     1.0000 0.73251  0.70001  0.50208  Biso   1.000  C
  C867     1.0000 0.45665  0.80660  0.76771  Biso   1.000  C
  C868     1.0000 0.21444  0.51692  0.73820  Biso   1.000  C
  C869     1.0000 0.23093  0.69942  0.03902  Biso   1.000  C
  C870     1.0000 0.96396  0.77186  0.77986  Biso   1.000  C
  C871     1.0000 0.78038  0.97628  0.76437  Biso   1.000  C
  C872     1.0000 0.71895  0.22738  0.48392  Biso   1.000  C
  C873     1.0000 0.00112  0.24516  0.71253  Biso   1.000  C
  C874     1.0000 0.25047  0.01691  0.72993  Biso   1.000  C
  C875     1.0000 0.20755  0.23349  0.02442  Biso   1.000  C
  C876     1.0000 0.50381  0.31026  0.75319  Biso   1.000  C
  C877     1.0000 0.27982  0.49933  0.25928  Biso   1.000  C
  C878     1.0000 0.24738  0.30565  0.48945  Biso   1.000  C
  C879     1.0000 0.49340  0.23095  0.28576  Biso   1.000  C
  C880     1.0000 0.75939  0.49894  0.28973  Biso   1.000  C
  C881     1.0000 0.73779  0.29027  0.02155  Biso   1.000  C
  C882     1.0000 0.02461  0.22409  0.24530  Biso   1.000  C
  C883     1.0000 0.22149  0.01618  0.22886  Biso   1.000  C
  C884     1.0000 0.22380  0.80657  0.52575  Biso   1.000  C
  C885     1.0000 0.98295  0.75202  0.31250  Biso   1.000  C
  C886     1.0000 0.69312  0.99630  0.26219  Biso   1.000  C
  C887     1.0000 0.73577  0.79294  0.99795  Biso   1.000  C
  C888     1.0000 0.49106  0.72400  0.24465  Biso   1.000  C
  C889     1.0000 0.72920  0.96911  0.28846  Biso   1.000  C
  C890     1.0000 0.26396  0.73304  0.01665  Biso   1.000  C
  C891     1.0000 0.95693  0.26685  0.73552  Biso   1.000  C
  C892     1.0000 0.19691  0.97770  0.25567  Biso   1.000  C
  C893     1.0000 0.74748  0.71703  0.55058  Biso   1.000  C
  C894     1.0000 0.48714  0.27078  0.78622  Biso   1.000  C
  C895     1.0000 0.78338  0.46514  0.25722  Biso   1.000  C
  C896     1.0000 0.24090  0.20399  0.99530  Biso   1.000  C
  C897     1.0000 0.49219  0.77767  0.73955  Biso   1.000  C
  C898     1.0000 0.24831  0.46497  0.23399  Biso   1.000  C
  C899     1.0000 0.75004  0.19441  0.50994  Biso   1.000  C
  C900     1.0000 0.98192  0.73777  0.81518  Biso   1.000  C
  C901     1.0000 0.28177  0.98270  0.75322  Biso   1.000  C
  C902     1.0000 0.71201  0.27039  0.98052  Biso   1.000  C
  C903     1.0000 0.95369  0.72200  0.28241  Biso   1.000  C
  C904     1.0000 0.75155  0.01241  0.79097  Biso   1.000  C
  C905     1.0000 0.21595  0.26832  0.51014  Biso   1.000  C
  C906     1.0000 0.46393  0.69096  0.27291  Biso   1.000  C
  C907     1.0000 0.19264  0.47431  0.76012  Biso   1.000  C
  C908     1.0000 0.75490  0.76862  0.04187  Biso   1.000  C
  C909     1.0000 0.46645  0.19447  0.25963  Biso   1.000  C
  C910     1.0000 0.72879  0.51516  0.79747  Biso   1.000  C
  C911     1.0000 0.25191  0.77668  0.49370  Biso   1.000  C
  C912     1.0000 0.00329  0.25593  0.20887  Biso   1.000  C
  C913     1.0000 0.73965  0.49828  0.74602  Biso   1.000  C
  C914     1.0000 0.70683  0.74042  0.52607  Biso   1.000  C
  C915     1.0000 0.47345  0.75672  0.78721  Biso   1.000  C
  C916     1.0000 0.24072  0.49663  0.77803  Biso   1.000  C
  C917     1.0000 0.20999  0.74543  0.02143  Biso   1.000  C
  C918     1.0000 0.96791  0.72133  0.76529  Biso   1.000  C
  C919     1.0000 0.73534  0.99496  0.74315  Biso   1.000  C
  C920     1.0000 0.76512  0.24471  0.49713  Biso   1.000  C
  C921     1.0000 0.98236  0.22286  0.75644  Biso   1.000  C
  C922     1.0000 0.23296  0.99241  0.77332  Biso   1.000  C
  C923     1.0000 0.25490  0.25370  0.00255  Biso   1.000  C
  C924     1.0000 0.49466  0.26043  0.73578  Biso   1.000  C
  C925     1.0000 0.23392  0.48558  0.28200  Biso   1.000  C
  C926     1.0000 0.26613  0.25562  0.49842  Biso   1.000  C
  C927     1.0000 0.47346  0.24398  0.23978  Biso   1.000  C
  C928     1.0000 0.73502  0.48341  0.24673  Biso   1.000  C
  C929     1.0000 0.76035  0.24932  0.99531  Biso   1.000  C
  C930     1.0000 0.01580  0.27320  0.25988  Biso   1.000  C
  C931     1.0000 0.24331  0.99664  0.27553  Biso   1.000  C
  C932     1.0000 0.20456  0.75919  0.51243  Biso   1.000  C
  C933     1.0000 0.97157  0.76976  0.26334  Biso   1.000  C
  C934     1.0000 0.74039  0.98784  0.23993  Biso   1.000  C
  C935     1.0000 0.71336  0.74772  0.01574  Biso   1.000  C
  C936     1.0000 0.47541  0.74094  0.29268  Biso   1.000  C
  C937     1.0000 0.73500  0.27004  0.99994  Biso   1.000  C
  C938     1.0000 0.96702  0.74922  0.28729  Biso   1.000  C
  C939     1.0000 0.25630  0.99765  0.75135  Biso   1.000  C
  C940     1.0000 0.24243  0.27655  0.49781  Biso   1.000  C
  C941     1.0000 0.47819  0.71760  0.27022  Biso   1.000  C
  C942     1.0000 0.75560  0.99526  0.76678  Biso   1.000  C
  C943     1.0000 0.73536  0.77022  0.01892  Biso   1.000  C
  C944     1.0000 0.47721  0.22300  0.26273  Biso   1.000  C
  C945     1.0000 0.21436  0.49525  0.75911  Biso   1.000  C
  C946     1.0000 0.22750  0.78145  0.50974  Biso   1.000  C
  C947     1.0000 0.01432  0.25046  0.23679  Biso   1.000  C
  C948     1.0000 0.72008  0.50201  0.77132  Biso   1.000  C
  C949     1.0000 0.23524  0.72565  0.02516  Biso   1.000  C
  C950     1.0000 0.97856  0.24535  0.73367  Biso   1.000  C
  C951     1.0000 0.71931  0.98328  0.26343  Biso   1.000  C
  C952     1.0000 0.72943  0.71728  0.52606  Biso   1.000  C
  C953     1.0000 0.49602  0.28105  0.75916  Biso   1.000  C
  C954     1.0000 0.22077  0.99804  0.25232  Biso   1.000  C
  C955     1.0000 0.23312  0.23047  0.00690  Biso   1.000  C
  C956     1.0000 0.47411  0.78216  0.76459  Biso   1.000  C
  C957     1.0000 0.75932  0.48144  0.26487  Biso   1.000  C
  C958     1.0000 0.74509  0.22077  0.49599  Biso   1.000  C
  C959     1.0000 0.96971  0.74338  0.78832  Biso   1.000  C
  C960     1.0000 0.25427  0.48345  0.25737  Biso   1.000  C
  Cu1      1.0000 0.97621  0.48820  0.66883  Biso   1.000  Cu
  Cu2      1.0000 0.64224  0.98294  0.50766  Biso   1.000  Cu
  Cu3      1.0000 0.47853  0.65251  0.02358  Biso   1.000  Cu
  Cu4      1.0000 0.48130  0.51397  0.86309  Biso   1.000  Cu
  Cu5      1.0000 0.14216  0.98684  0.01319  Biso   1.000  Cu
  Cu6      1.0000 0.97423  0.65003  0.52358  Biso   1.000  Cu
  Cu7      1.0000 0.49502  0.01494  0.66588  Biso   1.000  Cu
  Cu8      1.0000 0.82988  0.48614  0.50195  Biso   1.000  Cu
  Cu9      1.0000 0.99467  0.14727  0.00275  Biso   1.000  Cu
  Cu10     1.0000 0.99289  0.98472  0.85674  Biso   1.000  Cu
  Cu11     1.0000 0.33168  0.49235  0.01019  Biso   1.000  Cu
  Cu12     1.0000 0.50228  0.15052  0.50595  Biso   1.000  Cu
  Cu13     1.0000 0.99682  0.50773  0.35769  Biso   1.000  Cu
  Cu14     1.0000 0.33979  0.01305  0.51078  Biso   1.000  Cu
  Cu15     1.0000 0.49384  0.34653  0.00557  Biso   1.000  Cu
  Cu16     1.0000 0.49464  0.48386  0.16684  Biso   1.000  Cu
  Cu17     1.0000 0.83469  0.00525  0.00443  Biso   1.000  Cu
  Cu18     1.0000 0.99604  0.34675  0.50398  Biso   1.000  Cu
  Cu19     1.0000 0.48483  0.98769  0.35901  Biso   1.000  Cu
  Cu20     1.0000 0.13976  0.51012  0.52083  Biso   1.000  Cu
  Cu21     1.0000 0.97604  0.84121  0.01991  Biso   1.000  Cu
  Cu22     1.0000 0.98345  0.00646  0.16289  Biso   1.000  Cu
  Cu23     1.0000 0.63893  0.50375  0.01753  Biso   1.000  Cu
  Cu24     1.0000 0.47039  0.84653  0.52219  Biso   1.000  Cu
  Cu25     1.0000 0.19586  0.98357  0.01326  Biso   1.000  Cu
  Cu26     1.0000 0.00110  0.20050  0.99876  Biso   1.000  Cu
  Cu27     1.0000 0.97890  0.00822  0.21404  Biso   1.000  Cu
  Cu28     1.0000 0.69609  0.97873  0.50872  Biso   1.000  Cu
  Cu29     1.0000 0.50687  0.20409  0.50045  Biso   1.000  Cu
  Cu30     1.0000 0.48619  0.98607  0.30326  Biso   1.000  Cu
  Cu31     1.0000 0.27559  0.49093  0.01600  Biso   1.000  Cu
  Cu32     1.0000 0.47720  0.70675  0.02871  Biso   1.000  Cu
  Cu33     1.0000 0.49356  0.47939  0.22266  Biso   1.000  Cu
  Cu34     1.0000 0.77785  0.48213  0.49948  Biso   1.000  Cu
  Cu35     1.0000 0.96989  0.70447  0.52581  Biso   1.000  Cu
  Cu36     1.0000 0.99815  0.51111  0.30278  Biso   1.000  Cu
  Cu37     1.0000 0.77923  0.01179  0.00588  Biso   1.000  Cu
  Cu38     1.0000 0.97156  0.78666  0.02012  Biso   1.000  Cu
  Cu39     1.0000 0.99559  0.98354  0.80263  Biso   1.000  Cu
  Cu40     1.0000 0.28521  0.01880  0.51274  Biso   1.000  Cu
  Cu41     1.0000 0.46699  0.79351  0.52763  Biso   1.000  Cu
  Cu42     1.0000 0.49542  0.01505  0.71966  Biso   1.000  Cu
  Cu43     1.0000 0.69391  0.50827  0.01317  Biso   1.000  Cu
  Cu44     1.0000 0.49466  0.29141  0.99669  Biso   1.000  Cu
  Cu45     1.0000 0.48071  0.51620  0.80780  Biso   1.000  Cu
  Cu46     1.0000 0.19334  0.51203  0.52402  Biso   1.000  Cu
  Cu47     1.0000 0.00118  0.29281  0.49969  Biso   1.000  Cu
  Cu48     1.0000 0.96948  0.48244  0.72182  Biso   1.000  Cu
  H1       1.0000 0.20555  0.80998  0.53921  Biso   1.000  H
  H2       1.0000 0.50935  0.31528  0.73076  Biso   1.000  H
  H3       1.0000 0.74050  0.51199  0.29715  Biso   1.000  H
  H4       1.0000 0.71913  0.79356  0.98093  Biso   1.000  H
  H5       1.0000 0.01882  0.22978  0.71368  Biso   1.000  H
  H6       1.0000 0.28448  0.51228  0.27733  Biso   1.000  H
  H7       1.0000 0.26818  0.31425  0.47928  Biso   1.000  H
  H8       1.0000 0.95934  0.77765  0.75708  Biso   1.000  H
  H9       1.0000 0.68726  0.00854  0.24425  Biso   1.000  H
  H10      1.0000 0.75651  0.29319  0.03449  Biso   1.000  H
  H11      1.0000 0.44382  0.80950  0.78795  Biso   1.000  H
  H12      1.0000 0.23722  0.03425  0.22511  Biso   1.000  H
  H13      1.0000 0.71420  0.24821  0.47366  Biso   1.000  H
  H14      1.0000 0.50458  0.74376  0.24452  Biso   1.000  H
  H15      1.0000 0.22837  0.53679  0.73949  Biso   1.000  H
  H16      1.0000 0.20232  0.25502  0.03066  Biso   1.000  H
  H17      1.0000 0.99630  0.77227  0.31663  Biso   1.000  H
  H18      1.0000 0.68765  0.47922  0.74646  Biso   1.000  H
  H19      1.0000 0.71643  0.70191  0.48437  Biso   1.000  H
  H20      1.0000 0.03505  0.21903  0.26594  Biso   1.000  H
  H21      1.0000 0.23161  0.02907  0.72763  Biso   1.000  H
  H22      1.0000 0.20861  0.69589  0.04661  Biso   1.000  H
  H23      1.0000 0.50178  0.25204  0.28751  Biso   1.000  H
  H24      1.0000 0.78342  0.96215  0.74603  Biso   1.000  H
  H25      1.0000 0.26000  0.01376  0.80660  Biso   1.000  H
  H26      1.0000 0.79014  0.27746  0.01861  Biso   1.000  H
  H27      1.0000 0.95314  0.74130  0.23156  Biso   1.000  H
  H28      1.0000 0.74929  0.95399  0.72578  Biso   1.000  H
  H29      1.0000 0.24158  0.22405  0.47165  Biso   1.000  H
  H30      1.0000 0.49775  0.71637  0.32143  Biso   1.000  H
  H31      1.0000 0.26436  0.52776  0.75256  Biso   1.000  H
  H32      1.0000 0.74054  0.71500  0.03811  Biso   1.000  H
  H33      1.0000 0.44258  0.27244  0.26279  Biso   1.000  H
  H34      1.0000 0.71402  0.52352  0.71557  Biso   1.000  H
  H35      1.0000 0.17116  0.78078  0.48635  Biso   1.000  H
  H36      1.0000 0.98687  0.24674  0.28469  Biso   1.000  H
  H37      1.0000 0.71530  0.96798  0.20569  Biso   1.000  H
  H38      1.0000 0.23384  0.76729  0.98708  Biso   1.000  H
  H39      1.0000 0.96287  0.24828  0.79204  Biso   1.000  H
  H40      1.0000 0.21548  0.97451  0.30993  Biso   1.000  H
  H41      1.0000 0.73531  0.77193  0.54834  Biso   1.000  H
  H42      1.0000 0.45803  0.23691  0.75724  Biso   1.000  H
  H43      1.0000 0.71051  0.44810  0.26670  Biso   1.000  H
  H44      1.0000 0.22612  0.28275  0.98126  Biso   1.000  H
  H45      1.0000 0.51097  0.73301  0.77014  Biso   1.000  H
  H46      1.0000 0.19754  0.46507  0.25805  Biso   1.000  H
  H47      1.0000 0.73552  0.27175  0.52009  Biso   1.000  H
  H48      1.0000 0.00391  0.69475  0.78010  Biso   1.000  H
  H49      1.0000 0.26713  0.50623  0.30875  Biso   1.000  H
  H50      1.0000 0.29750  0.28348  0.52183  Biso   1.000  H
  H51      1.0000 0.50466  0.21918  0.21791  Biso   1.000  H
  H52      1.0000 0.75696  0.51457  0.22310  Biso   1.000  H
  H53      1.0000 0.73626  0.21942  0.96808  Biso   1.000  H
  H54      1.0000 0.04866  0.29739  0.23964  Biso   1.000  H
  H55      1.0000 0.27679  0.02111  0.25034  Biso   1.000  H
  H56      1.0000 0.23539  0.73305  0.53523  Biso   1.000  H
  H57      1.0000 0.98632  0.80826  0.29064  Biso   1.000  H
  H58      1.0000 0.76379  0.01798  0.26941  Biso   1.000  H
  H59      1.0000 0.68024  0.77530  0.99337  Biso   1.000  H
  H60      1.0000 0.45090  0.77076  0.26262  Biso   1.000  H
  H61      1.0000 0.76672  0.46880  0.77259  Biso   1.000  H
  H62      1.0000 0.67603  0.71523  0.50362  Biso   1.000  H
  H63      1.0000 0.43452  0.77232  0.81081  Biso   1.000  H
  H64      1.0000 0.22033  0.46612  0.80785  Biso   1.000  H
  H65      1.0000 0.17974  0.72684  0.05386  Biso   1.000  H
  H66      1.0000 0.93455  0.74570  0.74595  Biso   1.000  H
  H67      1.0000 0.71959  0.03823  0.75426  Biso   1.000  H
  H68      1.0000 0.79857  0.22145  0.47279  Biso   1.000  H
  H69      1.0000 0.00486  0.18984  0.73045  Biso   1.000  H
  H70      1.0000 0.20663  0.96802  0.74388  Biso   1.000  H
  H71      1.0000 0.28988  0.22669  0.02342  Biso   1.000  H
  H72      1.0000 0.52739  0.28294  0.70862  Biso   1.000  H
  H73      1.0000 0.75068  0.52262  0.80097  Biso   1.000  H
  H74      1.0000 0.74426  0.72724  0.57232  Biso   1.000  H
  H75      1.0000 0.50813  0.76015  0.73496  Biso   1.000  H
  H76      1.0000 0.19320  0.45794  0.77692  Biso   1.000  H
  H77      1.0000 0.26774  0.75506  0.00822  Biso   1.000  H
  H78      1.0000 0.98911  0.71678  0.82317  Biso   1.000  H
  H79      1.0000 0.73109  0.02358  0.79236  Biso   1.000  H
  H80      1.0000 0.77297  0.19045  0.51562  Biso   1.000  H
  H81      1.0000 0.93838  0.26649  0.75049  Biso   1.000  H
  H82      1.0000 0.28528  0.96815  0.77124  Biso   1.000  H
  H83      1.0000 0.26253  0.20270  0.98381  Biso   1.000  H
  H84      1.0000 0.48294  0.24768  0.79016  Biso   1.000  H
  H85      1.0000 0.22958  0.45142  0.23092  Biso   1.000  H
  H86      1.0000 0.21212  0.24618  0.51949  Biso   1.000  H
  H87      1.0000 0.45174  0.18721  0.24222  Biso   1.000  H
  H88      1.0000 0.78379  0.45501  0.23636  Biso   1.000  H
  H89      1.0000 0.71173  0.25420  0.96288  Biso   1.000  H
  H90      1.0000 0.99999  0.27781  0.20201  Biso   1.000  H
  H91      1.0000 0.19644  0.96162  0.27318  Biso   1.000  H
  H92      1.0000 0.25590  0.75681  0.48237  Biso   1.000  H
  H93      1.0000 0.94138  0.71489  0.26348  Biso   1.000  H
  H94      1.0000 0.75101  0.96040  0.28740  Biso   1.000  H
  H95      1.0000 0.75597  0.75026  0.05453  Biso   1.000  H
  H96      1.0000 0.45260  0.68207  0.29217  Biso   1.000  H
  H97      1.0000 0.86008  0.00129  0.91447  Biso   1.000  H
  H98      1.0000 0.88802  0.87030  0.01774  Biso   1.000  H
  H99      1.0000 0.98791  0.89772  0.88171  Biso   1.000  H
  H100     1.0000 0.36112  0.01766  0.60107  Biso   1.000  H
  H101     1.0000 0.38000  0.87141  0.52810  Biso   1.000  H
  H102     1.0000 0.49657  0.91772  0.64627  Biso   1.000  H
  H103     1.0000 0.61694  0.50231  0.92407  Biso   1.000  H
  H104     1.0000 0.58239  0.36978  0.01442  Biso   1.000  H
  H105     1.0000 0.48640  0.42182  0.87950  Biso   1.000  H
  H106     1.0000 0.10984  0.51089  0.61630  Biso   1.000  H
  H107     1.0000 0.08501  0.37355  0.50278  Biso   1.000  H
  H108     1.0000 0.97758  0.39798  0.63665  Biso   1.000  H
  H109     1.0000 0.11885  0.99513  0.10320  Biso   1.000  H
  H110     1.0000 0.09119  0.11811  0.00726  Biso   1.000  H
  H111     1.0000 0.99095  0.09802  0.13924  Biso   1.000  H
  H112     1.0000 0.62131  0.97302  0.41918  Biso   1.000  H
  H113     1.0000 0.59350  0.12113  0.50439  Biso   1.000  H
  H114     1.0000 0.48422  0.07983  0.37384  Biso   1.000  H
  H115     1.0000 0.35910  0.48022  0.10441  Biso   1.000  H
  H116     1.0000 0.38920  0.62599  0.03206  Biso   1.000  H
  H117     1.0000 0.48987  0.57812  0.15307  Biso   1.000  H
  H118     1.0000 0.85928  0.48298  0.41426  Biso   1.000  H
  H119     1.0000 0.88890  0.62778  0.51147  Biso   1.000  H
  H120     1.0000 0.98598  0.59766  0.38686  Biso   1.000  H
  H121     1.0000 0.08576  0.99197  0.87969  Biso   1.000  H
  H122     1.0000 0.85718  0.09441  0.01325  Biso   1.000  H
  H123     1.0000 0.97508  0.86676  0.10959  Biso   1.000  H
  H124     1.0000 0.58381  0.00997  0.64660  Biso   1.000  H
  H125     1.0000 0.36460  0.10269  0.51228  Biso   1.000  H
  H126     1.0000 0.47381  0.85901  0.43053  Biso   1.000  H
  H127     1.0000 0.39089  0.50735  0.88253  Biso   1.000  H
  H128     1.0000 0.61564  0.59504  0.01753  Biso   1.000  H
  H129     1.0000 0.49300  0.35853  0.09851  Biso   1.000  H
  H130     1.0000 0.88556  0.47380  0.64280  Biso   1.000  H
  H131     1.0000 0.11505  0.60047  0.51778  Biso   1.000  H
  H132     1.0000 0.99794  0.37288  0.41248  Biso   1.000  H
  H133     1.0000 0.89142  0.00955  0.13739  Biso   1.000  H
  H134     1.0000 0.11337  0.89797  0.00731  Biso   1.000  H
  H135     1.0000 0.99305  0.12069  0.91036  Biso   1.000  H
  H136     1.0000 0.39365  0.99721  0.37543  Biso   1.000  H
  H137     1.0000 0.61164  0.90006  0.51298  Biso   1.000  H
  H138     1.0000 0.50313  0.13922  0.59915  Biso   1.000  H
  H139     1.0000 0.58546  0.48734  0.14661  Biso   1.000  H
  H140     1.0000 0.35645  0.40383  0.00298  Biso   1.000  H
  H141     1.0000 0.48320  0.64090  0.93101  Biso   1.000  H
  H142     1.0000 0.08331  0.51876  0.38362  Biso   1.000  H
  H143     1.0000 0.85805  0.40312  0.50578  Biso   1.000  H
  H144     1.0000 0.96128  0.62185  0.61299  Biso   1.000  H
  H145     1.0000 0.57293  0.51385  0.88413  Biso   1.000  H
  H146     1.0000 0.84352  0.57982  0.50899  Biso   1.000  H
  H147     1.0000 0.48114  0.87472  0.61098  Biso   1.000  H
  H148     1.0000 0.06609  0.49709  0.65515  Biso   1.000  H
  H149     1.0000 0.34602  0.58526  0.03322  Biso   1.000  H
  H150     1.0000 0.97812  0.86239  0.92827  Biso   1.000  H
  H151     1.0000 0.90457  0.99395  0.87060  Biso   1.000  H
  H152     1.0000 0.63384  0.07567  0.49859  Biso   1.000  H
  H153     1.0000 0.99016  0.35723  0.59109  Biso   1.000  H
  H154     1.0000 0.40296  0.00636  0.64336  Biso   1.000  H
  H155     1.0000 0.12926  0.07847  0.00948  Biso   1.000  H
  H156     1.0000 0.49333  0.37726  0.91461  Biso   1.000  H
  H157     1.0000 0.40240  0.47880  0.14547  Biso   1.000  H
  H158     1.0000 0.12482  0.42095  0.51840  Biso   1.000  H
  H159     1.0000 0.48692  0.12427  0.41299  Biso   1.000  H
  H160     1.0000 0.90583  0.48379  0.37084  Biso   1.000  H
  H161     1.0000 0.62192  0.41537  0.01217  Biso   1.000  H
  H162     1.0000 0.98836  0.13346  0.09991  Biso   1.000  H
  H163     1.0000 0.07528  0.00150  0.14592  Biso   1.000  H
  H164     1.0000 0.34530  0.91788  0.51652  Biso   1.000  H
  H165     1.0000 0.97961  0.63499  0.42873  Biso   1.000  H
  H166     1.0000 0.57440  0.97947  0.37986  Biso   1.000  H
  H167     1.0000 0.84707  0.91571  0.00965  Biso   1.000  H
  H168     1.0000 0.48802  0.62404  0.11759  Biso   1.000  H
  H169     1.0000 0.00172  0.07590  0.86928  Biso   1.000  H
  H170     1.0000 0.85555  0.00281  0.09722  Biso   1.000  H
  H171     1.0000 0.06611  0.85483  0.00896  Biso   1.000  H
  H172     1.0000 0.49276  0.10313  0.64279  Biso   1.000  H
  H173     1.0000 0.35437  0.00087  0.41722  Biso   1.000  H
  H174     1.0000 0.56799  0.85952  0.51539  Biso   1.000  H
  H175     1.0000 0.48008  0.60270  0.88481  Biso   1.000  H
  H176     1.0000 0.62178  0.50303  0.11056  Biso   1.000  H
  H177     1.0000 0.40001  0.36567  0.99794  Biso   1.000  H
  H178     1.0000 0.96135  0.57923  0.65427  Biso   1.000  H
  H179     1.0000 0.12767  0.52256  0.43018  Biso   1.000  H
  H180     1.0000 0.90262  0.35869  0.51235  Biso   1.000  H
  H181     1.0000 0.98145  0.91222  0.14452  Biso   1.000  H
  H182     1.0000 0.12112  0.97917  0.91890  Biso   1.000  H
  H183     1.0000 0.90442  0.13458  0.00176  Biso   1.000  H
  H184     1.0000 0.48172  0.89917  0.38381  Biso   1.000  H
  H185     1.0000 0.62118  0.99797  0.60380  Biso   1.000  H
  H186     1.0000 0.40638  0.13469  0.51319  Biso   1.000  H
  H187     1.0000 0.49821  0.39227  0.14028  Biso   1.000  H
  H188     1.0000 0.34528  0.50580  0.92342  Biso   1.000  H
  H189     1.0000 0.57294  0.63594  0.01660  Biso   1.000  H
  H190     1.0000 0.00835  0.41740  0.37011  Biso   1.000  H
  H191     1.0000 0.84578  0.48217  0.59700  Biso   1.000  H
  H192     1.0000 0.06890  0.63877  0.52087  Biso   1.000  H
  H193     1.0000 0.24476  0.87665  0.49898  Biso   1.000  H
  H194     1.0000 0.51493  0.29036  0.85331  Biso   1.000  H
  H195     1.0000 0.86079  0.48067  0.27134  Biso   1.000  H
  H196     1.0000 0.74662  0.86741  0.01326  Biso   1.000  H
  H197     1.0000 0.98929  0.25770  0.64086  Biso   1.000  H
  H198     1.0000 0.34574  0.47286  0.24250  Biso   1.000  H
  H199     1.0000 0.22312  0.36970  0.52269  Biso   1.000  H
  H200     1.0000 0.95417  0.76266  0.88238  Biso   1.000  H
  H201     1.0000 0.63221  0.97472  0.28411  Biso   1.000  H
  H202     1.0000 0.72334  0.36207  0.01376  Biso   1.000  H
  H203     1.0000 0.45855  0.78478  0.67424  Biso   1.000  H
  H204     1.0000 0.12631  0.99788  0.24330  Biso   1.000  H
  H205     1.0000 0.73234  0.12130  0.50108  Biso   1.000  H
  H206     1.0000 0.47799  0.71623  0.17038  Biso   1.000  H
  H207     1.0000 0.11346  0.49102  0.75220  Biso   1.000  H
  H208     1.0000 0.22675  0.12823  0.02426  Biso   1.000  H
  H209     1.0000 0.96508  0.73479  0.38570  Biso   1.000  H
  H210     1.0000 0.62518  0.51899  0.78522  Biso   1.000  H
  H211     1.0000 0.74371  0.62696  0.51547  Biso   1.000  H
  H212     1.0000 0.02180  0.23190  0.13891  Biso   1.000  H
  H213     1.0000 0.34593  0.01457  0.73773  Biso   1.000  H
  H214     1.0000 0.24955  0.63383  0.01664  Biso   1.000  H
  H215     1.0000 0.49576  0.21892  0.35304  Biso   1.000  H
  H216     1.0000 0.85050  0.99533  0.77493  Biso   1.000  H
  H217     1.0000 0.22435  0.49279  0.37855  Biso   1.000  H
  H218     1.0000 0.36479  0.23824  0.50231  Biso   1.000  H
  H219     1.0000 0.47604  0.33488  0.23414  Biso   1.000  H
  H220     1.0000 0.72328  0.50209  0.15501  Biso   1.000  H
  H221     1.0000 0.85770  0.23369  0.99051  Biso   1.000  H
  H222     1.0000 0.01417  0.36629  0.27288  Biso   1.000  H
  H223     1.0000 0.25442  0.00292  0.37223  Biso   1.000  H
  H224     1.0000 0.11160  0.74133  0.52728  Biso   1.000  H
  H225     1.0000 0.97373  0.86844  0.24889  Biso   1.000  H
  H226     1.0000 0.75232  0.00407  0.14234  Biso   1.000  H
  H227     1.0000 0.62035  0.73398  0.01214  Biso   1.000  H
  H228     1.0000 0.48203  0.84006  0.29199  Biso   1.000  H
  H229     1.0000 0.74665  0.47445  0.64375  Biso   1.000  H
  H230     1.0000 0.61242  0.75995  0.54000  Biso   1.000  H
  H231     1.0000 0.47517  0.66564  0.79537  Biso   1.000  H
  H232     1.0000 0.25107  0.49584  0.86992  Biso   1.000  H
  H233     1.0000 0.11838  0.75710  0.01351  Biso   1.000  H
  H234     1.0000 0.97241  0.62627  0.75009  Biso   1.000  H
  H235     1.0000 0.71754  0.97627  0.65177  Biso   1.000  H
  H236     1.0000 0.85594  0.25866  0.50571  Biso   1.000  H
  H237     1.0000 0.97629  0.12533  0.77439  Biso   1.000  H
  H238     1.0000 0.22225  0.98190  0.87340  Biso   1.000  H
  H239     1.0000 0.35312  0.26490  0.99076  Biso   1.000  H
  H240     1.0000 0.49410  0.16423  0.73438  Biso   1.000  H
  H241     1.0000 0.71195  0.49775  0.86647  Biso   1.000  H
  H242     1.0000 0.82551  0.71581  0.53928  Biso   1.000  H
  H243     1.0000 0.47606  0.87704  0.75084  Biso   1.000  H
  H244     1.0000 0.20474  0.50400  0.66864  Biso   1.000  H
  H245     1.0000 0.33053  0.72223  0.04277  Biso   1.000  H
  H246     1.0000 1.00000  0.83751  0.79082  Biso   1.000  H
  H247     1.0000 0.76533  0.00055  0.85853  Biso   1.000  H
  H248     1.0000 0.65025  0.21577  0.50177  Biso   1.000  H
  H249     1.0000 0.97978  0.34190  0.73005  Biso   1.000  H
  H250     1.0000 0.26624  0.99966  0.65710  Biso   1.000  H
  H251     1.0000 0.14351  0.21694  0.00241  Biso   1.000  H
  H252     1.0000 0.47426  0.37773  0.77596  Biso   1.000  H
  H253     1.0000 0.26171  0.48018  0.15976  Biso   1.000  H
  H254     1.0000 0.14409  0.27965  0.49361  Biso   1.000  H
  H255     1.0000 0.49076  0.12806  0.27236  Biso   1.000  H
  H256     1.0000 0.76825  0.46782  0.35466  Biso   1.000  H
  H257     1.0000 0.63900  0.27661  0.99731  Biso   1.000  H
  H258     1.0000 0.00199  0.15378  0.23255  Biso   1.000  H
  H259     1.0000 0.21361  0.99231  0.15716  Biso   1.000  H
  H260     1.0000 0.32177  0.78097  0.51321  Biso   1.000  H
  H261     1.0000 0.97083  0.65395  0.29411  Biso   1.000  H
  H262     1.0000 0.71510  0.98257  0.36190  Biso   1.000  H
  H263     1.0000 0.82560  0.78022  0.03264  Biso   1.000  H
  H264     1.0000 0.48962  0.62588  0.25082  Biso   1.000  H
  H265     1.0000 0.99505  0.21583  0.85382  Biso   1.000  H
  H266     1.0000 0.83681  0.00700  0.23369  Biso   1.000  H
  H267     1.0000 0.20568  0.84049  0.01728  Biso   1.000  H
  H268     1.0000 0.49971  0.24113  0.64015  Biso   1.000  H
  H269     1.0000 0.33900  0.98230  0.28053  Biso   1.000  H
  H270     1.0000 0.70417  0.83446  0.51430  Biso   1.000  H
  H271     1.0000 0.46556  0.74150  0.88908  Biso   1.000  H
  H272     1.0000 0.63474  0.48355  0.24459  Biso   1.000  H
  H273     1.0000 0.26004  0.34868  0.99995  Biso   1.000  H
  H274     1.0000 0.96692  0.71694  0.66757  Biso   1.000  H
  H275     1.0000 0.14333  0.51483  0.28831  Biso   1.000  H
  H276     1.0000 0.76767  0.33676  0.49349  Biso   1.000  H
  H277     1.0000 0.98940  0.77425  0.16953  Biso   1.000  H
  H278     1.0000 0.13597  0.99530  0.78084  Biso   1.000  H
  H279     1.0000 0.76598  0.15466  0.99308  Biso   1.000  H
  H280     1.0000 0.46564  0.76027  0.38461  Biso   1.000  H
  H281     1.0000 0.63961  0.00968  0.73899  Biso   1.000  H
  H282     1.0000 0.27081  0.16309  0.51913  Biso   1.000  H
  H283     1.0000 0.48130  0.25526  0.14113  Biso   1.000  H
  H284     1.0000 0.34000  0.49444  0.78700  Biso   1.000  H
  H285     1.0000 0.70761  0.65276  0.99672  Biso   1.000  H
  H286     1.0000 0.01651  0.28179  0.35743  Biso   1.000  H
  H287     1.0000 0.82650  0.50197  0.73264  Biso   1.000  H
  H288     1.0000 0.20530  0.66233  0.51267  Biso   1.000  H
  H289     1.0000 0.09108  0.21577  0.00550  Biso   1.000  H
  H290     1.0000 0.98820  0.10205  0.23559  Biso   1.000  H
  H291     1.0000 0.21598  0.99454  0.10500  Biso   1.000  H
  H292     1.0000 0.59514  0.21492  0.49551  Biso   1.000  H
  H293     1.0000 0.48060  0.07560  0.27615  Biso   1.000  H
  H294     1.0000 0.71653  0.97994  0.41797  Biso   1.000  H
  H295     1.0000 0.38463  0.72495  0.04209  Biso   1.000  H
  H296     1.0000 0.50054  0.57443  0.24920  Biso   1.000  H
  H297     1.0000 0.26379  0.48225  0.10157  Biso   1.000  H
  H298     1.0000 0.88079  0.71830  0.53908  Biso   1.000  H
  H299     1.0000 0.97947  0.60226  0.29015  Biso   1.000  H
  H300     1.0000 0.76692  0.47598  0.40770  Biso   1.000  H
  H301     1.0000 0.88315  0.77610  0.03164  Biso   1.000  H
  H302     1.0000 0.01536  0.88966  0.79072  Biso   1.000  H
  H303     1.0000 0.76415  0.00024  0.91390  Biso   1.000  H
  H304     1.0000 0.37119  0.77691  0.53254  Biso   1.000  H
  H305     1.0000 0.48429  0.93035  0.74404  Biso   1.000  H
  H306     1.0000 0.26644  0.00760  0.60269  Biso   1.000  H
  H307     1.0000 0.58822  0.27629  0.99124  Biso   1.000  H
  H308     1.0000 0.46693  0.42765  0.78394  Biso   1.000  H
  H309     1.0000 0.71284  0.49550  0.92174  Biso   1.000  H
  H310     1.0000 0.09031  0.27723  0.49061  Biso   1.000  H
  H311     1.0000 0.96935  0.39234  0.73134  Biso   1.000  H
  H312     1.0000 0.20303  0.50739  0.61538  Biso   1.000  H
  H313     1.0000 0.21724  0.97618  0.92491  Biso   1.000  H
  H314     1.0000 0.91581  0.23045  0.99929  Biso   1.000  H
  H315     1.0000 0.97412  0.92112  0.24094  Biso   1.000  H
  H316     1.0000 0.71068  0.96906  0.59815  Biso   1.000  H
  H317     1.0000 0.41879  0.23080  0.49870  Biso   1.000  H
  H318     1.0000 0.49090  0.89007  0.28814  Biso   1.000  H
  H319     1.0000 0.24802  0.50196  0.92385  Biso   1.000  H
  H320     1.0000 0.56737  0.73150  0.02526  Biso   1.000  H
  H321     1.0000 0.48060  0.38712  0.23774  Biso   1.000  H
  H322     1.0000 0.75418  0.47540  0.58998  Biso   1.000  H
  H323     1.0000 0.05926  0.73149  0.52302  Biso   1.000  H
  H324     1.0000 0.00928  0.42110  0.27213  Biso   1.000  H
  H325     1.0000 0.75594  0.99918  0.09057  Biso   1.000  H
  H326     1.0000 0.06586  0.75603  0.01124  Biso   1.000  H
  H327     1.0000 0.98415  0.07042  0.77853  Biso   1.000  H
  H328     1.0000 0.25844  0.01763  0.42092  Biso   1.000  H
  H329     1.0000 0.55633  0.76309  0.53500  Biso   1.000  H
  H330     1.0000 0.48338  0.11223  0.73949  Biso   1.000  H
  H331     1.0000 0.72201  0.51107  0.10376  Biso   1.000  H
  H332     1.0000 0.40686  0.26968  0.99258  Biso   1.000  H
  H333     1.0000 0.48963  0.61220  0.79157  Biso   1.000  H
  H334     1.0000 0.22134  0.49669  0.43159  Biso   1.000  H
  H335     1.0000 0.90825  0.26200  0.51436  Biso   1.000  H
  H336     1.0000 0.97423  0.57251  0.74894  Biso   1.000  H
  H337     1.0000 0.00065  0.21469  0.91234  Biso   1.000  H
  H338     1.0000 0.88921  0.00229  0.23181  Biso   1.000  H
  H339     1.0000 0.20830  0.89215  0.01656  Biso   1.000  H
  H340     1.0000 0.50150  0.23377  0.58607  Biso   1.000  H
  H341     1.0000 0.39345  0.97995  0.28333  Biso   1.000  H
  H342     1.0000 0.70660  0.89164  0.50541  Biso   1.000  H
  H343     1.0000 0.46800  0.73463  0.94347  Biso   1.000  H
  H344     1.0000 0.58284  0.47871  0.24218  Biso   1.000  H
  H345     1.0000 0.26031  0.40166  0.01086  Biso   1.000  H
  H346     1.0000 0.96669  0.71802  0.61550  Biso   1.000  H
  H347     1.0000 0.09235  0.51787  0.28768  Biso   1.000  H
  H348     1.0000 0.76446  0.39182  0.48686  Biso   1.000  H
  H349     1.0000 0.98807  0.77110  0.11710  Biso   1.000  H
  H350     1.0000 0.08218  0.99055  0.78364  Biso   1.000  H
  H351     1.0000 0.76352  0.10040  0.99901  Biso   1.000  H
  H352     1.0000 0.46562  0.76422  0.43933  Biso   1.000  H
  H353     1.0000 0.58869  0.02361  0.74142  Biso   1.000  H
  H354     1.0000 0.26654  0.11036  0.52182  Biso   1.000  H
  H355     1.0000 0.49113  0.26163  0.08658  Biso   1.000  H
  H356     1.0000 0.39363  0.49758  0.78761  Biso   1.000  H
  H357     1.0000 0.71037  0.59687  0.99606  Biso   1.000  H
  H358     1.0000 0.00720  0.27786  0.40792  Biso   1.000  H
  H359     1.0000 0.87996  0.49510  0.73794  Biso   1.000  H
  H360     1.0000 0.20971  0.60670  0.51643  Biso   1.000  H
  H361     1.0000 0.97132  0.73117  0.43569  Biso   1.000  H
  H362     1.0000 0.40036  0.01796  0.73839  Biso   1.000  H
  H363     1.0000 0.71822  0.41733  0.01340  Biso   1.000  H
  H364     1.0000 0.47775  0.71993  0.12244  Biso   1.000  H
  H365     1.0000 0.90633  0.98896  0.77628  Biso   1.000  H
  H366     1.0000 0.21973  0.42367  0.52669  Biso   1.000  H
  H367     1.0000 0.49733  0.21954  0.40741  Biso   1.000  H
  H368     1.0000 0.06041  0.48165  0.74989  Biso   1.000  H
  H369     1.0000 0.74853  0.91838  0.00567  Biso   1.000  H
  H370     1.0000 0.01246  0.22470  0.08437  Biso   1.000  H
  H371     1.0000 0.57249  0.52909  0.79142  Biso   1.000  H
  H372     1.0000 0.25202  0.93276  0.49896  Biso   1.000  H
  H373     1.0000 0.99482  0.26230  0.58915  Biso   1.000  H
  H374     1.0000 0.57508  0.98406  0.28583  Biso   1.000  H
  H375     1.0000 0.25056  0.58028  0.01679  Biso   1.000  H
  H376     1.0000 0.51387  0.28376  0.90631  Biso   1.000  H
  H377     1.0000 0.06810  0.00269  0.24077  Biso   1.000  H
  H378     1.0000 0.74767  0.57687  0.50025  Biso   1.000  H
  H379     1.0000 0.46055  0.77748  0.62029  Biso   1.000  H
  H380     1.0000 0.91575  0.49549  0.27619  Biso   1.000  H
  H381     1.0000 0.22560  0.07525  0.02424  Biso   1.000  H
  H382     1.0000 0.94734  0.77264  0.93561  Biso   1.000  H
  H383     1.0000 0.40476  0.48032  0.24108  Biso   1.000  H
  H384     1.0000 0.72845  0.06893  0.50555  Biso   1.000  H
  H385     1.0000 0.16293  0.47410  0.30026  Biso   1.000  H
  H386     1.0000 0.27465  0.18503  0.48392  Biso   1.000  H
  H387     1.0000 0.44508  0.31028  0.22615  Biso   1.000  H
  H388     1.0000 0.66839  0.45317  0.23774  Biso   1.000  H
  H389     1.0000 0.82739  0.23789  0.02331  Biso   1.000  H
  H390     1.0000 0.98429  0.28055  0.32576  Biso   1.000  H
  H391     1.0000 0.25281  0.96799  0.34379  Biso   1.000  H
  H392     1.0000 0.13750  0.74117  0.49395  Biso   1.000  H
  H393     1.0000 0.95408  0.77486  0.19286  Biso   1.000  H
  H394     1.0000 0.75410  0.97432  0.17095  Biso   1.000  H
  H395     1.0000 0.70576  0.67805  0.03476  Biso   1.000  H
  H396     1.0000 0.50277  0.75753  0.35747  Biso   1.000  H
  H397     1.0000 0.74318  0.51141  0.67535  Biso   1.000  H
  H398     1.0000 0.70371  0.81120  0.54888  Biso   1.000  H
  H399     1.0000 0.50953  0.69370  0.80581  Biso   1.000  H
  H400     1.0000 0.30669  0.52615  0.78602  Biso   1.000  H
  H401     1.0000 0.19806  0.80373  0.97862  Biso   1.000  H
  H402     1.0000 0.00283  0.65895  0.73979  Biso   1.000  H
  H403     1.0000 0.70856  0.95034  0.69166  Biso   1.000  H
  H404     1.0000 0.77030  0.30646  0.53089  Biso   1.000  H
  H405     1.0000 0.96562  0.21523  0.83019  Biso   1.000  H
  H406     1.0000 0.22256  0.01388  0.84299  Biso   1.000  H
  H407     1.0000 0.26220  0.31785  0.97056  Biso   1.000  H
  H408     1.0000 0.46321  0.19345  0.72476  Biso   1.000  H
  H409     1.0000 0.26598  0.44966  0.19484  Biso   1.000  H
  H410     1.0000 0.17441  0.27745  0.52133  Biso   1.000  H
  H411     1.0000 0.45916  0.15484  0.27938  Biso   1.000  H
  H412     1.0000 0.82692  0.45021  0.26861  Biso   1.000  H
  H413     1.0000 0.67297  0.29468  0.96668  Biso   1.000  H
  H414     1.0000 0.98903  0.23797  0.17009  Biso   1.000  H
  H415     1.0000 0.15603  0.96351  0.23988  Biso   1.000  H
  H416     1.0000 0.29495  0.79120  0.48106  Biso   1.000  H
  H417     1.0000 0.94261  0.67904  0.29480  Biso   1.000  H
  H418     1.0000 0.71807  0.95172  0.32896  Biso   1.000  H
  H419     1.0000 0.79157  0.78856  0.06316  Biso   1.000  H
  H420     1.0000 0.45551  0.65257  0.25234  Biso   1.000  H
  H421     1.0000 0.71369  0.53056  0.83789  Biso   1.000  H
  H422     1.0000 0.78582  0.69650  0.56800  Biso   1.000  H
  H423     1.0000 0.50510  0.79435  0.69915  Biso   1.000  H
  H424     1.0000 0.15643  0.45553  0.73938  Biso   1.000  H
  H425     1.0000 0.30694  0.72101  0.00855  Biso   1.000  H
  H426     1.0000 0.99445  0.75872  0.85457  Biso   1.000  H
  H427     1.0000 0.77144  0.03329  0.82891  Biso   1.000  H
  H428     1.0000 0.73130  0.15595  0.52570  Biso   1.000  H
  H429     1.0000 0.93974  0.30506  0.71537  Biso   1.000  H
  H430     1.0000 0.32241  0.97057  0.73303  Biso   1.000  H
  H431     1.0000 0.23229  0.16184  0.98628  Biso   1.000  H
  H432     1.0000 0.47685  0.28216  0.83070  Biso   1.000  H
  H433     1.0000 0.27068  0.03491  0.69046  Biso   1.000  H
  H434     1.0000 0.71493  0.32372  0.04626  Biso   1.000  H
  H435     1.0000 0.99508  0.73801  0.35453  Biso   1.000  H
  H436     1.0000 0.82033  0.96383  0.78168  Biso   1.000  H
  H437     1.0000 0.22863  0.34683  0.47887  Biso   1.000  H
  H438     1.0000 0.50886  0.71501  0.20381  Biso   1.000  H
  H439     1.0000 0.18996  0.53662  0.70278  Biso   1.000  H
  H440     1.0000 0.75848  0.83001  0.98025  Biso   1.000  H
  H441     1.0000 0.51561  0.21601  0.32319  Biso   1.000  H
  H442     1.0000 0.65080  0.48212  0.78539  Biso   1.000  H
  H443     1.0000 0.24151  0.84567  0.54062  Biso   1.000  H
  H444     1.0000 0.03602  0.18137  0.23101  Biso   1.000  H
  H445     1.0000 0.65573  0.00869  0.28533  Biso   1.000  H
  H446     1.0000 0.24536  0.65937  0.05134  Biso   1.000  H
  H447     1.0000 0.01886  0.27021  0.67676  Biso   1.000  H
  H448     1.0000 0.20338  0.02597  0.18742  Biso   1.000  H
  H449     1.0000 0.75892  0.66456  0.48196  Biso   1.000  H
  H450     1.0000 0.50980  0.35203  0.77173  Biso   1.000  H
  H451     1.0000 0.78009  0.51318  0.32571  Biso   1.000  H
  H452     1.0000 0.16906  0.21470  0.04107  Biso   1.000  H
  H453     1.0000 0.44308  0.84742  0.75143  Biso   1.000  H
  H454     1.0000 0.31942  0.51388  0.23559  Biso   1.000  H
  H455     1.0000 0.67741  0.20873  0.47144  Biso   1.000  H
  H456     1.0000 0.95691  0.81588  0.79307  Biso   1.000  H
  H457     1.0000 0.63753  0.75501  0.50420  Biso   1.000  H
  H458     1.0000 0.43582  0.73632  0.84961  Biso   1.000  H
  H459     1.0000 0.80272  0.46208  0.73154  Biso   1.000  H
  H460     1.0000 0.14778  0.76817  0.05403  Biso   1.000  H
  H461     1.0000 0.92900  0.70844  0.70760  Biso   1.000  H
  H462     1.0000 0.25755  0.46582  0.84241  Biso   1.000  H
  H463     1.0000 0.83271  0.26139  0.47263  Biso   1.000  H
  H464     1.0000 0.01199  0.15731  0.76800  Biso   1.000  H
  H465     1.0000 0.67944  0.03735  0.72103  Biso   1.000  H
  H466     1.0000 0.32315  0.26669  0.02505  Biso   1.000  H
  H467     1.0000 0.52894  0.24120  0.67109  Biso   1.000  H
  H468     1.0000 0.16703  0.96105  0.78453  Biso   1.000  H
  H469     1.0000 0.33158  0.24979  0.52781  Biso   1.000  H
  H470     1.0000 0.50705  0.25670  0.17647  Biso   1.000  H
  H471     1.0000 0.23114  0.51814  0.34733  Biso   1.000  H
  H472     1.0000 0.77654  0.18685  0.96282  Biso   1.000  H
  H473     1.0000 0.04731  0.33513  0.27434  Biso   1.000  H
  H474     1.0000 0.71458  0.52388  0.19099  Biso   1.000  H
  H475     1.0000 0.20545  0.69344  0.54332  Biso   1.000  H
  H476     1.0000 0.99658  0.83728  0.25362  Biso   1.000  H
  H477     1.0000 0.31200  0.01725  0.28426  Biso   1.000  H
  H478     1.0000 0.65131  0.73371  0.98085  Biso   1.000  H
  H479     1.0000 0.45164  0.81246  0.29655  Biso   1.000  H
  H480     1.0000 0.80264  0.02559  0.23230  Biso   1.000  H
  N1       1.0000 0.68000  0.15949  0.50097  Biso   1.000  N
  N2       1.0000 0.48311  0.66041  0.20171  Biso   1.000  N
  N3       1.0000 0.14875  0.49891  0.70024  Biso   1.000  N
  N4       1.0000 0.17631  0.16188  0.01457  Biso   1.000  N
  N5       1.0000 0.97027  0.68322  0.34781  Biso   1.000  N
  N6       1.0000 0.65965  0.50618  0.83756  Biso   1.000  N
  N7       1.0000 0.79735  0.66244  0.52363  Biso   1.000  N
  N8       1.0000 0.00896  0.18281  0.17860  Biso   1.000  N
  N9       1.0000 0.31749  0.00604  0.68596  Biso   1.000  N
  N10      1.0000 0.30126  0.66616  0.03034  Biso   1.000  N
  N11      1.0000 0.49122  0.16290  0.32528  Biso   1.000  N
  N12      1.0000 0.81873  0.99632  0.82845  Biso   1.000  N
  N13      1.0000 0.29318  0.83935  0.50983  Biso   1.000  N
  N14      1.0000 0.49451  0.33999  0.82457  Biso   1.000  N
  N15      1.0000 0.82482  0.47589  0.32362  Biso   1.000  N
  N16      1.0000 0.79867  0.83237  0.02474  Biso   1.000  N
  N17      1.0000 0.98284  0.31147  0.67619  Biso   1.000  N
  N18      1.0000 0.31656  0.47952  0.19062  Biso   1.000  N
  N19      1.0000 0.17386  0.33581  0.50228  Biso   1.000  N
  N20      1.0000 0.97850  0.81071  0.84498  Biso   1.000  N
  N21      1.0000 0.66368  0.98094  0.33330  Biso   1.000  N
  N22      1.0000 0.67032  0.33027  0.01158  Biso   1.000  N
  N23      1.0000 0.47314  0.84081  0.69954  Biso   1.000  N
  N24      1.0000 0.15903  0.99440  0.19123  Biso   1.000  N
  N25      1.0000 0.79631  0.48468  0.67980  Biso   1.000  N
  N26      1.0000 0.64739  0.80831  0.52467  Biso   1.000  N
  N27      1.0000 0.47456  0.69267  0.85158  Biso   1.000  N
  N28      1.0000 0.30490  0.49667  0.83770  Biso   1.000  N
  N29      1.0000 0.15060  0.80964  0.01240  Biso   1.000  N
  N30      1.0000 0.96494  0.66248  0.69916  Biso   1.000  N
  N31      1.0000 0.66898  0.99502  0.68649  Biso   1.000  N
  N32      1.0000 0.82191  0.31210  0.49967  Biso   1.000  N
  N33      1.0000 0.99152  0.16145  0.82326  Biso   1.000  N
  N34      1.0000 0.16942  0.98605  0.83525  Biso   1.000  N
  N35      1.0000 0.31621  0.31715  0.99724  Biso   1.000  N
  N36      1.0000 0.49859  0.19113  0.67838  Biso   1.000  N
  N37      1.0000 0.17307  0.50581  0.34523  Biso   1.000  N
  N38      1.0000 0.32697  0.19107  0.50982  Biso   1.000  N
  N39      1.0000 0.47881  0.30691  0.17816  Biso   1.000  N
  N40      1.0000 0.66853  0.49277  0.18996  Biso   1.000  N
  N41      1.0000 0.82293  0.18433  0.99671  Biso   1.000  N
  N42      1.0000 0.01030  0.33343  0.32535  Biso   1.000  N
  N43      1.0000 0.30724  0.99145  0.33723  Biso   1.000  N
  N44      1.0000 0.15189  0.68984  0.51987  Biso   1.000  N
  N45      1.0000 0.97840  0.82938  0.19761  Biso   1.000  N
  N46      1.0000 0.80338  0.00295  0.17901  Biso   1.000  N
  N47      1.0000 0.65473  0.68197  0.00671  Biso   1.000  N
  N48      1.0000 0.47648  0.80974  0.34748  Biso   1.000  N
  O1       1.0000 0.32554  0.53338  0.01636  Biso   1.000  O
  O2       1.0000 0.00076  0.33802  0.54352  Biso   1.000  O
  O3       1.0000 0.52714  0.98668  0.35685  Biso   1.000  O
  O4       1.0000 0.82229  0.53019  0.50113  Biso   1.000  O
  O5       1.0000 0.49801  0.34832  0.96212  Biso   1.000  O
  O6       1.0000 0.02629  0.00854  0.16759  Biso   1.000  O
  O7       1.0000 0.15078  0.02808  0.01209  Biso   1.000  O
  O8       1.0000 0.47564  0.84762  0.56431  Biso   1.000  O
  O9       1.0000 0.95549  0.49814  0.35156  Biso   1.000  O
  O10      1.0000 0.65059  0.02615  0.50704  Biso   1.000  O
  O11      1.0000 0.97279  0.84135  0.97876  Biso   1.000  O
  O12      1.0000 0.45083  0.48580  0.16886  Biso   1.000  O
  O13      1.0000 0.64426  0.46192  0.01787  Biso   1.000  O
  O14      1.0000 0.97264  0.65664  0.48118  Biso   1.000  O
  O15      1.0000 0.45302  0.01009  0.66597  Biso   1.000  O
  O16      1.0000 0.14602  0.46882  0.52429  Biso   1.000  O
  O17      1.0000 0.48126  0.64962  0.06652  Biso   1.000  O
  O18      1.0000 0.94965  0.98662  0.85256  Biso   1.000  O
  O19      1.0000 0.82784  0.96491  0.00197  Biso   1.000  O
  O20      1.0000 0.49622  0.15060  0.46388  Biso   1.000  O
  O21      1.0000 0.01665  0.49395  0.67560  Biso   1.000  O
  O22      1.0000 0.33172  0.96965  0.50662  Biso   1.000  O
  O23      1.0000 0.99388  0.15040  0.04438  Biso   1.000  O
  O24      1.0000 0.52265  0.51531  0.86134  Biso   1.000  O
  O25      1.0000 0.94147  0.00960  0.16153  Biso   1.000  O
  O26      1.0000 0.13880  0.94392  0.01557  Biso   1.000  O
  O27      1.0000 0.99349  0.14475  0.96049  Biso   1.000  O
  O28      1.0000 0.44231  0.98761  0.35581  Biso   1.000  O
  O29      1.0000 0.64001  0.94231  0.50514  Biso   1.000  O
  O30      1.0000 0.50485  0.15784  0.54729  Biso   1.000  O
  O31      1.0000 0.53731  0.48736  0.16942  Biso   1.000  O
  O32      1.0000 0.33147  0.45138  0.00587  Biso   1.000  O
  O33      1.0000 0.47602  0.65919  0.98372  Biso   1.000  O
  O34      1.0000 0.03704  0.51692  0.35714  Biso   1.000  O
  O35      1.0000 0.83316  0.44602  0.49946  Biso   1.000  O
  O36      1.0000 0.97477  0.64820  0.56478  Biso   1.000  O
  O37      1.0000 0.03437  0.98682  0.85421  Biso   1.000  O
  O38      1.0000 0.83132  0.04787  0.00550  Biso   1.000  O
  O39      1.0000 0.98040  0.84270  0.06090  Biso   1.000  O
  O40      1.0000 0.53653  0.01840  0.67184  Biso   1.000  O
  O41      1.0000 0.33990  0.05537  0.51097  Biso   1.000  O
  O42      1.0000 0.47011  0.84275  0.48101  Biso   1.000  O
  O43      1.0000 0.43878  0.51431  0.85798  Biso   1.000  O
  O44      1.0000 0.63950  0.54825  0.01823  Biso   1.000  O
  O45      1.0000 0.48818  0.33856  0.04625  Biso   1.000  O
  O46      1.0000 0.93337  0.48449  0.66712  Biso   1.000  O
  O47      1.0000 0.14193  0.55235  0.51976  Biso   1.000  O
  O48      1.0000 0.99382  0.34828  0.45928  Biso   1.000  O
  O49      1.0000 0.98100  0.96455  0.16662  Biso   1.000  O
  O50      1.0000 0.14453  0.98856  0.97080  Biso   1.000  O
  O51      1.0000 0.95323  0.15414  0.00453  Biso   1.000  O
  O52      1.0000 0.48462  0.94601  0.35855  Biso   1.000  O
  O53      1.0000 0.64192  0.97969  0.55220  Biso   1.000  O
  O54      1.0000 0.46003  0.15640  0.51015  Biso   1.000  O
  O55      1.0000 0.49590  0.44143  0.16860  Biso   1.000  O
  O56      1.0000 0.32226  0.50159  0.97140  Biso   1.000  O
  O57      1.0000 0.52077  0.65593  0.02404  Biso   1.000  O
  O58      1.0000 0.00099  0.46580  0.34948  Biso   1.000  O
  O59      1.0000 0.82764  0.48690  0.54583  Biso   1.000  O
  O60      1.0000 0.01574  0.65706  0.52277  Biso   1.000  O
  O61      1.0000 0.99130  0.02656  0.85053  Biso   1.000  O
  O62      1.0000 0.83366  0.00260  0.04530  Biso   1.000  O
  O63      1.0000 0.01657  0.83180  0.01736  Biso   1.000  O
  O64      1.0000 0.49051  0.05751  0.66870  Biso   1.000  O
  O65      1.0000 0.33374  0.01891  0.46734  Biso   1.000  O
  O66      1.0000 0.51419  0.84227  0.52056  Biso   1.000  O
  O67      1.0000 0.47902  0.55753  0.85900  Biso   1.000  O
  O68      1.0000 0.64491  0.50474  0.05845  Biso   1.000  O
  O69      1.0000 0.45184  0.34359  0.00009  Biso   1.000  O
  O70      1.0000 0.96909  0.52886  0.67165  Biso   1.000  O
  O71      1.0000 0.14563  0.50869  0.47963  Biso   1.000  O
  O72      1.0000 0.95525  0.33859  0.51117  Biso   1.000  O
  O73      1.0000 0.98074  0.44593  0.66491  Biso   1.000  O
  O74      1.0000 0.64502  0.98429  0.46605  Biso   1.000  O
  O75      1.0000 0.43569  0.65641  0.02589  Biso   1.000  O
  O76      1.0000 0.48161  0.47143  0.85702  Biso   1.000  O
  O77      1.0000 0.14373  0.99116  0.05495  Biso   1.000  O
  O78      1.0000 0.93211  0.65118  0.52686  Biso   1.000  O
  O79      1.0000 0.49998  0.97293  0.67170  Biso   1.000  O
  O80      1.0000 0.83029  0.49177  0.46092  Biso   1.000  O
  O81      1.0000 0.03759  0.14859  0.00064  Biso   1.000  O
  O82      1.0000 0.99835  0.94355  0.85692  Biso   1.000  O
  O83      1.0000 0.33491  0.48436  0.05296  Biso   1.000  O
  O84      1.0000 0.54356  0.14806  0.50407  Biso   1.000  O
  O85      1.0000 0.98749  0.54914  0.35787  Biso   1.000  O
  O86      1.0000 0.33855  0.01233  0.55295  Biso   1.000  O
  O87      1.0000 0.53550  0.34538  0.00733  Biso   1.000  O
  O88      1.0000 0.49374  0.52588  0.17455  Biso   1.000  O
  O89      1.0000 0.83638  0.00602  0.96236  Biso   1.000  O
  O90      1.0000 0.03728  0.34521  0.49776  Biso   1.000  O
  O91      1.0000 0.48513  0.02958  0.35140  Biso   1.000  O
  O92      1.0000 0.13656  0.51224  0.56368  Biso   1.000  O
  O93      1.0000 0.93510  0.84105  0.02061  Biso   1.000  O
  O94      1.0000 0.98445  0.05009  0.16326  Biso   1.000  O
  O95      1.0000 0.64171  0.50241  0.97530  Biso   1.000  O
  O96      1.0000 0.42656  0.84526  0.53017  Biso   1.000  O
  O97      1.0000 0.46233  0.20633  0.50479  Biso   1.000  O
  O98      1.0000 0.49415  0.43835  0.21768  Biso   1.000  O
  O99      1.0000 0.19493  0.50975  0.48209  Biso   1.000  O
  O100     1.0000 0.95856  0.20263  0.00183  Biso   1.000  O
  O101     1.0000 0.00837  0.46999  0.30169  Biso   1.000  O
  O102     1.0000 0.69212  0.51127  0.05362  Biso   1.000  O
  O103     1.0000 0.01524  0.70464  0.52790  Biso   1.000  O
  O104     1.0000 0.97737  0.96668  0.21456  Biso   1.000  O
  O105     1.0000 0.28581  0.02325  0.47085  Biso   1.000  O
  O106     1.0000 0.51850  0.70495  0.02189  Biso   1.000  O
  O107     1.0000 0.48522  0.94434  0.30829  Biso   1.000  O
  O108     1.0000 0.78510  0.01105  0.04623  Biso   1.000  O
  O109     1.0000 0.50812  0.79412  0.52327  Biso   1.000  O
  O110     1.0000 0.48049  0.56079  0.80991  Biso   1.000  O
  O111     1.0000 0.77879  0.47767  0.54235  Biso   1.000  O
  O112     1.0000 0.01318  0.78392  0.01422  Biso   1.000  O
  O113     1.0000 0.96988  0.52339  0.72035  Biso   1.000  O
  O114     1.0000 0.27477  0.50198  0.97390  Biso   1.000  O
  O115     1.0000 0.95970  0.29161  0.50876  Biso   1.000  O
  O116     1.0000 0.99540  0.02577  0.80270  Biso   1.000  O
  O117     1.0000 0.68981  0.97988  0.55257  Biso   1.000  O
  O118     1.0000 0.45281  0.29511  0.99930  Biso   1.000  O
  O119     1.0000 0.49149  0.05775  0.71792  Biso   1.000  O
  O120     1.0000 0.19302  0.98065  0.97042  Biso   1.000  O
  O121     1.0000 0.01168  0.48064  0.72245  Biso   1.000  O
  O122     1.0000 0.70058  0.02219  0.50887  Biso   1.000  O
  O123     1.0000 0.47985  0.69834  0.06855  Biso   1.000  O
  O124     1.0000 0.52358  0.51586  0.81286  Biso   1.000  O
  O125     1.0000 0.19920  0.02568  0.01080  Biso   1.000  O
  O126     1.0000 0.97409  0.70444  0.48362  Biso   1.000  O
  O127     1.0000 0.45339  0.01184  0.71568  Biso   1.000  O
  O128     1.0000 0.77406  0.52505  0.50318  Biso   1.000  O
  O129     1.0000 0.99937  0.19931  0.04067  Biso   1.000  O
  O130     1.0000 0.95391  0.98370  0.80296  Biso   1.000  O
  O131     1.0000 0.27546  0.53373  0.02424  Biso   1.000  O
  O132     1.0000 0.50401  0.19883  0.45845  Biso   1.000  O
  O133     1.0000 0.95888  0.49993  0.30324  Biso   1.000  O
  O134     1.0000 0.28308  0.97718  0.50648  Biso   1.000  O
  O135     1.0000 0.49378  0.29827  0.95586  Biso   1.000  O
  O136     1.0000 0.45337  0.48184  0.21667  Biso   1.000  O
  O137     1.0000 0.77863  0.96818  0.00744  Biso   1.000  O
  O138     1.0000 0.00448  0.28929  0.53991  Biso   1.000  O
  O139     1.0000 0.52765  0.98765  0.30938  Biso   1.000  O
  O140     1.0000 0.19401  0.47094  0.52652  Biso   1.000  O
  O141     1.0000 0.96879  0.79325  0.97827  Biso   1.000  O
  O142     1.0000 0.02167  0.00718  0.21584  Biso   1.000  O
  O143     1.0000 0.69406  0.46605  0.01453  Biso   1.000  O
  O144     1.0000 0.47026  0.79827  0.56905  Biso   1.000  O
  O145     1.0000 0.53373  0.47731  0.21796  Biso   1.000  O
  O146     1.0000 0.19073  0.55430  0.51989  Biso   1.000  O
  O147     1.0000 0.50882  0.20617  0.54209  Biso   1.000  O
  O148     1.0000 0.03995  0.51782  0.30862  Biso   1.000  O
  O149     1.0000 0.68777  0.55081  0.00795  Biso   1.000  O
  O150     1.0000 0.99831  0.19306  0.95873  Biso   1.000  O
  O151     1.0000 0.93839  0.00914  0.21117  Biso   1.000  O
  O152     1.0000 0.29140  0.05756  0.51904  Biso   1.000  O
  O153     1.0000 0.96752  0.69708  0.56659  Biso   1.000  O
  O154     1.0000 0.44425  0.98808  0.30554  Biso   1.000  O
  O155     1.0000 0.78320  0.05217  0.00417  Biso   1.000  O
  O156     1.0000 0.46784  0.70643  0.98652  Biso   1.000  O
  O157     1.0000 0.43800  0.51812  0.81059  Biso   1.000  O
  O158     1.0000 0.78289  0.44074  0.49747  Biso   1.000  O
  O159     1.0000 0.46782  0.79471  0.48529  Biso   1.000  O
  O160     1.0000 0.92798  0.48370  0.71490  Biso   1.000  O
  O161     1.0000 0.28225  0.44921  0.00802  Biso   1.000  O
  O162     1.0000 0.97238  0.79327  0.06224  Biso   1.000  O
  O163     1.0000 0.03642  0.98200  0.80680  Biso   1.000  O
  O164     1.0000 0.68805  0.93775  0.50740  Biso   1.000  O
  O165     1.0000 0.99374  0.30004  0.45954  Biso   1.000  O
  O166     1.0000 0.53744  0.01783  0.71973  Biso   1.000  O
  O167     1.0000 0.18855  0.94182  0.01654  Biso   1.000  O
  O168     1.0000 0.49216  0.29028  0.03959  Biso   1.000  O
  O169     1.0000 0.98107  0.04985  0.21210  Biso   1.000  O
  O170     1.0000 0.19232  0.98664  0.05400  Biso   1.000  O
  O171     1.0000 0.04354  0.19682  0.99930  Biso   1.000  O
  O172     1.0000 0.48804  0.02727  0.30473  Biso   1.000  O
  O173     1.0000 0.69362  0.97593  0.46653  Biso   1.000  O
  O174     1.0000 0.54647  0.19574  0.49896  Biso   1.000  O
  O175     1.0000 0.49369  0.52174  0.22161  Biso   1.000  O
  O176     1.0000 0.28507  0.48341  0.05681  Biso   1.000  O
  O177     1.0000 0.43556  0.70396  0.03493  Biso   1.000  O
  O178     1.0000 0.98750  0.55153  0.30907  Biso   1.000  O
  O179     1.0000 0.78384  0.48378  0.45585  Biso   1.000  O
  O180     1.0000 0.92866  0.70017  0.52281  Biso   1.000  O
  O181     1.0000 0.99455  0.94207  0.80786  Biso   1.000  O
  O182     1.0000 0.78834  0.00733  0.96353  Biso   1.000  O
  O183     1.0000 0.92948  0.79249  0.02350  Biso   1.000  O
  O184     1.0000 0.49662  0.97423  0.71936  Biso   1.000  O
  O185     1.0000 0.29051  0.01323  0.55489  Biso   1.000  O
  O186     1.0000 0.42450  0.79605  0.53158  Biso   1.000  O
  O187     1.0000 0.47700  0.47572  0.80902  Biso   1.000  O
  O188     1.0000 0.69002  0.50241  0.97115  Biso   1.000  O
  O189     1.0000 0.53611  0.29682  0.99787  Biso   1.000  O
  O190     1.0000 0.97139  0.44115  0.71281  Biso   1.000  O
  O191     1.0000 0.18465  0.51156  0.56585  Biso   1.000  O
  O192     1.0000 0.04317  0.29751  0.49653  Biso   1.000  O
