data_image0
_cell_length_a       46.823
_cell_length_b       47.0212
_cell_length_c       46.6087
_cell_angle_alpha    90
_cell_angle_beta     90
_cell_angle_gamma    90

_symmetry_space_group_name_H-M    "P 1"
_symmetry_int_tables_number       1

loop_
  _symmetry_equiv_pos_as_xyz
  'x, y, z'

loop_
  _atom_site_label
  _atom_site_occupancy
  _atom_site_fract_x
  _atom_site_fract_y
  _atom_site_fract_z
  _atom_site_thermal_displace_type
  _atom_site_B_iso_or_equiv
  _atom_site_type_symbol
  C1       1.0000 0.57464  0.98111  0.32607  Biso   1.000  C
  C2       1.0000 0.34013  0.54086  0.00376  Biso   1.000  C
  C3       1.0000 0.02781  0.30552  0.54615  Biso   1.000  C
  C4       1.0000 0.07808  0.99584  0.18036  Biso   1.000  C
  C5       1.0000 0.84681  0.54489  0.50258  Biso   1.000  C
  C6       1.0000 0.53285  0.29823  0.94720  Biso   1.000  C
  C7       1.0000 0.97971  0.49942  0.31561  Biso   1.000  C
  C8       1.0000 0.20348  0.04341  0.00348  Biso   1.000  C
  C9       1.0000 0.52682  0.80617  0.55803  Biso   1.000  C
  C10      1.0000 0.47620  0.48172  0.18820  Biso   1.000  C
  C11      1.0000 0.71198  0.04615  0.49780  Biso   1.000  C
  C12      1.0000 0.02355  0.80323  0.94527  Biso   1.000  C
  C13      1.0000 0.48334  0.98205  0.67706  Biso   1.000  C
  C14      1.0000 0.70466  0.43541  0.00133  Biso   1.000  C
  C15      1.0000 0.01777  0.67305  0.45207  Biso   1.000  C
  C16      1.0000 0.97509  0.98049  0.81763  Biso   1.000  C
  C17      1.0000 0.20855  0.43124  0.51224  Biso   1.000  C
  C18      1.0000 0.51990  0.66100  0.05645  Biso   1.000  C
  C19      1.0000 0.07748  0.48072  0.68211  Biso   1.000  C
  C20      1.0000 0.84182  0.93661  0.00246  Biso   1.000  C
  C21      1.0000 0.53766  0.16814  0.44472  Biso   1.000  C
  C22      1.0000 0.57886  0.48250  0.82266  Biso   1.000  C
  C23      1.0000 0.35258  0.92933  0.50901  Biso   1.000  C
  C24      1.0000 0.02398  0.16967  0.05014  Biso   1.000  C
  C25      1.0000 0.35339  0.03947  0.50475  Biso   1.000  C
  C26      1.0000 0.52807  0.30832  0.05658  Biso   1.000  C
  C27      1.0000 0.08759  0.49089  0.32309  Biso   1.000  C
  C28      1.0000 0.84517  0.04391  0.00953  Biso   1.000  C
  C29      1.0000 0.03404  0.30893  0.43725  Biso   1.000  C
  C30      1.0000 0.58340  0.49183  0.18458  Biso   1.000  C
  C31      1.0000 0.21200  0.53891  0.50491  Biso   1.000  C
  C32      1.0000 0.01939  0.80678  0.05458  Biso   1.000  C
  C33      1.0000 0.46805  0.98294  0.32536  Biso   1.000  C
  C34      1.0000 0.70618  0.54408  0.00337  Biso   1.000  C
  C35      1.0000 0.53460  0.79918  0.44908  Biso   1.000  C
  C36      1.0000 0.97106  0.97900  0.17988  Biso   1.000  C
  C37      1.0000 0.71057  0.93672  0.50353  Biso   1.000  C
  C38      1.0000 0.51625  0.66859  0.94802  Biso   1.000  C
  C39      1.0000 0.96754  0.48134  0.67634  Biso   1.000  C
  C40      1.0000 0.20254  0.93216  0.00132  Biso   1.000  C
  C41      1.0000 0.04280  0.66842  0.55647  Biso   1.000  C
  C42      1.0000 0.47060  0.48974  0.82579  Biso   1.000  C
  C43      1.0000 0.85172  0.43846  0.48606  Biso   1.000  C
  C44      1.0000 0.02718  0.16877  0.94001  Biso   1.000  C
  C45      1.0000 0.59204  0.99010  0.67969  Biso   1.000  C
  C46      1.0000 0.34937  0.43438  0.02223  Biso   1.000  C
  C47      1.0000 0.52607  0.16976  0.55322  Biso   1.000  C
  C48      1.0000 0.08236  0.98728  0.81191  Biso   1.000  C
  C49      1.0000 0.02119  0.03995  0.81275  Biso   1.000  C
  C50      1.0000 0.84077  0.98778  0.06052  Biso   1.000  C
  C51      1.0000 0.07507  0.80469  0.00285  Biso   1.000  C
  C52      1.0000 0.53003  0.03986  0.67977  Biso   1.000  C
  C53      1.0000 0.34865  0.98589  0.45406  Biso   1.000  C
  C54      1.0000 0.58686  0.80940  0.50822  Biso   1.000  C
  C55      1.0000 0.52792  0.53903  0.82183  Biso   1.000  C
  C56      1.0000 0.70702  0.48942  0.05591  Biso   1.000  C
  C57      1.0000 0.47474  0.30493  0.00209  Biso   1.000  C
  C58      1.0000 0.02184  0.53708  0.67679  Biso   1.000  C
  C59      1.0000 0.20886  0.48440  0.45445  Biso   1.000  C
  C60      1.0000 0.97759  0.30890  0.48984  Biso   1.000  C
  C61      1.0000 0.03496  0.93452  0.17787  Biso   1.000  C
  C62      1.0000 0.20663  0.99016  0.94504  Biso   1.000  C
  C63      1.0000 0.96958  0.17229  0.98947  Biso   1.000  C
  C64      1.0000 0.52151  0.92807  0.32528  Biso   1.000  C
  C65      1.0000 0.71912  0.99167  0.55458  Biso   1.000  C
  C66      1.0000 0.47779  0.17030  0.49108  Biso   1.000  C
  C67      1.0000 0.53341  0.43283  0.18687  Biso   1.000  C
  C68      1.0000 0.34195  0.47826  0.95841  Biso   1.000  C
  C69      1.0000 0.57596  0.66599  0.99660  Biso   1.000  C
  C70      1.0000 0.02465  0.44064  0.31656  Biso   1.000  C
  C71      1.0000 0.84694  0.48017  0.54980  Biso   1.000  C
  C72      1.0000 0.08235  0.66658  0.49485  Biso   1.000  C
  C73      1.0000 0.04057  0.54790  0.32119  Biso   1.000  C
  C74      1.0000 0.35538  0.98154  0.55895  Biso   1.000  C
  C75      1.0000 0.58168  0.30396  0.00935  Biso   1.000  C
  C76      1.0000 0.52321  0.53979  0.18756  Biso   1.000  C
  C77      1.0000 0.84698  0.99226  0.95188  Biso   1.000  C
  C78      1.0000 0.08436  0.30667  0.49246  Biso   1.000  C
  C79      1.0000 0.52378  0.04104  0.32254  Biso   1.000  C
  C80      1.0000 0.20869  0.48947  0.56326  Biso   1.000  C
  C81      1.0000 0.96738  0.80770  0.99594  Biso   1.000  C
  C82      1.0000 0.01767  0.04173  0.17627  Biso   1.000  C
  C83      1.0000 0.70661  0.49051  0.94793  Biso   1.000  C
  C84      1.0000 0.47703  0.80281  0.49952  Biso   1.000  C
  C85      1.0000 0.01829  0.42863  0.67832  Biso   1.000  C
  C86      1.0000 0.70742  0.98632  0.44643  Biso   1.000  C
  C87      1.0000 0.46725  0.66386  0.00427  Biso   1.000  C
  C88      1.0000 0.52064  0.43214  0.82361  Biso   1.000  C
  C89      1.0000 0.20627  0.98899  0.05530  Biso   1.000  C
  C90      1.0000 0.97548  0.66740  0.51842  Biso   1.000  C
  C91      1.0000 0.54515  0.93233  0.68120  Biso   1.000  C
  C92      1.0000 0.85093  0.50093  0.44277  Biso   1.000  C
  C93      1.0000 0.07768  0.17009  0.99812  Biso   1.000  C
  C94      1.0000 0.03235  0.93088  0.81582  Biso   1.000  C
  C95      1.0000 0.34464  0.49736  0.06287  Biso   1.000  C
  C96      1.0000 0.58715  0.16931  0.50203  Biso   1.000  C
  C97      1.0000 0.71269  0.07856  0.49769  Biso   1.000  C
  C98      1.0000 0.50902  0.65932  0.08560  Biso   1.000  C
  C99      1.0000 0.11008  0.48207  0.68433  Biso   1.000  C
  C100     1.0000 0.20498  0.07445  0.00414  Biso   1.000  C
  C101     1.0000 0.02052  0.67332  0.42081  Biso   1.000  C
  C102     1.0000 0.61286  0.48183  0.82019  Biso   1.000  C
  C103     1.0000 0.84587  0.57685  0.50751  Biso   1.000  C
  C104     1.0000 0.02275  0.17071  0.08281  Biso   1.000  C
  C105     1.0000 0.45064  0.98485  0.67922  Biso   1.000  C
  C106     1.0000 0.33921  0.57220  0.00285  Biso   1.000  C
  C107     1.0000 0.54614  0.16773  0.41335  Biso   1.000  C
  C108     1.0000 0.94288  0.98499  0.81929  Biso   1.000  C
  C109     1.0000 0.35141  0.89706  0.50597  Biso   1.000  C
  C110     1.0000 0.53431  0.30070  0.91505  Biso   1.000  C
  C111     1.0000 0.94677  0.50152  0.31399  Biso   1.000  C
  C112     1.0000 0.84120  0.90546  0.99964  Biso   1.000  C
  C113     1.0000 0.02914  0.30418  0.57784  Biso   1.000  C
  C114     1.0000 0.44383  0.48305  0.18758  Biso   1.000  C
  C115     1.0000 0.20911  0.39941  0.51086  Biso   1.000  C
  C116     1.0000 0.02180  0.80392  0.91325  Biso   1.000  C
  C117     1.0000 0.60580  0.97435  0.32600  Biso   1.000  C
  C118     1.0000 0.70578  0.40454  0.00096  Biso   1.000  C
  C119     1.0000 0.52369  0.80623  0.58954  Biso   1.000  C
  C120     1.0000 0.11003  0.99763  0.18156  Biso   1.000  C
  C121     1.0000 0.84208  0.98497  0.09166  Biso   1.000  C
  C122     1.0000 0.10606  0.80587  0.99799  Biso   1.000  C
  C123     1.0000 0.01968  0.07300  0.81288  Biso   1.000  C
  C124     1.0000 0.34568  0.98914  0.42365  Biso   1.000  C
  C125     1.0000 0.61813  0.81047  0.51147  Biso   1.000  C
  C126     1.0000 0.52961  0.07226  0.68127  Biso   1.000  C
  C127     1.0000 0.70611  0.49485  0.08773  Biso   1.000  C
  C128     1.0000 0.44236  0.30334  0.00413  Biso   1.000  C
  C129     1.0000 0.52879  0.57203  0.82247  Biso   1.000  C
  C130     1.0000 0.21047  0.49243  0.42370  Biso   1.000  C
  C131     1.0000 0.94432  0.30926  0.48809  Biso   1.000  C
  C132     1.0000 0.01905  0.56764  0.67856  Biso   1.000  C
  C133     1.0000 0.20820  0.98894  0.91196  Biso   1.000  C
  C134     1.0000 0.93776  0.17103  0.99078  Biso   1.000  C
  C135     1.0000 0.04329  0.90343  0.17769  Biso   1.000  C
  C136     1.0000 0.71858  0.98900  0.58612  Biso   1.000  C
  C137     1.0000 0.44724  0.16938  0.48292  Biso   1.000  C
  C138     1.0000 0.52397  0.89602  0.32270  Biso   1.000  C
  C139     1.0000 0.34253  0.47773  0.92602  Biso   1.000  C
  C140     1.0000 0.60834  0.66640  0.99300  Biso   1.000  C
  C141     1.0000 0.53328  0.40137  0.18607  Biso   1.000  C
  C142     1.0000 0.84727  0.47266  0.58060  Biso   1.000  C
  C143     1.0000 0.11458  0.66495  0.49498  Biso   1.000  C
  C144     1.0000 0.01932  0.40779  0.31382  Biso   1.000  C
  C145     1.0000 0.34732  0.50445  0.09462  Biso   1.000  C
  C146     1.0000 0.11698  0.30771  0.49320  Biso   1.000  C
  C147     1.0000 0.52853  0.07338  0.32007  Biso   1.000  C
  C148     1.0000 0.85178  0.50019  0.41078  Biso   1.000  C
  C149     1.0000 0.61384  0.30673  0.00891  Biso   1.000  C
  C150     1.0000 0.01856  0.07447  0.17738  Biso   1.000  C
  C151     1.0000 0.20601  0.98979  0.08907  Biso   1.000  C
  C152     1.0000 0.44421  0.80147  0.50382  Biso   1.000  C
  C153     1.0000 0.04087  0.57936  0.32369  Biso   1.000  C
  C154     1.0000 0.70459  0.98105  0.41547  Biso   1.000  C
  C155     1.0000 0.93653  0.81099  0.99282  Biso   1.000  C
  C156     1.0000 0.51956  0.57101  0.18672  Biso   1.000  C
  C157     1.0000 0.70622  0.49173  0.91472  Biso   1.000  C
  C158     1.0000 0.94294  0.66890  0.51983  Biso   1.000  C
  C159     1.0000 0.54346  0.89985  0.68347  Biso   1.000  C
  C160     1.0000 0.20666  0.49223  0.59480  Biso   1.000  C
  C161     1.0000 0.43463  0.66429  0.00850  Biso   1.000  C
  C162     1.0000 0.02968  0.89820  0.81757  Biso   1.000  C
  C163     1.0000 0.84921  0.99105  0.92051  Biso   1.000  C
  C164     1.0000 0.61869  0.17078  0.50092  Biso   1.000  C
  C165     1.0000 0.01797  0.39603  0.67730  Biso   1.000  C
  C166     1.0000 0.35514  0.97541  0.59034  Biso   1.000  C
  C167     1.0000 0.11006  0.17013  0.00067  Biso   1.000  C
  C168     1.0000 0.51795  0.40002  0.82290  Biso   1.000  C
  C169     1.0000 0.02570  0.80751  0.08550  Biso   1.000  C
  C170     1.0000 0.11515  0.98194  0.81335  Biso   1.000  C
  C171     1.0000 0.84719  0.07589  0.01294  Biso   1.000  C
  C172     1.0000 0.53038  0.79824  0.41590  Biso   1.000  C
  C173     1.0000 0.62330  0.99452  0.67944  Biso   1.000  C
  C174     1.0000 0.35314  0.07114  0.49941  Biso   1.000  C
  C175     1.0000 0.52870  0.30813  0.08846  Biso   1.000  C
  C176     1.0000 0.43806  0.48702  0.82835  Biso   1.000  C
  C177     1.0000 0.70501  0.57578  0.99976  Biso   1.000  C
  C178     1.0000 0.03517  0.31077  0.40538  Biso   1.000  C
  C179     1.0000 0.93539  0.47712  0.67938  Biso   1.000  C
  C180     1.0000 0.21266  0.57121  0.50540  Biso   1.000  C
  C181     1.0000 0.02485  0.16936  0.90737  Biso   1.000  C
  C182     1.0000 0.93800  0.97699  0.18051  Biso   1.000  C
  C183     1.0000 0.20252  0.90050  0.00166  Biso   1.000  C
  C184     1.0000 0.52791  0.16869  0.58544  Biso   1.000  C
  C185     1.0000 0.43653  0.98926  0.32617  Biso   1.000  C
  C186     1.0000 0.71047  0.90508  0.50790  Biso   1.000  C
  C187     1.0000 0.51826  0.66772  0.91637  Biso   1.000  C
  C188     1.0000 0.61547  0.49788  0.18486  Biso   1.000  C
  C189     1.0000 0.35219  0.40139  0.02252  Biso   1.000  C
  C190     1.0000 0.04751  0.66600  0.58998  Biso   1.000  C
  C191     1.0000 0.12210  0.49263  0.32475  Biso   1.000  C
  C192     1.0000 0.85236  0.40710  0.48091  Biso   1.000  C
  C193     1.0000 0.87686  0.99211  0.90477  Biso   1.000  C
  C194     1.0000 0.92089  0.83839  0.99728  Biso   1.000  C
  C195     1.0000 0.02502  0.88277  0.84364  Biso   1.000  C
  C196     1.0000 0.38178  0.97621  0.60666  Biso   1.000  C
  C197     1.0000 0.42773  0.82838  0.50562  Biso   1.000  C
  C198     1.0000 0.53870  0.88531  0.65621  Biso   1.000  C
  C199     1.0000 0.68029  0.48613  0.89780  Biso   1.000  C
  C200     1.0000 0.62985  0.33479  0.00657  Biso   1.000  C
  C201     1.0000 0.52095  0.38249  0.84966  Biso   1.000  C
  C202     1.0000 0.17904  0.48856  0.61058  Biso   1.000  C
  C203     1.0000 0.13142  0.33338  0.49831  Biso   1.000  C
  C204     1.0000 0.02113  0.38157  0.64997  Biso   1.000  C
  C205     1.0000 0.17898  0.98767  0.10509  Biso   1.000  C
  C206     1.0000 0.12677  0.14242  0.00163  Biso   1.000  C
  C207     1.0000 0.01708  0.09272  0.15009  Biso   1.000  C
  C208     1.0000 0.67619  0.97901  0.40119  Biso   1.000  C
  C209     1.0000 0.63572  0.14398  0.49992  Biso   1.000  C
  C210     1.0000 0.53621  0.08843  0.34537  Biso   1.000  C
  C211     1.0000 0.37459  0.50169  0.10949  Biso   1.000  C
  C212     1.0000 0.41799  0.63889  0.00550  Biso   1.000  C
  C213     1.0000 0.51589  0.58401  0.15868  Biso   1.000  C
  C214     1.0000 0.87865  0.50386  0.39455  Biso   1.000  C
  C215     1.0000 0.92708  0.64169  0.51538  Biso   1.000  C
  C216     1.0000 0.03753  0.59482  0.35157  Biso   1.000  C
  C217     1.0000 0.13075  0.98027  0.84070  Biso   1.000  C
  C218     1.0000 0.87332  0.09227  0.00970  Biso   1.000  C
  C219     1.0000 0.02948  0.83436  0.10051  Biso   1.000  C
  C220     1.0000 0.64044  0.99330  0.65375  Biso   1.000  C
  C221     1.0000 0.37781  0.08936  0.49323  Biso   1.000  C
  C222     1.0000 0.53030  0.82509  0.40050  Biso   1.000  C
  C223     1.0000 0.42352  0.48880  0.85579  Biso   1.000  C
  C224     1.0000 0.67639  0.59087  0.00020  Biso   1.000  C
  C225     1.0000 0.53109  0.33530  0.10444  Biso   1.000  C
  C226     1.0000 0.92049  0.47339  0.65124  Biso   1.000  C
  C227     1.0000 0.18420  0.58645  0.50371  Biso   1.000  C
  C228     1.0000 0.03178  0.33839  0.39025  Biso   1.000  C
  C229     1.0000 0.92104  0.98188  0.15503  Biso   1.000  C
  C230     1.0000 0.17409  0.88492  0.99973  Biso   1.000  C
  C231     1.0000 0.02386  0.14259  0.89095  Biso   1.000  C
  C232     1.0000 0.42073  0.99289  0.35265  Biso   1.000  C
  C233     1.0000 0.68409  0.88857  0.50759  Biso   1.000  C
  C234     1.0000 0.52804  0.14133  0.60045  Biso   1.000  C
  C235     1.0000 0.62900  0.50074  0.15762  Biso   1.000  C
  C236     1.0000 0.37752  0.38458  0.01368  Biso   1.000  C
  C237     1.0000 0.52334  0.63971  0.90209  Biso   1.000  C
  C238     1.0000 0.13840  0.48867  0.35171  Biso   1.000  C
  C239     1.0000 0.87905  0.39081  0.48595  Biso   1.000  C
  C240     1.0000 0.04487  0.63821  0.60548  Biso   1.000  C
  C241     1.0000 0.62946  0.48168  0.84664  Biso   1.000  C
  C242     1.0000 0.87311  0.59179  0.51105  Biso   1.000  C
  C243     1.0000 0.52576  0.83392  0.60523  Biso   1.000  C
  C244     1.0000 0.12705  0.48657  0.65890  Biso   1.000  C
  C245     1.0000 0.36604  0.58761  0.00507  Biso   1.000  C
  C246     1.0000 0.02365  0.83155  0.89845  Biso   1.000  C
  C247     1.0000 0.92736  0.98335  0.84871  Biso   1.000  C
  C248     1.0000 0.68582  0.09357  0.50033  Biso   1.000  C
  C249     1.0000 0.02830  0.33002  0.59384  Biso   1.000  C
  C250     1.0000 0.43219  0.98016  0.65434  Biso   1.000  C
  C251     1.0000 0.17863  0.09088  0.99913  Biso   1.000  C
  C252     1.0000 0.53203  0.32726  0.89893  Biso   1.000  C
  C253     1.0000 0.42779  0.48797  0.16118  Biso   1.000  C
  C254     1.0000 0.18221  0.38167  0.50549  Biso   1.000  C
  C255     1.0000 0.54477  0.13976  0.39809  Biso   1.000  C
  C256     1.0000 0.93058  0.50460  0.34093  Biso   1.000  C
  C257     1.0000 0.67848  0.38615  0.00114  Biso   1.000  C
  C258     1.0000 0.02103  0.14301  0.09862  Biso   1.000  C
  C259     1.0000 0.12705  0.99321  0.15527  Biso   1.000  C
  C260     1.0000 0.37778  0.88008  0.50488  Biso   1.000  C
  C261     1.0000 0.02675  0.64665  0.40512  Biso   1.000  C
  C262     1.0000 0.62280  0.97589  0.35165  Biso   1.000  C
  C263     1.0000 0.86782  0.88944  0.00153  Biso   1.000  C
  C264     1.0000 0.51100  0.63367  0.10407  Biso   1.000  C
  C265     1.0000 0.02254  0.08825  0.84044  Biso   1.000  C
  C266     1.0000 0.86912  0.98508  0.10686  Biso   1.000  C
  C267     1.0000 0.12019  0.83288  0.99651  Biso   1.000  C
  C268     1.0000 0.52712  0.08813  0.65440  Biso   1.000  C
  C269     1.0000 0.37157  0.99172  0.40732  Biso   1.000  C
  C270     1.0000 0.63364  0.83775  0.50654  Biso   1.000  C
  C271     1.0000 0.52698  0.58729  0.85074  Biso   1.000  C
  C272     1.0000 0.67867  0.49793  0.10386  Biso   1.000  C
  C273     1.0000 0.42615  0.33049  0.00528  Biso   1.000  C
  C274     1.0000 0.02561  0.58522  0.65150  Biso   1.000  C
  C275     1.0000 0.18638  0.48744  0.40494  Biso   1.000  C
  C276     1.0000 0.92965  0.33721  0.48696  Biso   1.000  C
  C277     1.0000 0.04152  0.88722  0.15141  Biso   1.000  C
  C278     1.0000 0.18051  0.98794  0.89465  Biso   1.000  C
  C279     1.0000 0.92251  0.14379  0.99447  Biso   1.000  C
  C280     1.0000 0.52437  0.87846  0.34924  Biso   1.000  C
  C281     1.0000 0.69039  0.98883  0.60109  Biso   1.000  C
  C282     1.0000 0.43056  0.14203  0.48728  Biso   1.000  C
  C283     1.0000 0.53160  0.38503  0.15761  Biso   1.000  C
  C284     1.0000 0.36975  0.48113  0.90964  Biso   1.000  C
  C285     1.0000 0.62512  0.63984  0.99490  Biso   1.000  C
  C286     1.0000 0.02121  0.39215  0.34179  Biso   1.000  C
  C287     1.0000 0.87361  0.46996  0.59715  Biso   1.000  C
  C288     1.0000 0.13053  0.63811  0.50085  Biso   1.000  C
  C289     1.0000 0.37577  0.84929  0.50384  Biso   1.000  C
  C290     1.0000 0.52654  0.32817  0.86854  Biso   1.000  C
  C291     1.0000 0.89926  0.50169  0.34114  Biso   1.000  C
  C292     1.0000 0.86734  0.85792  0.99916  Biso   1.000  C
  C293     1.0000 0.02599  0.32860  0.62578  Biso   1.000  C
  C294     1.0000 0.39776  0.49658  0.16256  Biso   1.000  C
  C295     1.0000 0.18412  0.35126  0.50352  Biso   1.000  C
  C296     1.0000 0.02548  0.83110  0.86785  Biso   1.000  C
  C297     1.0000 0.65374  0.97419  0.34990  Biso   1.000  C
  C298     1.0000 0.68228  0.35509  0.00306  Biso   1.000  C
  C299     1.0000 0.52894  0.83296  0.63652  Biso   1.000  C
  C300     1.0000 0.15780  0.98886  0.15680  Biso   1.000  C
  C301     1.0000 0.68972  0.12524  0.49722  Biso   1.000  C
  C302     1.0000 0.50954  0.63716  0.13614  Biso   1.000  C
  C303     1.0000 0.15801  0.48649  0.66092  Biso   1.000  C
  C304     1.0000 0.17968  0.12251  0.00170  Biso   1.000  C
  C305     1.0000 0.03217  0.64775  0.37395  Biso   1.000  C
  C306     1.0000 0.66007  0.48408  0.84484  Biso   1.000  C
  C307     1.0000 0.87369  0.62346  0.51517  Biso   1.000  C
  C308     1.0000 0.01798  0.14687  0.12995  Biso   1.000  C
  C309     1.0000 0.40077  0.97837  0.65832  Biso   1.000  C
  C310     1.0000 0.36484  0.61923  0.00759  Biso   1.000  C
  C311     1.0000 0.54180  0.14130  0.36585  Biso   1.000  C
  C312     1.0000 0.89730  0.99107  0.84987  Biso   1.000  C
  C313     1.0000 0.18749  0.49703  0.37461  Biso   1.000  C
  C314     1.0000 0.39936  0.14100  0.48678  Biso   1.000  C
  C315     1.0000 0.52961  0.35371  0.15783  Biso   1.000  C
  C316     1.0000 0.68188  0.49783  0.13449  Biso   1.000  C
  C317     1.0000 0.89213  0.14483  0.00247  Biso   1.000  C
  C318     1.0000 0.02418  0.36051  0.33994  Biso   1.000  C
  C319     1.0000 0.36839  0.99409  0.37525  Biso   1.000  C
  C320     1.0000 0.16116  0.63953  0.49833  Biso   1.000  C
  C321     1.0000 0.03708  0.85530  0.15290  Biso   1.000  C
  C322     1.0000 0.86824  0.98222  0.13897  Biso   1.000  C
  C323     1.0000 0.65567  0.64350  0.99474  Biso   1.000  C
  C324     1.0000 0.52425  0.84688  0.34804  Biso   1.000  C
  C325     1.0000 0.86993  0.46985  0.62786  Biso   1.000  C
  C326     1.0000 0.66480  0.83639  0.50988  Biso   1.000  C
  C327     1.0000 0.52844  0.61833  0.84966  Biso   1.000  C
  C328     1.0000 0.37012  0.48255  0.87826  Biso   1.000  C
  C329     1.0000 0.15143  0.83319  0.99782  Biso   1.000  C
  C330     1.0000 0.02614  0.61622  0.65590  Biso   1.000  C
  C331     1.0000 0.69230  0.99091  0.63303  Biso   1.000  C
  C332     1.0000 0.89824  0.33752  0.48554  Biso   1.000  C
  C333     1.0000 0.01961  0.11935  0.83957  Biso   1.000  C
  C334     1.0000 0.18284  0.98257  0.86359  Biso   1.000  C
  C335     1.0000 0.39515  0.33050  0.00921  Biso   1.000  C
  C336     1.0000 0.52899  0.11958  0.65474  Biso   1.000  C
  C337     1.0000 0.68132  0.48541  0.86708  Biso   1.000  C
  C338     1.0000 0.89680  0.64391  0.51661  Biso   1.000  C
  C339     1.0000 0.53523  0.85366  0.65770  Biso   1.000  C
  C340     1.0000 0.18122  0.48883  0.64225  Biso   1.000  C
  C341     1.0000 0.38690  0.64103  0.00857  Biso   1.000  C
  C342     1.0000 0.02570  0.85158  0.84509  Biso   1.000  C
  C343     1.0000 0.87712  0.99320  0.87329  Biso   1.000  C
  C344     1.0000 0.66764  0.14529  0.49719  Biso   1.000  C
  C345     1.0000 0.02488  0.34956  0.64840  Biso   1.000  C
  C346     1.0000 0.37901  0.97718  0.63783  Biso   1.000  C
  C347     1.0000 0.15741  0.14491  0.00091  Biso   1.000  C
  C348     1.0000 0.52342  0.35014  0.84727  Biso   1.000  C
  C349     1.0000 0.37488  0.50301  0.14152  Biso   1.000  C
  C350     1.0000 0.16296  0.33042  0.50134  Biso   1.000  C
  C351     1.0000 0.53923  0.11956  0.34538  Biso   1.000  C
  C352     1.0000 0.87804  0.50150  0.36312  Biso   1.000  C
  C353     1.0000 0.66034  0.33327  0.00425  Biso   1.000  C
  C354     1.0000 0.01667  0.12476  0.15079  Biso   1.000  C
  C355     1.0000 0.18046  0.98813  0.13613  Biso   1.000  C
  C356     1.0000 0.39658  0.82726  0.50301  Biso   1.000  C
  C357     1.0000 0.03441  0.62611  0.35189  Biso   1.000  C
  C358     1.0000 0.67649  0.97574  0.37028  Biso   1.000  C
  C359     1.0000 0.88831  0.83635  0.99918  Biso   1.000  C
  C360     1.0000 0.51169  0.61569  0.15782  Biso   1.000  C
  C361     1.0000 0.01969  0.14278  0.85975  Biso   1.000  C
  C362     1.0000 0.88980  0.98055  0.15995  Biso   1.000  C
  C363     1.0000 0.17347  0.85370  0.99852  Biso   1.000  C
  C364     1.0000 0.52784  0.14138  0.63308  Biso   1.000  C
  C365     1.0000 0.38910  0.99496  0.35305  Biso   1.000  C
  C366     1.0000 0.68652  0.85764  0.50901  Biso   1.000  C
  C367     1.0000 0.52289  0.63944  0.87129  Biso   1.000  C
  C368     1.0000 0.66061  0.49938  0.15660  Biso   1.000  C
  C369     1.0000 0.37517  0.35318  0.01271  Biso   1.000  C
  C370     1.0000 0.03450  0.63807  0.63620  Biso   1.000  C
  C371     1.0000 0.16759  0.49694  0.35168  Biso   1.000  C
  C372     1.0000 0.87731  0.35936  0.48515  Biso   1.000  C
  C373     1.0000 0.03312  0.83318  0.13135  Biso   1.000  C
  C374     1.0000 0.16245  0.98070  0.84145  Biso   1.000  C
  C375     1.0000 0.87237  0.12271  0.00736  Biso   1.000  C
  C376     1.0000 0.52652  0.82497  0.36952  Biso   1.000  C
  C377     1.0000 0.67059  0.99393  0.65461  Biso   1.000  C
  C378     1.0000 0.37623  0.12049  0.48980  Biso   1.000  C
  C379     1.0000 0.53137  0.33322  0.13558  Biso   1.000  C
  C380     1.0000 0.39169  0.48570  0.85565  Biso   1.000  C
  C381     1.0000 0.67692  0.62140  0.99707  Biso   1.000  C
  C382     1.0000 0.02926  0.33822  0.35969  Biso   1.000  C
  C383     1.0000 0.88927  0.47100  0.65061  Biso   1.000  C
  C384     1.0000 0.18366  0.61745  0.49951  Biso   1.000  C
  C385     1.0000 0.20619  0.13652  0.00522  Biso   1.000  C
  C386     1.0000 0.02102  0.17371  0.14475  Biso   1.000  C
  C387     1.0000 0.17243  0.99135  0.18449  Biso   1.000  C
  C388     1.0000 0.71640  0.14159  0.49734  Biso   1.000  C
  C389     1.0000 0.54335  0.16840  0.35018  Biso   1.000  C
  C390     1.0000 0.66868  0.97007  0.32240  Biso   1.000  C
  C391     1.0000 0.33830  0.63437  0.00983  Biso   1.000  C
  C392     1.0000 0.50442  0.66424  0.14966  Biso   1.000  C
  C393     1.0000 0.38293  0.50038  0.18932  Biso   1.000  C
  C394     1.0000 0.84727  0.64042  0.51807  Biso   1.000  C
  C395     1.0000 0.03445  0.67458  0.35851  Biso   1.000  C
  C396     1.0000 0.88298  0.49447  0.31499  Biso   1.000  C
  C397     1.0000 0.84033  0.84248  0.99739  Biso   1.000  C
  C398     1.0000 0.02480  0.80427  0.85235  Biso   1.000  C
  C399     1.0000 0.88057  0.99473  0.82407  Biso   1.000  C
  C400     1.0000 0.34815  0.83418  0.50236  Biso   1.000  C
  C401     1.0000 0.52799  0.80708  0.65204  Biso   1.000  C
  C402     1.0000 0.38706  0.98170  0.68477  Biso   1.000  C
  C403     1.0000 0.70957  0.33983  0.00143  Biso   1.000  C
  C404     1.0000 0.52793  0.30132  0.85217  Biso   1.000  C
  C405     1.0000 0.67590  0.48691  0.81775  Biso   1.000  C
  C406     1.0000 0.21168  0.33554  0.50693  Biso   1.000  C
  C407     1.0000 0.02479  0.30159  0.64220  Biso   1.000  C
  C408     1.0000 0.17224  0.48516  0.68786  Biso   1.000  C
  C409     1.0000 0.17920  0.97969  0.81500  Biso   1.000  C
  C410     1.0000 0.84508  0.13788  0.01170  Biso   1.000  C
  C411     1.0000 0.03317  0.80650  0.14879  Biso   1.000  C
  C412     1.0000 0.68616  0.99360  0.68083  Biso   1.000  C
  C413     1.0000 0.34910  0.13648  0.48752  Biso   1.000  C
  C414     1.0000 0.52258  0.79814  0.35419  Biso   1.000  C
  C415     1.0000 0.37527  0.48412  0.82880  Biso   1.000  C
  C416     1.0000 0.70520  0.63741  0.99691  Biso   1.000  C
  C417     1.0000 0.52806  0.30655  0.15082  Biso   1.000  C
  C418     1.0000 0.87304  0.46991  0.67781  Biso   1.000  C
  C419     1.0000 0.21057  0.63512  0.49896  Biso   1.000  C
  C420     1.0000 0.03084  0.31153  0.34359  Biso   1.000  C
  C421     1.0000 0.87527  0.97477  0.18701  Biso   1.000  C
  C422     1.0000 0.20093  0.83814  0.99886  Biso   1.000  C
  C423     1.0000 0.01620  0.16908  0.84410  Biso   1.000  C
  C424     1.0000 0.37254  0.99734  0.32645  Biso   1.000  C
  C425     1.0000 0.71308  0.84270  0.51569  Biso   1.000  C
  C426     1.0000 0.52950  0.16791  0.64916  Biso   1.000  C
  C427     1.0000 0.67736  0.49665  0.18312  Biso   1.000  C
  C428     1.0000 0.34793  0.33778  0.01735  Biso   1.000  C
  C429     1.0000 0.52098  0.66613  0.85509  Biso   1.000  C
  C430     1.0000 0.18297  0.50919  0.32536  Biso   1.000  C
  C431     1.0000 0.84981  0.34480  0.48180  Biso   1.000  C
  C432     1.0000 0.03437  0.66431  0.65195  Biso   1.000  C
  C433     1.0000 0.01557  0.13472  0.81255  Biso   1.000  C
  C434     1.0000 0.84161  0.97783  0.15593  Biso   1.000  C
  C435     1.0000 0.16787  0.80605  0.99673  Biso   1.000  C
  C436     1.0000 0.52756  0.13529  0.68237  Biso   1.000  C
  C437     1.0000 0.34059  0.99501  0.36021  Biso   1.000  C
  C438     1.0000 0.68004  0.80990  0.51712  Biso   1.000  C
  C439     1.0000 0.52915  0.63487  0.82299  Biso   1.000  C
  C440     1.0000 0.70868  0.49408  0.15049  Biso   1.000  C
  C441     1.0000 0.37863  0.30427  0.01158  Biso   1.000  C
  C442     1.0000 0.02166  0.63206  0.68203  Biso   1.000  C
  C443     1.0000 0.21341  0.50941  0.36050  Biso   1.000  C
  C444     1.0000 0.88140  0.31166  0.48265  Biso   1.000  C
  C445     1.0000 0.03830  0.84017  0.17941  Biso   1.000  C
  C446     1.0000 0.21087  0.98077  0.85006  Biso   1.000  C
  C447     1.0000 0.87652  0.17139  0.00478  Biso   1.000  C
  C448     1.0000 0.51924  0.83125  0.32004  Biso   1.000  C
  C449     1.0000 0.71917  0.98880  0.64930  Biso   1.000  C
  C450     1.0000 0.38274  0.16871  0.48314  Biso   1.000  C
  C451     1.0000 0.52745  0.33636  0.18464  Biso   1.000  C
  C452     1.0000 0.34416  0.47947  0.86186  Biso   1.000  C
  C453     1.0000 0.67127  0.67052  0.99635  Biso   1.000  C
  C454     1.0000 0.02268  0.34576  0.31184  Biso   1.000  C
  C455     1.0000 0.84133  0.47251  0.64209  Biso   1.000  C
  C456     1.0000 0.17717  0.66572  0.49688  Biso   1.000  C
  C457     1.0000 0.03876  0.64286  0.32573  Biso   1.000  C
  C458     1.0000 0.35185  0.97852  0.65402  Biso   1.000  C
  C459     1.0000 0.67568  0.30653  0.00221  Biso   1.000  C
  C460     1.0000 0.50938  0.63308  0.18347  Biso   1.000  C
  C461     1.0000 0.84858  0.99613  0.85784  Biso   1.000  C
  C462     1.0000 0.17856  0.30301  0.50191  Biso   1.000  C
  C463     1.0000 0.53641  0.13569  0.31837  Biso   1.000  C
  C464     1.0000 0.20771  0.49031  0.65861  Biso   1.000  C
  C465     1.0000 0.87323  0.80932  0.99706  Biso   1.000  C
  C466     1.0000 0.02037  0.13938  0.17794  Biso   1.000  C
  C467     1.0000 0.70880  0.48848  0.85121  Biso   1.000  C
  C468     1.0000 0.38047  0.80020  0.50161  Biso   1.000  C
  C469     1.0000 0.02292  0.33249  0.67535  Biso   1.000  C
  C470     1.0000 0.70361  0.97196  0.35350  Biso   1.000  C
  C471     1.0000 0.37227  0.66843  0.01188  Biso   1.000  C
  C472     1.0000 0.52222  0.33484  0.82108  Biso   1.000  C
  C473     1.0000 0.20633  0.98759  0.15222  Biso   1.000  C
  C474     1.0000 0.88127  0.67121  0.52164  Biso   1.000  C
  C475     1.0000 0.53852  0.83716  0.68453  Biso   1.000  C
  C476     1.0000 0.85110  0.49608  0.34889  Biso   1.000  C
  C477     1.0000 0.17472  0.17124  0.00139  Biso   1.000  C
  C478     1.0000 0.02743  0.83625  0.81819  Biso   1.000  C
  C479     1.0000 0.34891  0.51050  0.15980  Biso   1.000  C
  C480     1.0000 0.68229  0.17363  0.49805  Biso   1.000  C
  C481     1.0000 0.39765  0.77309  0.50129  Biso   1.000  C
  C482     1.0000 0.51748  0.35267  0.79447  Biso   1.000  C
  C483     1.0000 0.82403  0.49372  0.36471  Biso   1.000  C
  C484     1.0000 0.88903  0.78305  0.99054  Biso   1.000  C
  C485     1.0000 0.02110  0.34744  0.70308  Biso   1.000  C
  C486     1.0000 0.32234  0.51847  0.14228  Biso   1.000  C
  C487     1.0000 0.16114  0.27698  0.49930  Biso   1.000  C
  C488     1.0000 0.03154  0.85024  0.79110  Biso   1.000  C
  C489     1.0000 0.73155  0.97445  0.36873  Biso   1.000  C
  C490     1.0000 0.66048  0.27845  0.00248  Biso   1.000  C
  C491     1.0000 0.54688  0.85479  0.71096  Biso   1.000  C
  C492     1.0000 0.23400  0.98424  0.13523  Biso   1.000  C
  C493     1.0000 0.66467  0.20192  0.49977  Biso   1.000  C
  C494     1.0000 0.51343  0.61893  0.21300  Biso   1.000  C
  C495     1.0000 0.23351  0.49656  0.64191  Biso   1.000  C
  C496     1.0000 0.15704  0.19830  0.00052  Biso   1.000  C
  C497     1.0000 0.04437  0.62791  0.29774  Biso   1.000  C
  C498     1.0000 0.73613  0.49365  0.86672  Biso   1.000  C
  C499     1.0000 0.89743  0.69754  0.52557  Biso   1.000  C
  C500     1.0000 0.02203  0.12225  0.20446  Biso   1.000  C
  C501     1.0000 0.32604  0.97614  0.63717  Biso   1.000  C
  C502     1.0000 0.38858  0.69605  0.01261  Biso   1.000  C
  C503     1.0000 0.52590  0.12039  0.29205  Biso   1.000  C
  C504     1.0000 0.82102  0.99667  0.87361  Biso   1.000  C
  C505     1.0000 0.65874  0.48415  0.79056  Biso   1.000  C
  C506     1.0000 0.81965  0.62509  0.51362  Biso   1.000  C
  C507     1.0000 0.52223  0.77939  0.63763  Biso   1.000  C
  C508     1.0000 0.15538  0.48067  0.71375  Biso   1.000  C
  C509     1.0000 0.31117  0.61878  0.00520  Biso   1.000  C
  C510     1.0000 0.02136  0.77612  0.86696  Biso   1.000  C
  C511     1.0000 0.89523  0.99259  0.79643  Biso   1.000  C
  C512     1.0000 0.74394  0.12485  0.49674  Biso   1.000  C
  C513     1.0000 0.02593  0.27468  0.62444  Biso   1.000  C
  C514     1.0000 0.40621  0.98572  0.71016  Biso   1.000  C
  C515     1.0000 0.23383  0.12109  0.00891  Biso   1.000  C
  C516     1.0000 0.53451  0.27400  0.86683  Biso   1.000  C
  C517     1.0000 0.39815  0.49385  0.21565  Biso   1.000  C
  C518     1.0000 0.23790  0.35328  0.51006  Biso   1.000  C
  C519     1.0000 0.54872  0.19446  0.36550  Biso   1.000  C
  C520     1.0000 0.89845  0.49334  0.28803  Biso   1.000  C
  C521     1.0000 0.73657  0.35650  0.00066  Biso   1.000  C
  C522     1.0000 0.02531  0.19972  0.12834  Biso   1.000  C
  C523     1.0000 0.15588  0.99491  0.21155  Biso   1.000  C
  C524     1.0000 0.32088  0.85085  0.50434  Biso   1.000  C
  C525     1.0000 0.02939  0.70081  0.37464  Biso   1.000  C
  C526     1.0000 0.65048  0.96585  0.29661  Biso   1.000  C
  C527     1.0000 0.81318  0.85823  0.99743  Biso   1.000  C
  C528     1.0000 0.49938  0.68961  0.13176  Biso   1.000  C
  C529     1.0000 0.81798  0.12280  0.01951  Biso   1.000  C
  C530     1.0000 0.03043  0.77956  0.13322  Biso   1.000  C
  C531     1.0000 0.16289  0.97940  0.78807  Biso   1.000  C
  C532     1.0000 0.32358  0.11710  0.49210  Biso   1.000  C
  C533     1.0000 0.52177  0.77089  0.36971  Biso   1.000  C
  C534     1.0000 0.66996  0.99547  0.70884  Biso   1.000  C
  C535     1.0000 0.73239  0.62102  0.99791  Biso   1.000  C
  C536     1.0000 0.52448  0.27997  0.13562  Biso   1.000  C
  C537     1.0000 0.39178  0.48295  0.80111  Biso   1.000  C
  C538     1.0000 0.23863  0.61945  0.50083  Biso   1.000  C
  C539     1.0000 0.03454  0.28259  0.35730  Biso   1.000  C
  C540     1.0000 0.88774  0.47587  0.70579  Biso   1.000  C
  C541     1.0000 0.22871  0.85281  0.00288  Biso   1.000  C
  C542     1.0000 0.01685  0.19502  0.85991  Biso   1.000  C
  C543     1.0000 0.89271  0.97214  0.21215  Biso   1.000  C
  C544     1.0000 0.74006  0.85787  0.51504  Biso   1.000  C
  C545     1.0000 0.52655  0.19646  0.63381  Biso   1.000  C
  C546     1.0000 0.39110  0.99773  0.29880  Biso   1.000  C
  C547     1.0000 0.32404  0.35498  0.02710  Biso   1.000  C
  C548     1.0000 0.51906  0.69414  0.86860  Biso   1.000  C
  C549     1.0000 0.66309  0.49812  0.21146  Biso   1.000  C
  C550     1.0000 0.82322  0.36279  0.47611  Biso   1.000  C
  C551     1.0000 0.04216  0.69205  0.63800  Biso   1.000  C
  C552     1.0000 0.16685  0.51116  0.29902  Biso   1.000  C
  C553     1.0000 0.01138  0.11832  0.78519  Biso   1.000  C
  C554     1.0000 0.81523  0.98164  0.14030  Biso   1.000  C
  C555     1.0000 0.15267  0.77815  0.99503  Biso   1.000  C
  C556     1.0000 0.52768  0.11840  0.70918  Biso   1.000  C
  C557     1.0000 0.31465  0.99329  0.37766  Biso   1.000  C
  C558     1.0000 0.66503  0.78138  0.52266  Biso   1.000  C
  C559     1.0000 0.53134  0.61987  0.79584  Biso   1.000  C
  C560     1.0000 0.73471  0.48706  0.13426  Biso   1.000  C
  C561     1.0000 0.39535  0.27643  0.00530  Biso   1.000  C
  C562     1.0000 0.01323  0.61483  0.70794  Biso   1.000  C
  C563     1.0000 0.23899  0.51399  0.37982  Biso   1.000  C
  C564     1.0000 0.89471  0.28226  0.48513  Biso   1.000  C
  C565     1.0000 0.04372  0.85590  0.20592  Biso   1.000  C
  C566     1.0000 0.23796  0.98220  0.86489  Biso   1.000  C
  C567     1.0000 0.89092  0.19890  0.00049  Biso   1.000  C
  C568     1.0000 0.51586  0.85012  0.29443  Biso   1.000  C
  C569     1.0000 0.74691  0.98628  0.63394  Biso   1.000  C
  C570     1.0000 0.39875  0.19548  0.47704  Biso   1.000  C
  C571     1.0000 0.52817  0.35117  0.21225  Biso   1.000  C
  C572     1.0000 0.31621  0.47720  0.87675  Biso   1.000  C
  C573     1.0000 0.65330  0.69651  0.99527  Biso   1.000  C
  C574     1.0000 0.01906  0.36257  0.28493  Biso   1.000  C
  C575     1.0000 0.81501  0.47442  0.62560  Biso   1.000  C
  C576     1.0000 0.16129  0.69287  0.49404  Biso   1.000  C
  C577     1.0000 0.32242  0.51278  0.11157  Biso   1.000  C
  C578     1.0000 0.13109  0.27927  0.49383  Biso   1.000  C
  C579     1.0000 0.52222  0.08911  0.29283  Biso   1.000  C
  C580     1.0000 0.82511  0.49527  0.39618  Biso   1.000  C
  C581     1.0000 0.62923  0.27865  0.00657  Biso   1.000  C
  C582     1.0000 0.01938  0.09023  0.20420  Biso   1.000  C
  C583     1.0000 0.23246  0.98745  0.10443  Biso   1.000  C
  C584     1.0000 0.42914  0.77389  0.50209  Biso   1.000  C
  C585     1.0000 0.04518  0.59632  0.29654  Biso   1.000  C
  C586     1.0000 0.73251  0.97771  0.39955  Biso   1.000  C
  C587     1.0000 0.92065  0.78330  0.98894  Biso   1.000  C
  C588     1.0000 0.51893  0.58764  0.21302  Biso   1.000  C
  C589     1.0000 0.73481  0.49446  0.89899  Biso   1.000  C
  C590     1.0000 0.92809  0.69638  0.52436  Biso   1.000  C
  C591     1.0000 0.54913  0.88606  0.71054  Biso   1.000  C
  C592     1.0000 0.23381  0.49717  0.61028  Biso   1.000  C
  C593     1.0000 0.42046  0.69311  0.01320  Biso   1.000  C
  C594     1.0000 0.03642  0.88146  0.79216  Biso   1.000  C
  C595     1.0000 0.82264  0.99256  0.90453  Biso   1.000  C
  C596     1.0000 0.63345  0.19909  0.50139  Biso   1.000  C
  C597     1.0000 0.01648  0.37890  0.70300  Biso   1.000  C
  C598     1.0000 0.32765  0.97294  0.60609  Biso   1.000  C
  C599     1.0000 0.12563  0.19767  0.00077  Biso   1.000  C
  C600     1.0000 0.51580  0.38382  0.79590  Biso   1.000  C
  C601     1.0000 0.23580  0.98536  0.89653  Biso   1.000  C
  C602     1.0000 0.92165  0.19868  0.99530  Biso   1.000  C
  C603     1.0000 0.04607  0.88760  0.20547  Biso   1.000  C
  C604     1.0000 0.74589  0.98792  0.60324  Biso   1.000  C
  C605     1.0000 0.42988  0.19611  0.47698  Biso   1.000  C
  C606     1.0000 0.51954  0.88192  0.29460  Biso   1.000  C
  C607     1.0000 0.31585  0.47469  0.90944  Biso   1.000  C
  C608     1.0000 0.62241  0.69530  0.99505  Biso   1.000  C
  C609     1.0000 0.53383  0.38354  0.21249  Biso   1.000  C
  C610     1.0000 0.81799  0.47168  0.59431  Biso   1.000  C
  C611     1.0000 0.13081  0.69219  0.49229  Biso   1.000  C
  C612     1.0000 0.01823  0.39392  0.28552  Biso   1.000  C
  C613     1.0000 0.81557  0.98580  0.10920  Biso   1.000  C
  C614     1.0000 0.12157  0.77728  0.99533  Biso   1.000  C
  C615     1.0000 0.01533  0.08808  0.78520  Biso   1.000  C
  C616     1.0000 0.31702  0.98793  0.40921  Biso   1.000  C
  C617     1.0000 0.63340  0.78268  0.51823  Biso   1.000  C
  C618     1.0000 0.53119  0.08759  0.70875  Biso   1.000  C
  C619     1.0000 0.73378  0.48934  0.10329  Biso   1.000  C
  C620     1.0000 0.42709  0.27658  0.00222  Biso   1.000  C
  C621     1.0000 0.53163  0.58839  0.79450  Biso   1.000  C
  C622     1.0000 0.23666  0.50556  0.41116  Biso   1.000  C
  C623     1.0000 0.92711  0.28128  0.48677  Biso   1.000  C
  C624     1.0000 0.01052  0.58315  0.70520  Biso   1.000  C
  C625     1.0000 0.02171  0.19638  0.89124  Biso   1.000  C
  C626     1.0000 0.92322  0.97165  0.20813  Biso   1.000  C
  C627     1.0000 0.22964  0.88373  0.00288  Biso   1.000  C
  C628     1.0000 0.52691  0.19535  0.60202  Biso   1.000  C
  C629     1.0000 0.42131  0.99283  0.29898  Biso   1.000  C
  C630     1.0000 0.73893  0.89070  0.51096  Biso   1.000  C
  C631     1.0000 0.51538  0.69511  0.90012  Biso   1.000  C
  C632     1.0000 0.63098  0.49717  0.21179  Biso   1.000  C
  C633     1.0000 0.32638  0.38604  0.02988  Biso   1.000  C
  C634     1.0000 0.04668  0.69266  0.60648  Biso   1.000  C
  C635     1.0000 0.13762  0.50234  0.29801  Biso   1.000  C
  C636     1.0000 0.82464  0.39433  0.47662  Biso   1.000  C
  C637     1.0000 0.02557  0.77936  0.10122  Biso   1.000  C
  C638     1.0000 0.13164  0.97940  0.78777  Biso   1.000  C
  C639     1.0000 0.81907  0.09109  0.01849  Biso   1.000  C
  C640     1.0000 0.52626  0.77103  0.40124  Biso   1.000  C
  C641     1.0000 0.63848  0.99734  0.70788  Biso   1.000  C
  C642     1.0000 0.32521  0.08523  0.49906  Biso   1.000  C
  C643     1.0000 0.52651  0.28205  0.10524  Biso   1.000  C
  C644     1.0000 0.42183  0.48472  0.80132  Biso   1.000  C
  C645     1.0000 0.73294  0.59005  0.99652  Biso   1.000  C
  C646     1.0000 0.03632  0.28297  0.38950  Biso   1.000  C
  C647     1.0000 0.91995  0.47761  0.70722  Biso   1.000  C
  C648     1.0000 0.23930  0.58806  0.50380  Biso   1.000  C
  C649     1.0000 0.02123  0.70093  0.40548  Biso   1.000  C
  C650     1.0000 0.43751  0.98652  0.70737  Biso   1.000  C
  C651     1.0000 0.73384  0.38801  0.00054  Biso   1.000  C
  C652     1.0000 0.50131  0.68755  0.10045  Biso   1.000  C
  C653     1.0000 0.92639  0.99054  0.79335  Biso   1.000  C
  C654     1.0000 0.23618  0.38444  0.51211  Biso   1.000  C
  C655     1.0000 0.54963  0.19497  0.39856  Biso   1.000  C
  C656     1.0000 0.12408  0.47888  0.71159  Biso   1.000  C
  C657     1.0000 0.81218  0.88938  0.99755  Biso   1.000  C
  C658     1.0000 0.02350  0.19876  0.09717  Biso   1.000  C
  C659     1.0000 0.62784  0.48068  0.79244  Biso   1.000  C
  C660     1.0000 0.32348  0.88209  0.50665  Biso   1.000  C
  C661     1.0000 0.02800  0.27666  0.59268  Biso   1.000  C
  C662     1.0000 0.61927  0.96804  0.29759  Biso   1.000  C
  C663     1.0000 0.31253  0.58835  0.00069  Biso   1.000  C
  C664     1.0000 0.53529  0.27473  0.89908  Biso   1.000  C
  C665     1.0000 0.12462  0.99794  0.20853  Biso   1.000  C
  C666     1.0000 0.81963  0.59317  0.51020  Biso   1.000  C
  C667     1.0000 0.52023  0.77926  0.60548  Biso   1.000  C
  C668     1.0000 0.92984  0.49554  0.28755  Biso   1.000  C
  C669     1.0000 0.23173  0.08880  0.00832  Biso   1.000  C
  C670     1.0000 0.01997  0.77637  0.89813  Biso   1.000  C
  C671     1.0000 0.42900  0.48369  0.21489  Biso   1.000  C
  C672     1.0000 0.74138  0.09306  0.49498  Biso   1.000  C
  C673     1.0000 0.22680  0.98177  0.80319  Biso   1.000  C
  C674     1.0000 0.82935  0.18416  0.00939  Biso   1.000  C
  C675     1.0000 0.03600  0.79311  0.19571  Biso   1.000  C
  C676     1.0000 0.73108  0.99188  0.69648  Biso   1.000  C
  C677     1.0000 0.33536  0.18199  0.48544  Biso   1.000  C
  C678     1.0000 0.51368  0.78414  0.30816  Biso   1.000  C
  C679     1.0000 0.32996  0.48332  0.81451  Biso   1.000  C
  C680     1.0000 0.71754  0.68595  0.99694  Biso   1.000  C
  C681     1.0000 0.52988  0.29090  0.19768  Biso   1.000  C
  C682     1.0000 0.82593  0.47245  0.68909  Biso   1.000  C
  C683     1.0000 0.22351  0.68137  0.49520  Biso   1.000  C
  C684     1.0000 0.02461  0.29839  0.29732  Biso   1.000  C
  C685     1.0000 0.82826  0.96736  0.20197  Biso   1.000  C
  C686     1.0000 0.21576  0.79351  0.00001  Biso   1.000  C
  C687     1.0000 0.01502  0.17955  0.79580  Biso   1.000  C
  C688     1.0000 0.32709  0.99635  0.31179  Biso   1.000  C
  C689     1.0000 0.72583  0.79641  0.52108  Biso   1.000  C
  C690     1.0000 0.52810  0.18262  0.69546  Biso   1.000  C
  C691     1.0000 0.72429  0.48995  0.19600  Biso   1.000  C
  C692     1.0000 0.33251  0.29152  0.01305  Biso   1.000  C
  C693     1.0000 0.52391  0.68143  0.80827  Biso   1.000  C
  C694     1.0000 0.23049  0.52067  0.31525  Biso   1.000  C
  C695     1.0000 0.83447  0.29855  0.48288  Biso   1.000  C
  C696     1.0000 0.02324  0.67837  0.69855  Biso   1.000  C
  C697     1.0000 0.71444  0.96590  0.30595  Biso   1.000  C
  C698     1.0000 0.32428  0.68146  0.01074  Biso   1.000  C
  C699     1.0000 0.02261  0.28763  0.68809  Biso   1.000  C
  C700     1.0000 0.21839  0.98604  0.19982  Biso   1.000  C
  C701     1.0000 0.83320  0.68545  0.52789  Biso   1.000  C
  C702     1.0000 0.52550  0.28804  0.80526  Biso   1.000  C
  C703     1.0000 0.83688  0.48863  0.30196  Biso   1.000  C
  C704     1.0000 0.22124  0.18446  0.00681  Biso   1.000  C
  C705     1.0000 0.52990  0.79066  0.69914  Biso   1.000  C
  C706     1.0000 0.33821  0.51495  0.20703  Biso   1.000  C
  C707     1.0000 0.72775  0.18900  0.49736  Biso   1.000  C
  C708     1.0000 0.02573  0.78995  0.80562  Biso   1.000  C
  C709     1.0000 0.33966  0.98059  0.69987  Biso   1.000  C
  C710     1.0000 0.72293  0.29413  0.00151  Biso   1.000  C
  C711     1.0000 0.03506  0.68981  0.31265  Biso   1.000  C
  C712     1.0000 0.83409  0.99974  0.81257  Biso   1.000  C
  C713     1.0000 0.22400  0.28690  0.50456  Biso   1.000  C
  C714     1.0000 0.50212  0.67934  0.19511  Biso   1.000  C
  C715     1.0000 0.21874  0.48622  0.70556  Biso   1.000  C
  C716     1.0000 0.82698  0.79409  0.99383  Biso   1.000  C
  C717     1.0000 0.53779  0.17989  0.30353  Biso   1.000  C
  C718     1.0000 0.72195  0.48402  0.80454  Biso   1.000  C
  C719     1.0000 0.33386  0.78761  0.49873  Biso   1.000  C
  C720     1.0000 0.02220  0.18648  0.19239  Biso   1.000  C
  C721     1.0000 0.52605  0.78787  0.27952  Biso   1.000  C
  C722     1.0000 0.33242  0.50210  0.78970  Biso   1.000  C
  C723     1.0000 0.80830  0.30267  0.50110  Biso   1.000  C
  C724     1.0000 0.01358  0.77215  0.19866  Biso   1.000  C
  C725     1.0000 0.80057  0.49110  0.68669  Biso   1.000  C
  C726     1.0000 0.30189  0.29728  0.00223  Biso   1.000  C
  C727     1.0000 0.00191  0.29826  0.27464  Biso   1.000  C
  C728     1.0000 0.25299  0.00097  0.80773  Biso   1.000  C
  C729     1.0000 0.75324  0.79990  0.53753  Biso   1.000  C
  C730     1.0000 0.51212  0.29117  0.22356  Biso   1.000  C
  C731     1.0000 0.75521  0.96984  0.69932  Biso   1.000  C
  C732     1.0000 0.24346  0.79483  0.98483  Biso   1.000  C
  C733     1.0000 0.51099  0.17897  0.72189  Biso   1.000  C
  C734     1.0000 0.72110  0.47367  0.22311  Biso   1.000  C
  C735     1.0000 0.22147  0.70739  0.51224  Biso   1.000  C
  C736     1.0000 0.99801  0.20607  0.79565  Biso   1.000  C
  C737     1.0000 0.25802  0.50643  0.31840  Biso   1.000  C
  C738     1.0000 0.74502  0.68362  0.01327  Biso   1.000  C
  C739     1.0000 0.03314  0.67280  0.72932  Biso   1.000  C
  C740     1.0000 0.80322  0.94954  0.19380  Biso   1.000  C
  C741     1.0000 0.30605  0.17780  0.47483  Biso   1.000  C
  C742     1.0000 0.54725  0.68127  0.78720  Biso   1.000  C
  C743     1.0000 0.29958  0.97991  0.31725  Biso   1.000  C
  C744     1.0000 0.83277  0.21254  0.02252  Biso   1.000  C
  C745     1.0000 0.04864  0.71815  0.31559  Biso   1.000  C
  C746     1.0000 0.31223  0.99637  0.69399  Biso   1.000  C
  C747     1.0000 0.74617  0.29587  0.02201  Biso   1.000  C
  C748     1.0000 0.51628  0.70680  0.18985  Biso   1.000  C
  C749     1.0000 0.80962  0.97934  0.81315  Biso   1.000  C
  C750     1.0000 0.24768  0.28540  0.52472  Biso   1.000  C
  C751     1.0000 0.55493  0.17575  0.27784  Biso   1.000  C
  C752     1.0000 0.24794  0.47426  0.70194  Biso   1.000  C
  C753     1.0000 0.80118  0.79875  0.97672  Biso   1.000  C
  C754     1.0000 0.03698  0.18180  0.22039  Biso   1.000  C
  C755     1.0000 0.71784  0.50008  0.77702  Biso   1.000  C
  C756     1.0000 0.30500  0.79529  0.48483  Biso   1.000  C
  C757     1.0000 0.00728  0.26171  0.68133  Biso   1.000  C
  C758     1.0000 0.71122  0.97386  0.27488  Biso   1.000  C
  C759     1.0000 0.29508  0.67783  0.02290  Biso   1.000  C
  C760     1.0000 0.53406  0.29525  0.77672  Biso   1.000  C
  C761     1.0000 0.24668  0.99867  0.19626  Biso   1.000  C
  C762     1.0000 0.83649  0.71582  0.51473  Biso   1.000  C
  C763     1.0000 0.51816  0.79735  0.72850  Biso   1.000  C
  C764     1.0000 0.80678  0.49976  0.30440  Biso   1.000  C
  C765     1.0000 0.24558  0.18149  0.02774  Biso   1.000  C
  C766     1.0000 0.00653  0.79400  0.78084  Biso   1.000  C
  C767     1.0000 0.34659  0.52596  0.23633  Biso   1.000  C
  C768     1.0000 0.72354  0.21671  0.48039  Biso   1.000  C
  C769     1.0000 0.50178  0.70471  0.80664  Biso   1.000  C
  C770     1.0000 0.82805  0.45204  0.71330  Biso   1.000  C
  C771     1.0000 0.72419  0.76640  0.50846  Biso   1.000  C
  C772     1.0000 0.01038  0.70784  0.69413  Biso   1.000  C
  C773     1.0000 0.30471  0.46489  0.81633  Biso   1.000  C
  C774     1.0000 0.21148  0.76659  0.01806  Biso   1.000  C
  C775     1.0000 0.03348  0.17269  0.77079  Biso   1.000  C
  C776     1.0000 0.72894  0.01141  0.72093  Biso   1.000  C
  C777     1.0000 0.83670  0.27147  0.46634  Biso   1.000  C
  C778     1.0000 0.54460  0.20955  0.69282  Biso   1.000  C
  C779     1.0000 0.22461  0.96412  0.77738  Biso   1.000  C
  C780     1.0000 0.33796  0.26234  0.02424  Biso   1.000  C
  C781     1.0000 0.55106  0.26680  0.19421  Biso   1.000  C
  C782     1.0000 0.22721  0.53864  0.28960  Biso   1.000  C
  C783     1.0000 0.34168  0.21025  0.50006  Biso   1.000  C
  C784     1.0000 0.04562  0.27585  0.29647  Biso   1.000  C
  C785     1.0000 0.75380  0.50260  0.19210  Biso   1.000  C
  C786     1.0000 0.80187  0.17887  0.99630  Biso   1.000  C
  C787     1.0000 0.05836  0.79263  0.21791  Biso   1.000  C
  C788     1.0000 0.32949  0.01135  0.28494  Biso   1.000  C
  C789     1.0000 0.24946  0.67817  0.47766  Biso   1.000  C
  C790     1.0000 0.49506  0.75946  0.31200  Biso   1.000  C
  C791     1.0000 0.82901  0.97761  0.23231  Biso   1.000  C
  C792     1.0000 0.71543  0.70985  0.97586  Biso   1.000  C
  C793     1.0000 0.52039  0.20507  0.30758  Biso   1.000  C
  C794     1.0000 0.30751  0.50714  0.20383  Biso   1.000  C
  C795     1.0000 0.22281  0.26385  0.48238  Biso   1.000  C
  C796     1.0000 0.00895  0.21466  0.18702  Biso   1.000  C
  C797     1.0000 0.84319  0.47197  0.27612  Biso   1.000  C
  C798     1.0000 0.71894  0.26901  0.98441  Biso   1.000  C
  C799     1.0000 0.02189  0.68387  0.28590  Biso   1.000  C
  C800     1.0000 0.21464  0.97273  0.22764  Biso   1.000  C
  C801     1.0000 0.33710  0.75830  0.50983  Biso   1.000  C
  C802     1.0000 0.48682  0.67546  0.22280  Biso   1.000  C
  C803     1.0000 0.74124  0.94859  0.31151  Biso   1.000  C
  C804     1.0000 0.83096  0.76709  0.01135  Biso   1.000  C
  C805     1.0000 0.54166  0.76134  0.69492  Biso   1.000  C
  C806     1.0000 0.74832  0.46627  0.80822  Biso   1.000  C
  C807     1.0000 0.80637  0.67969  0.54387  Biso   1.000  C
  C808     1.0000 0.04265  0.76339  0.80786  Biso   1.000  C
  C809     1.0000 0.21306  0.50078  0.73219  Biso   1.000  C
  C810     1.0000 0.32983  0.70793  0.99425  Biso   1.000  C
  C811     1.0000 0.03936  0.28920  0.71445  Biso   1.000  C
  C812     1.0000 0.83492  0.01766  0.78602  Biso   1.000  C
  C813     1.0000 0.75731  0.18484  0.50993  Biso   1.000  C
  C814     1.0000 0.51492  0.25830  0.81105  Biso   1.000  C
  C815     1.0000 0.34285  0.96624  0.72822  Biso   1.000  C
  C816     1.0000 0.21946  0.21049  0.99031  Biso   1.000  C
  C817     1.0000 0.00132  0.22634  0.77402  Biso   1.000  C
  C818     1.0000 0.78075  0.94648  0.21497  Biso   1.000  C
  C819     1.0000 0.26248  0.77128  0.98503  Biso   1.000  C
  C820     1.0000 0.50904  0.20181  0.74074  Biso   1.000  C
  C821     1.0000 0.27939  0.97766  0.29444  Biso   1.000  C
  C822     1.0000 0.77417  0.77927  0.54129  Biso   1.000  C
  C823     1.0000 0.55046  0.70557  0.76857  Biso   1.000  C
  C824     1.0000 0.74359  0.46966  0.24147  Biso   1.000  C
  C825     1.0000 0.28027  0.27624  0.99961  Biso   1.000  C
  C826     1.0000 0.03325  0.69606  0.74951  Biso   1.000  C
  C827     1.0000 0.28029  0.51053  0.29654  Biso   1.000  C
  C828     1.0000 0.78860  0.28008  0.50353  Biso   1.000  C
  C829     1.0000 0.01329  0.75173  0.22142  Biso   1.000  C
  C830     1.0000 0.27406  0.00214  0.78675  Biso   1.000  C
  C831     1.0000 0.81183  0.23396  0.02043  Biso   1.000  C
  C832     1.0000 0.52031  0.76932  0.25727  Biso   1.000  C
  C833     1.0000 0.77481  0.97013  0.72156  Biso   1.000  C
  C834     1.0000 0.28515  0.19698  0.48254  Biso   1.000  C
  C835     1.0000 0.51649  0.26880  0.24303  Biso   1.000  C
  C836     1.0000 0.31064  0.50451  0.76890  Biso   1.000  C
  C837     1.0000 0.76422  0.70588  0.01241  Biso   1.000  C
  C838     1.0000 0.99999  0.27412  0.25632  Biso   1.000  C
  C839     1.0000 0.78084  0.49423  0.70910  Biso   1.000  C
  C840     1.0000 0.24002  0.73018  0.50858  Biso   1.000  C
  C841     1.0000 0.24723  0.96631  0.75759  Biso   1.000  C
  C842     1.0000 0.77881  0.19930  0.99888  Biso   1.000  C
  C843     1.0000 0.05924  0.77015  0.23835  Biso   1.000  C
  C844     1.0000 0.74854  0.01031  0.74306  Biso   1.000  C
  C845     1.0000 0.31844  0.22787  0.50784  Biso   1.000  C
  C846     1.0000 0.49112  0.73971  0.28932  Biso   1.000  C
  C847     1.0000 0.28233  0.46921  0.79485  Biso   1.000  C
  C848     1.0000 0.73595  0.73316  0.97871  Biso   1.000  C
  C849     1.0000 0.55421  0.24429  0.21467  Biso   1.000  C
  C850     1.0000 0.80859  0.45616  0.73536  Biso   1.000  C
  C851     1.0000 0.26933  0.70012  0.47572  Biso   1.000  C
  C852     1.0000 0.04376  0.25410  0.27653  Biso   1.000  C
  C853     1.0000 0.80663  0.97177  0.24989  Biso   1.000  C
  C854     1.0000 0.23280  0.74442  0.01791  Biso   1.000  C
  C855     1.0000 0.03602  0.19435  0.74796  Biso   1.000  C
  C856     1.0000 0.30858  0.00828  0.26232  Biso   1.000  C
  C857     1.0000 0.74539  0.74589  0.51502  Biso   1.000  C
  C858     1.0000 0.54426  0.23000  0.71491  Biso   1.000  C
  C859     1.0000 0.77698  0.49715  0.21220  Biso   1.000  C
  C860     1.0000 0.31545  0.24182  0.02099  Biso   1.000  C
  C861     1.0000 0.50418  0.72644  0.78493  Biso   1.000  C
  C862     1.0000 0.24872  0.54329  0.26939  Biso   1.000  C
  C863     1.0000 0.81463  0.25094  0.46906  Biso   1.000  C
  C864     1.0000 0.01059  0.72859  0.71513  Biso   1.000  C
  C865     1.0000 0.73789  0.49532  0.75440  Biso   1.000  C
  C866     1.0000 0.81545  0.73593  0.51969  Biso   1.000  C
  C867     1.0000 0.51959  0.77699  0.75078  Biso   1.000  C
  C868     1.0000 0.26823  0.47471  0.72417  Biso   1.000  C
  C869     1.0000 0.27463  0.69960  0.02114  Biso   1.000  C
  C870     1.0000 0.00510  0.77106  0.76009  Biso   1.000  C
  C871     1.0000 0.79172  0.97468  0.78904  Biso   1.000  C
  C872     1.0000 0.74311  0.23814  0.47880  Biso   1.000  C
  C873     1.0000 0.00704  0.24029  0.70313  Biso   1.000  C
  C874     1.0000 0.29115  0.99761  0.71557  Biso   1.000  C
  C875     1.0000 0.26661  0.20277  0.02827  Biso   1.000  C
  C876     1.0000 0.53317  0.27649  0.75367  Biso   1.000  C
  C877     1.0000 0.32449  0.53415  0.25609  Biso   1.000  C
  C878     1.0000 0.26969  0.26616  0.52274  Biso   1.000  C
  C879     1.0000 0.55238  0.19653  0.25627  Biso   1.000  C
  C880     1.0000 0.78582  0.49531  0.28478  Biso   1.000  C
  C881     1.0000 0.76634  0.27339  0.02426  Biso   1.000  C
  C882     1.0000 0.03655  0.20363  0.24111  Biso   1.000  C
  C883     1.0000 0.26724  0.99780  0.21822  Biso   1.000  C
  C884     1.0000 0.28464  0.77292  0.48180  Biso   1.000  C
  C885     1.0000 0.04819  0.73868  0.29326  Biso   1.000  C
  C886     1.0000 0.73384  0.96790  0.25474  Biso   1.000  C
  C887     1.0000 0.78064  0.77703  0.97509  Biso   1.000  C
  C888     1.0000 0.51604  0.72660  0.21184  Biso   1.000  C
  C889     1.0000 0.76224  0.94343  0.29059  Biso   1.000  C
  C890     1.0000 0.30857  0.72744  0.99040  Biso   1.000  C
  C891     1.0000 0.04107  0.26706  0.73559  Biso   1.000  C
  C892     1.0000 0.23660  0.97193  0.24832  Biso   1.000  C
  C893     1.0000 0.78608  0.70150  0.54635  Biso   1.000  C
  C894     1.0000 0.51510  0.23865  0.78837  Biso   1.000  C
  C895     1.0000 0.82110  0.46845  0.25521  Biso   1.000  C
  C896     1.0000 0.24185  0.23095  0.99165  Biso   1.000  C
  C897     1.0000 0.53869  0.74038  0.71720  Biso   1.000  C
  C898     1.0000 0.28755  0.51262  0.22504  Biso   1.000  C
  C899     1.0000 0.77759  0.20782  0.50721  Biso   1.000  C
  C900     1.0000 0.03983  0.74235  0.78783  Biso   1.000  C
  C901     1.0000 0.32044  0.96769  0.74864  Biso   1.000  C
  C902     1.0000 0.73897  0.24737  0.98598  Biso   1.000  C
  C903     1.0000 0.02007  0.70431  0.26321  Biso   1.000  C
  C904     1.0000 0.81472  0.01388  0.76409  Biso   1.000  C
  C905     1.0000 0.24556  0.24298  0.48251  Biso   1.000  C
  C906     1.0000 0.48639  0.69654  0.24444  Biso   1.000  C
  C907     1.0000 0.23481  0.50517  0.75329  Biso   1.000  C
  C908     1.0000 0.81026  0.74640  0.00826  Biso   1.000  C
  C909     1.0000 0.52142  0.22671  0.28768  Biso   1.000  C
  C910     1.0000 0.76867  0.46392  0.78580  Biso   1.000  C
  C911     1.0000 0.31569  0.73796  0.50657  Biso   1.000  C
  C912     1.0000 0.01096  0.23587  0.20713  Biso   1.000  C
  C913     1.0000 0.78607  0.47673  0.73364  Biso   1.000  C
  C914     1.0000 0.76906  0.75097  0.53241  Biso   1.000  C
  C915     1.0000 0.52822  0.72713  0.76749  Biso   1.000  C
  C916     1.0000 0.28413  0.48986  0.77251  Biso   1.000  C
  C917     1.0000 0.25760  0.74658  0.00123  Biso   1.000  C
  C918     1.0000 0.02107  0.72356  0.74247  Biso   1.000  C
  C919     1.0000 0.77113  0.99162  0.74230  Biso   1.000  C
  C920     1.0000 0.79144  0.25506  0.48809  Biso   1.000  C
  C921     1.0000 0.01961  0.21960  0.74973  Biso   1.000  C
  C922     1.0000 0.27092  0.98467  0.76255  Biso   1.000  C
  C923     1.0000 0.28762  0.24892  0.01023  Biso   1.000  C
  C924     1.0000 0.52511  0.22699  0.73853  Biso   1.000  C
  C925     1.0000 0.27552  0.52954  0.27322  Biso   1.000  C
  C926     1.0000 0.29054  0.22193  0.49861  Biso   1.000  C
  C927     1.0000 0.53663  0.24547  0.23913  Biso   1.000  C
  C928     1.0000 0.77123  0.48017  0.23610  Biso   1.000  C
  C929     1.0000 0.78403  0.22768  0.00986  Biso   1.000  C
  C930     1.0000 0.02036  0.25234  0.25695  Biso   1.000  C
  C931     1.0000 0.28412  0.99209  0.26820  Biso   1.000  C
  C932     1.0000 0.26426  0.72636  0.48909  Biso   1.000  C
  C933     1.0000 0.03596  0.75111  0.24171  Biso   1.000  C
  C934     1.0000 0.78342  0.95593  0.24244  Biso   1.000  C
  C935     1.0000 0.76034  0.72989  0.99573  Biso   1.000  C
  C936     1.0000 0.50342  0.74449  0.26256  Biso   1.000  C
  C937     1.0000 0.76228  0.24942  0.00470  Biso   1.000  C
  C938     1.0000 0.03450  0.73008  0.26615  Biso   1.000  C
  C939     1.0000 0.29481  0.98396  0.74242  Biso   1.000  C
  C940     1.0000 0.26817  0.24374  0.50256  Biso   1.000  C
  C941     1.0000 0.50202  0.72275  0.23833  Biso   1.000  C
  C942     1.0000 0.79376  0.99298  0.76555  Biso   1.000  C
  C943     1.0000 0.78535  0.75104  0.99190  Biso   1.000  C
  C944     1.0000 0.53530  0.22188  0.26026  Biso   1.000  C
  C945     1.0000 0.26242  0.49087  0.74900  Biso   1.000  C
  C946     1.0000 0.28983  0.74550  0.49185  Biso   1.000  C
  C947     1.0000 0.02271  0.22962  0.23394  Biso   1.000  C
  C948     1.0000 0.76281  0.47698  0.75789  Biso   1.000  C
  C949     1.0000 0.28092  0.72406  0.00270  Biso   1.000  C
  C950     1.0000 0.02448  0.24194  0.72843  Biso   1.000  C
  C951     1.0000 0.75849  0.95279  0.26167  Biso   1.000  C
  C952     1.0000 0.79151  0.73006  0.53591  Biso   1.000  C
  C953     1.0000 0.52332  0.24901  0.76008  Biso   1.000  C
  C954     1.0000 0.26305  0.98566  0.24485  Biso   1.000  C
  C955     1.0000 0.26460  0.22642  0.01071  Biso   1.000  C
  C956     1.0000 0.53097  0.74957  0.74487  Biso   1.000  C
  C957     1.0000 0.79304  0.47904  0.25974  Biso   1.000  C
  C958     1.0000 0.77027  0.23267  0.49157  Biso   1.000  C
  C959     1.0000 0.02165  0.74617  0.76473  Biso   1.000  C
  C960     1.0000 0.29600  0.52729  0.24890  Biso   1.000  C
  Cu1      1.0000 0.02344  0.48352  0.64916  Biso   1.000  Cu
  Cu2      1.0000 0.68343  0.99186  0.50083  Biso   1.000  Cu
  Cu3      1.0000 0.52150  0.63875  0.99978  Biso   1.000  Cu
  Cu4      1.0000 0.52648  0.48563  0.84976  Biso   1.000  Cu
  Cu5      1.0000 0.17652  0.98752  0.99905  Biso   1.000  Cu
  Cu6      1.0000 0.02725  0.64128  0.50269  Biso   1.000  Cu
  Cu7      1.0000 0.53780  0.98606  0.65096  Biso   1.000  Cu
  Cu8      1.0000 0.87672  0.49148  0.49749  Biso   1.000  Cu
  Cu9      1.0000 0.02428  0.14287  0.99432  Biso   1.000  Cu
  Cu10     1.0000 0.03062  0.98649  0.84175  Biso   1.000  Cu
  Cu11     1.0000 0.37033  0.48843  0.01119  Biso   1.000  Cu
  Cu12     1.0000 0.53096  0.14139  0.49978  Biso   1.000  Cu
  Cu13     1.0000 0.03223  0.49304  0.34650  Biso   1.000  Cu
  Cu14     1.0000 0.37964  0.98588  0.50549  Biso   1.000  Cu
  Cu15     1.0000 0.52967  0.33263  0.00051  Biso   1.000  Cu
  Cu16     1.0000 0.52812  0.48590  0.15696  Biso   1.000  Cu
  Cu17     1.0000 0.87139  0.98964  0.00607  Biso   1.000  Cu
  Cu18     1.0000 0.03133  0.33438  0.49175  Biso   1.000  Cu
  Cu19     1.0000 0.52221  0.98279  0.35137  Biso   1.000  Cu
  Cu20     1.0000 0.18175  0.48613  0.50762  Biso   1.000  Cu
  Cu21     1.0000 0.02101  0.83466  0.00076  Biso   1.000  Cu
  Cu22     1.0000 0.02321  0.98772  0.15123  Biso   1.000  Cu
  Cu23     1.0000 0.67746  0.48793  0.00085  Biso   1.000  Cu
  Cu24     1.0000 0.53063  0.83132  0.50280  Biso   1.000  Cu
  Cu25     1.0000 0.22957  0.98873  0.00110  Biso   1.000  Cu
  Cu26     1.0000 0.02326  0.19541  0.99334  Biso   1.000  Cu
  Cu27     1.0000 0.02614  0.98813  0.20572  Biso   1.000  Cu
  Cu28     1.0000 0.73893  0.99173  0.49684  Biso   1.000  Cu
  Cu29     1.0000 0.53284  0.19581  0.49804  Biso   1.000  Cu
  Cu30     1.0000 0.52118  0.98514  0.29716  Biso   1.000  Cu
  Cu31     1.0000 0.31628  0.48618  0.01211  Biso   1.000  Cu
  Cu32     1.0000 0.52166  0.69136  0.00373  Biso   1.000  Cu
  Cu33     1.0000 0.52960  0.48442  0.21292  Biso   1.000  Cu
  Cu34     1.0000 0.82158  0.49091  0.49429  Biso   1.000  Cu
  Cu35     1.0000 0.02853  0.69622  0.50684  Biso   1.000  Cu
  Cu36     1.0000 0.03509  0.49498  0.29373  Biso   1.000  Cu
  Cu37     1.0000 0.81737  0.99232  0.00539  Biso   1.000  Cu
  Cu38     1.0000 0.02055  0.77787  0.00181  Biso   1.000  Cu
  Cu39     1.0000 0.02746  0.98264  0.78633  Biso   1.000  Cu
  Cu40     1.0000 0.32679  0.98482  0.50751  Biso   1.000  Cu
  Cu41     1.0000 0.53376  0.77863  0.50512  Biso   1.000  Cu
  Cu42     1.0000 0.53870  0.98685  0.70457  Biso   1.000  Cu
  Cu43     1.0000 0.73134  0.49157  0.00445  Biso   1.000  Cu
  Cu44     1.0000 0.52926  0.27738  0.00449  Biso   1.000  Cu
  Cu45     1.0000 0.52305  0.48414  0.79654  Biso   1.000  Cu
  Cu46     1.0000 0.23659  0.48492  0.50777  Biso   1.000  Cu
  Cu47     1.0000 0.03033  0.28180  0.49238  Biso   1.000  Cu
  Cu48     1.0000 0.01944  0.48319  0.70416  Biso   1.000  Cu
  H1       1.0000 0.26520  0.77774  0.47023  Biso   1.000  H
  H2       1.0000 0.54041  0.28354  0.73337  Biso   1.000  H
  H3       1.0000 0.76315  0.50354  0.28741  Biso   1.000  H
  H4       1.0000 0.76225  0.78322  0.96182  Biso   1.000  H
  H5       1.0000 0.99553  0.22011  0.69871  Biso   1.000  H
  H6       1.0000 0.32748  0.54983  0.27298  Biso   1.000  H
  H7       1.0000 0.28880  0.26894  0.53813  Biso   1.000  H
  H8       1.0000 0.98913  0.77462  0.74322  Biso   1.000  H
  H9       1.0000 0.73156  0.97628  0.23256  Biso   1.000  H
  H10      1.0000 0.78454  0.27266  0.04032  Biso   1.000  H
  H11      1.0000 0.51346  0.78398  0.77280  Biso   1.000  H
  H12      1.0000 0.28889  0.00771  0.21361  Biso   1.000  H
  H13      1.0000 0.73552  0.26015  0.47066  Biso   1.000  H
  H14      1.0000 0.52322  0.74882  0.20699  Biso   1.000  H
  H15      1.0000 0.28944  0.46506  0.72110  Biso   1.000  H
  H16      1.0000 0.28310  0.20002  0.04410  Biso   1.000  H
  H17      1.0000 0.05788  0.75999  0.29552  Biso   1.000  H
  H18      1.0000 0.73259  0.50536  0.73337  Biso   1.000  H
  H19      1.0000 0.82354  0.75816  0.51401  Biso   1.000  H
  H20      1.0000 0.04617  0.19956  0.26193  Biso   1.000  H
  H21      1.0000 0.27184  0.01030  0.71159  Biso   1.000  H
  H22      1.0000 0.25473  0.69544  0.03380  Biso   1.000  H
  H23      1.0000 0.56126  0.19189  0.23490  Biso   1.000  H
  H24      1.0000 0.77415  0.95824  0.78795  Biso   1.000  H
  H25      1.0000 0.29513  0.01454  0.78895  Biso   1.000  H
  H26      1.0000 0.81805  0.25488  0.02865  Biso   1.000  H
  H27      1.0000 0.99369  0.73748  0.22294  Biso   1.000  H
  H28      1.0000 0.79464  0.95739  0.72210  Biso   1.000  H
  H29      1.0000 0.26343  0.19235  0.47411  Biso   1.000  H
  H30      1.0000 0.53193  0.77358  0.23864  Biso   1.000  H
  H31      1.0000 0.31374  0.51676  0.74947  Biso   1.000  H
  H32      1.0000 0.78309  0.70465  0.02576  Biso   1.000  H
  H33      1.0000 0.50535  0.27062  0.26353  Biso   1.000  H
  H34      1.0000 0.76291  0.51007  0.70503  Biso   1.000  H
  H35      1.0000 0.23655  0.75114  0.51744  Biso   1.000  H
  H36      1.0000 0.98386  0.27461  0.24105  Biso   1.000  H
  H37      1.0000 0.76234  0.93412  0.21014  Biso   1.000  H
  H38      1.0000 0.28246  0.77258  0.97227  Biso   1.000  H
  H39      1.0000 0.98820  0.24528  0.77256  Biso   1.000  H
  H40      1.0000 0.25982  0.96579  0.29806  Biso   1.000  H
  H41      1.0000 0.79426  0.78523  0.55181  Biso   1.000  H
  H42      1.0000 0.49197  0.19992  0.75679  Biso   1.000  H
  H43      1.0000 0.73954  0.45808  0.26177  Biso   1.000  H
  H44      1.0000 0.25818  0.28141  0.99346  Biso   1.000  H
  H45      1.0000 0.56964  0.70727  0.75428  Biso   1.000  H
  H46      1.0000 0.30231  0.50249  0.30067  Biso   1.000  H
  H47      1.0000 0.76794  0.28204  0.51633  Biso   1.000  H
  H48      1.0000 0.03797  0.69167  0.77152  Biso   1.000  H
  H49      1.0000 0.24431  0.55534  0.25041  Biso   1.000  H
  H50      1.0000 0.32138  0.24899  0.51677  Biso   1.000  H
  H51      1.0000 0.57194  0.22982  0.21277  Biso   1.000  H
  H52      1.0000 0.79718  0.50860  0.21008  Biso   1.000  H
  H53      1.0000 0.75857  0.19373  0.98728  Biso   1.000  H
  H54      1.0000 0.06131  0.23907  0.27210  Biso   1.000  H
  H55      1.0000 0.31187  0.01808  0.24213  Biso   1.000  H
  H56      1.0000 0.28885  0.69638  0.46224  Biso   1.000  H
  H57      1.0000 0.07799  0.76799  0.25385  Biso   1.000  H
  H58      1.0000 0.80470  0.98130  0.27173  Biso   1.000  H
  H59      1.0000 0.73144  0.75116  0.96496  Biso   1.000  H
  H60      1.0000 0.47931  0.72091  0.29196  Biso   1.000  H
  H61      1.0000 0.81330  0.44252  0.75477  Biso   1.000  H
  H62      1.0000 0.74534  0.72526  0.50544  Biso   1.000  H
  H63      1.0000 0.48719  0.74355  0.78278  Biso   1.000  H
  H64      1.0000 0.26407  0.45516  0.79453  Biso   1.000  H
  H65      1.0000 0.22668  0.72642  0.03103  Biso   1.000  H
  H66      1.0000 0.99853  0.74699  0.71085  Biso   1.000  H
  H67      1.0000 0.74757  0.02667  0.76001  Biso   1.000  H
  H68      1.0000 0.81652  0.23184  0.45668  Biso   1.000  H
  H69      1.0000 0.05131  0.18929  0.73129  Biso   1.000  H
  H70      1.0000 0.24707  0.95457  0.73603  Biso   1.000  H
  H71      1.0000 0.32076  0.21887  0.02544  Biso   1.000  H
  H72      1.0000 0.55882  0.24742  0.71272  Biso   1.000  H
  H73      1.0000 0.78837  0.45268  0.79172  Biso   1.000  H
  H74      1.0000 0.76409  0.69709  0.55657  Biso   1.000  H
  H75      1.0000 0.54792  0.71928  0.71323  Biso   1.000  H
  H76      1.0000 0.22967  0.51760  0.77241  Biso   1.000  H
  H77      1.0000 0.31363  0.74413  0.97553  Biso   1.000  H
  H78      1.0000 0.05464  0.72312  0.79236  Biso   1.000  H
  H79      1.0000 0.81422  0.02786  0.74465  Biso   1.000  H
  H80      1.0000 0.79905  0.20409  0.51614  Biso   1.000  H
  H81      1.0000 0.05409  0.26979  0.75422  Biso   1.000  H
  H82      1.0000 0.32593  0.95546  0.76892  Biso   1.000  H
  H83      1.0000 0.24183  0.24895  0.97764  Biso   1.000  H
  H84      1.0000 0.50842  0.21590  0.79327  Biso   1.000  H
  H85      1.0000 0.26607  0.50375  0.22333  Biso   1.000  H
  H86      1.0000 0.24364  0.22752  0.46440  Biso   1.000  H
  H87      1.0000 0.50662  0.24447  0.29123  Biso   1.000  H
  H88      1.0000 0.82547  0.45624  0.23551  Biso   1.000  H
  H89      1.0000 0.73459  0.22737  0.97417  Biso   1.000  H
  H90      1.0000 0.00040  0.25690  0.20349  Biso   1.000  H
  H91      1.0000 0.23178  0.96098  0.26855  Biso   1.000  H
  H92      1.0000 0.31852  0.71486  0.51416  Biso   1.000  H
  H93      1.0000 0.00940  0.69958  0.24246  Biso   1.000  H
  H94      1.0000 0.77908  0.92914  0.29839  Biso   1.000  H
  H95      1.0000 0.81646  0.72530  0.01842  Biso   1.000  H
  H96      1.0000 0.47095  0.69413  0.26312  Biso   1.000  H
  H97      1.0000 0.89811  0.98788  0.91699  Biso   1.000  H
  H98      1.0000 0.93239  0.85882  0.00212  Biso   1.000  H
  H99      1.0000 0.02051  0.89534  0.86473  Biso   1.000  H
  H100     1.0000 0.40428  0.97285  0.59385  Biso   1.000  H
  H101     1.0000 0.43747  0.84943  0.50974  Biso   1.000  H
  H102     1.0000 0.53260  0.90029  0.63868  Biso   1.000  H
  H103     1.0000 0.65966  0.48805  0.90971  Biso   1.000  H
  H104     1.0000 0.61626  0.35583  0.00495  Biso   1.000  H
  H105     1.0000 0.51977  0.39247  0.87119  Biso   1.000  H
  H106     1.0000 0.15689  0.48837  0.59947  Biso   1.000  H
  H107     1.0000 0.12196  0.35546  0.49841  Biso   1.000  H
  H108     1.0000 0.01772  0.39626  0.63016  Biso   1.000  H
  H109     1.0000 0.15844  0.99050  0.09516  Biso   1.000  H
  H110     1.0000 0.11656  0.12129  0.00295  Biso   1.000  H
  H111     1.0000 0.01412  0.08478  0.12732  Biso   1.000  H
  H112     1.0000 0.65660  0.98051  0.41512  Biso   1.000  H
  H113     1.0000 0.62250  0.12375  0.50331  Biso   1.000  H
  H114     1.0000 0.53784  0.07629  0.36606  Biso   1.000  H
  H115     1.0000 0.39510  0.49720  0.09839  Biso   1.000  H
  H116     1.0000 0.42644  0.61698  0.00037  Biso   1.000  H
  H117     1.0000 0.51429  0.57089  0.13870  Biso   1.000  H
  H118     1.0000 0.89834  0.50999  0.40618  Biso   1.000  H
  H119     1.0000 0.93882  0.62069  0.51143  Biso   1.000  H
  H120     1.0000 0.04022  0.58522  0.37339  Biso   1.000  H
  H121     1.0000 0.12073  0.98059  0.86232  Biso   1.000  H
  H122     1.0000 0.89327  0.07990  0.00970  Biso   1.000  H
  H123     1.0000 0.03032  0.85515  0.08887  Biso   1.000  H
  H124     1.0000 0.63059  0.98979  0.63278  Biso   1.000  H
  H125     1.0000 0.40004  0.08007  0.49318  Biso   1.000  H
  H126     1.0000 0.53034  0.84492  0.41246  Biso   1.000  H
  H127     1.0000 0.43336  0.48968  0.87661  Biso   1.000  H
  H128     1.0000 0.65485  0.58001  0.00197  Biso   1.000  H
  H129     1.0000 0.53221  0.35712  0.09293  Biso   1.000  H
  H130     1.0000 0.93349  0.46940  0.63272  Biso   1.000  H
  H131     1.0000 0.16300  0.57618  0.50129  Biso   1.000  H
  H132     1.0000 0.02735  0.35843  0.40064  Biso   1.000  H
  H133     1.0000 0.93004  0.98734  0.13384  Biso   1.000  H
  H134     1.0000 0.15277  0.89477  0.00132  Biso   1.000  H
  H135     1.0000 0.02847  0.12329  0.90290  Biso   1.000  H
  H136     1.0000 0.43134  0.99104  0.37276  Biso   1.000  H
  H137     1.0000 0.66383  0.90073  0.50780  Biso   1.000  H
  H138     1.0000 0.52519  0.12214  0.58776  Biso   1.000  H
  H139     1.0000 0.61439  0.50158  0.13856  Biso   1.000  H
  H140     1.0000 0.39743  0.39606  0.00995  Biso   1.000  H
  H141     1.0000 0.52682  0.61945  0.91425  Biso   1.000  H
  H142     1.0000 0.12876  0.48108  0.37245  Biso   1.000  H
  H143     1.0000 0.90034  0.40182  0.48608  Biso   1.000  H
  H144     1.0000 0.04845  0.61835  0.59425  Biso   1.000  H
  H145     1.0000 0.62056  0.48132  0.86902  Biso   1.000  H
  H146     1.0000 0.89357  0.57966  0.50880  Biso   1.000  H
  H147     1.0000 0.53066  0.85471  0.59425  Biso   1.000  H
  H148     1.0000 0.11661  0.49304  0.63843  Biso   1.000  H
  H149     1.0000 0.38699  0.57755  0.00626  Biso   1.000  H
  H150     1.0000 0.02636  0.85150  0.91021  Biso   1.000  H
  H151     1.0000 0.93896  0.97535  0.86833  Biso   1.000  H
  H152     1.0000 0.66477  0.08352  0.50703  Biso   1.000  H
  H153     1.0000 0.03016  0.35128  0.58322  Biso   1.000  H
  H154     1.0000 0.44000  0.97835  0.63253  Biso   1.000  H
  H155     1.0000 0.15809  0.08078  0.99315  Biso   1.000  H
  H156     1.0000 0.53362  0.34824  0.91030  Biso   1.000  H
  H157     1.0000 0.43901  0.48500  0.14089  Biso   1.000  H
  H158     1.0000 0.16133  0.39141  0.50787  Biso   1.000  H
  H159     1.0000 0.54569  0.12034  0.41002  Biso   1.000  H
  H160     1.0000 0.94260  0.50861  0.36190  Biso   1.000  H
  H161     1.0000 0.65686  0.39684  0.99954  Biso   1.000  H
  H162     1.0000 0.01551  0.12188  0.08807  Biso   1.000  H
  H163     1.0000 0.11968  0.99293  0.13337  Biso   1.000  H
  H164     1.0000 0.39797  0.89146  0.50734  Biso   1.000  H
  H165     1.0000 0.02475  0.62630  0.41539  Biso   1.000  H
  H166     1.0000 0.61144  0.97767  0.37205  Biso   1.000  H
  H167     1.0000 0.88894  0.89843  0.00497  Biso   1.000  H
  H168     1.0000 0.51449  0.61367  0.09297  Biso   1.000  H
  H169     1.0000 0.02553  0.07732  0.86015  Biso   1.000  H
  H170     1.0000 0.89083  0.98716  0.09556  Biso   1.000  H
  H171     1.0000 0.10780  0.85279  0.99328  Biso   1.000  H
  H172     1.0000 0.52404  0.07489  0.63525  Biso   1.000  H
  H173     1.0000 0.39259  0.99280  0.41812  Biso   1.000  H
  H174     1.0000 0.62436  0.85937  0.50111  Biso   1.000  H
  H175     1.0000 0.52410  0.57448  0.87018  Biso   1.000  H
  H176     1.0000 0.65835  0.49843  0.09137  Biso   1.000  H
  H177     1.0000 0.43732  0.35121  0.00472  Biso   1.000  H
  H178     1.0000 0.03132  0.57406  0.63123  Biso   1.000  H
  H179     1.0000 0.16666  0.47799  0.41337  Biso   1.000  H
  H180     1.0000 0.94361  0.35715  0.48807  Biso   1.000  H
  H181     1.0000 0.04213  0.89901  0.13006  Biso   1.000  H
  H182     1.0000 0.15904  0.98981  0.90530  Biso   1.000  H
  H183     1.0000 0.93472  0.12385  0.98919  Biso   1.000  H
  H184     1.0000 0.53048  0.89048  0.36861  Biso   1.000  H
  H185     1.0000 0.66942  0.98982  0.59037  Biso   1.000  H
  H186     1.0000 0.43935  0.11870  0.48828  Biso   1.000  H
  H187     1.0000 0.53238  0.39698  0.13787  Biso   1.000  H
  H188     1.0000 0.39068  0.48111  0.91954  Biso   1.000  H
  H189     1.0000 0.61584  0.61750  0.99755  Biso   1.000  H
  H190     1.0000 0.01990  0.39979  0.36291  Biso   1.000  H
  H191     1.0000 0.89384  0.47042  0.58638  Biso   1.000  H
  H192     1.0000 0.11791  0.61878  0.50392  Biso   1.000  H
  H193     1.0000 0.30006  0.84067  0.50650  Biso   1.000  H
  H194     1.0000 0.53881  0.25398  0.85573  Biso   1.000  H
  H195     1.0000 0.88929  0.49115  0.26710  Biso   1.000  H
  H196     1.0000 0.79293  0.84435  0.99670  Biso   1.000  H
  H197     1.0000 0.02597  0.25254  0.63325  Biso   1.000  H
  H198     1.0000 0.38660  0.49524  0.23587  Biso   1.000  H
  H199     1.0000 0.25978  0.34100  0.50956  Biso   1.000  H
  H200     1.0000 0.01868  0.75475  0.85578  Biso   1.000  H
  H201     1.0000 0.66336  0.96031  0.27746  Biso   1.000  H
  H202     1.0000 0.75579  0.34478  0.99677  Biso   1.000  H
  H203     1.0000 0.51677  0.75989  0.64895  Biso   1.000  H
  H204     1.0000 0.16655  0.99658  0.23208  Biso   1.000  H
  H205     1.0000 0.76532  0.13431  0.49629  Biso   1.000  H
  H206     1.0000 0.49184  0.71086  0.13806  Biso   1.000  H
  H207     1.0000 0.16239  0.47435  0.73559  Biso   1.000  H
  H208     1.0000 0.25515  0.13137  0.01162  Biso   1.000  H
  H209     1.0000 0.02996  0.71982  0.36271  Biso   1.000  H
  H210     1.0000 0.66695  0.48268  0.76756  Biso   1.000  H
  H211     1.0000 0.80034  0.63737  0.51200  Biso   1.000  H
  H212     1.0000 0.02693  0.22139  0.13834  Biso   1.000  H
  H213     1.0000 0.39753  0.98916  0.73202  Biso   1.000  H
  H214     1.0000 0.28884  0.62790  0.00276  Biso   1.000  H
  H215     1.0000 0.55198  0.21282  0.35449  Biso   1.000  H
  H216     1.0000 0.88186  0.99497  0.77820  Biso   1.000  H
  H217     1.0000 0.25909  0.52514  0.37075  Biso   1.000  H
  H218     1.0000 0.38756  0.21665  0.47292  Biso   1.000  H
  H219     1.0000 0.52758  0.33693  0.23155  Biso   1.000  H
  H220     1.0000 0.75591  0.48526  0.14380  Biso   1.000  H
  H221     1.0000 0.88193  0.22015  0.00072  Biso   1.000  H
  H222     1.0000 0.02029  0.35311  0.26369  Biso   1.000  H
  H223     1.0000 0.29369  0.99569  0.36748  Biso   1.000  H
  H224     1.0000 0.17202  0.71278  0.49072  Biso   1.000  H
  H225     1.0000 0.04765  0.84338  0.22638  Biso   1.000  H
  H226     1.0000 0.79455  0.97999  0.15199  Biso   1.000  H
  H227     1.0000 0.66161  0.71832  0.99311  Biso   1.000  H
  H228     1.0000 0.51262  0.84140  0.27310  Biso   1.000  H
  H229     1.0000 0.79391  0.47651  0.63520  Biso   1.000  H
  H230     1.0000 0.67480  0.76113  0.53115  Biso   1.000  H
  H231     1.0000 0.52976  0.62983  0.77397  Biso   1.000  H
  H232     1.0000 0.29592  0.47857  0.86605  Biso   1.000  H
  H233     1.0000 0.16597  0.75887  0.99238  Biso   1.000  H
  H234     1.0000 0.00701  0.62508  0.72839  Biso   1.000  H
  H235     1.0000 0.76889  0.98681  0.64425  Biso   1.000  H
  H236     1.0000 0.88238  0.26125  0.48925  Biso   1.000  H
  H237     1.0000 0.00912  0.12865  0.76488  Biso   1.000  H
  H238     1.0000 0.26019  0.98045  0.85582  Biso   1.000  H
  H239     1.0000 0.38455  0.25620  0.00215  Biso   1.000  H
  H240     1.0000 0.52708  0.12640  0.73126  Biso   1.000  H
  H241     1.0000 0.75623  0.49676  0.85612  Biso   1.000  H
  H242     1.0000 0.88681  0.71787  0.52986  Biso   1.000  H
  H243     1.0000 0.55062  0.84398  0.73175  Biso   1.000  H
  H244     1.0000 0.25489  0.49725  0.65184  Biso   1.000  H
  H245     1.0000 0.37640  0.71697  0.01279  Biso   1.000  H
  H246     1.0000 0.03731  0.83663  0.77276  Biso   1.000  H
  H247     1.0000 0.80076  0.99951  0.86237  Biso   1.000  H
  H248     1.0000 0.67436  0.22345  0.50296  Biso   1.000  H
  H249     1.0000 0.01777  0.33496  0.72396  Biso   1.000  H
  H250     1.0000 0.30444  0.97503  0.64675  Biso   1.000  H
  H251     1.0000 0.16710  0.21827  0.00595  Biso   1.000  H
  H252     1.0000 0.51570  0.34303  0.77297  Biso   1.000  H
  H253     1.0000 0.30389  0.52835  0.15167  Biso   1.000  H
  H254     1.0000 0.17074  0.25500  0.50080  Biso   1.000  H
  H255     1.0000 0.52318  0.13469  0.27287  Biso   1.000  H
  H256     1.0000 0.80365  0.48824  0.35399  Biso   1.000  H
  H257     1.0000 0.67139  0.25808  0.00208  Biso   1.000  H
  H258     1.0000 0.02272  0.13008  0.22715  Biso   1.000  H
  H259     1.0000 0.25467  0.97780  0.14419  Biso   1.000  H
  H260     1.0000 0.38708  0.75256  0.49850  Biso   1.000  H
  H261     1.0000 0.04471  0.63938  0.27786  Biso   1.000  H
  H262     1.0000 0.75276  0.97422  0.35806  Biso   1.000  H
  H263     1.0000 0.87765  0.76304  0.98592  Biso   1.000  H
  H264     1.0000 0.51613  0.63006  0.23366  Biso   1.000  H
  H265     1.0000 0.01477  0.21508  0.84799  Biso   1.000  H
  H266     1.0000 0.88183  0.96726  0.23298  Biso   1.000  H
  H267     1.0000 0.24806  0.84010  0.00575  Biso   1.000  H
  H268     1.0000 0.52404  0.21581  0.64619  Biso   1.000  H
  H269     1.0000 0.38045  0.99983  0.27732  Biso   1.000  H
  H270     1.0000 0.76253  0.84785  0.51820  Biso   1.000  H
  H271     1.0000 0.52016  0.71357  0.85475  Biso   1.000  H
  H272     1.0000 0.67440  0.49772  0.23215  Biso   1.000  H
  H273     1.0000 0.30343  0.34609  0.03533  Biso   1.000  H
  H274     1.0000 0.04255  0.71202  0.64988  Biso   1.000  H
  H275     1.0000 0.17822  0.51973  0.28076  Biso   1.000  H
  H276     1.0000 0.80291  0.35415  0.47163  Biso   1.000  H
  H277     1.0000 0.03382  0.75870  0.14434  Biso   1.000  H
  H278     1.0000 0.17394  0.97927  0.76660  Biso   1.000  H
  H279     1.0000 0.79745  0.13307  0.02334  Biso   1.000  H
  H280     1.0000 0.51618  0.75050  0.35852  Biso   1.000  H
  H281     1.0000 0.68061  0.99783  0.73002  Biso   1.000  H
  H282     1.0000 0.30191  0.12589  0.49208  Biso   1.000  H
  H283     1.0000 0.51795  0.25929  0.14583  Biso   1.000  H
  H284     1.0000 0.38043  0.47903  0.78131  Biso   1.000  H
  H285     1.0000 0.75423  0.63090  0.99787  Biso   1.000  H
  H286     1.0000 0.03743  0.26291  0.34519  Biso   1.000  H
  H287     1.0000 0.87462  0.47977  0.72521  Biso   1.000  H
  H288     1.0000 0.25822  0.62931  0.50225  Biso   1.000  H
  H289     1.0000 0.11459  0.21852  0.00218  Biso   1.000  H
  H290     1.0000 0.02051  0.07691  0.22467  Biso   1.000  H
  H291     1.0000 0.25254  0.98691  0.09444  Biso   1.000  H
  H292     1.0000 0.61986  0.21765  0.50338  Biso   1.000  H
  H293     1.0000 0.51380  0.07892  0.27367  Biso   1.000  H
  H294     1.0000 0.75362  0.97863  0.40904  Biso   1.000  H
  H295     1.0000 0.43306  0.71280  0.01496  Biso   1.000  H
  H296     1.0000 0.52321  0.57661  0.23333  Biso   1.000  H
  H297     1.0000 0.30479  0.51789  0.09623  Biso   1.000  H
  H298     1.0000 0.94054  0.71546  0.52870  Biso   1.000  H
  H299     1.0000 0.05200  0.58568  0.27656  Biso   1.000  H
  H300     1.0000 0.80525  0.49261  0.40775  Biso   1.000  H
  H301     1.0000 0.93246  0.76370  0.98547  Biso   1.000  H
  H302     1.0000 0.04213  0.89207  0.77259  Biso   1.000  H
  H303     1.0000 0.80267  0.99127  0.91784  Biso   1.000  H
  H304     1.0000 0.44054  0.75357  0.50323  Biso   1.000  H
  H305     1.0000 0.55411  0.89656  0.73040  Biso   1.000  H
  H306     1.0000 0.30780  0.97347  0.59254  Biso   1.000  H
  H307     1.0000 0.61606  0.25863  0.01023  Biso   1.000  H
  H308     1.0000 0.51038  0.39559  0.77685  Biso   1.000  H
  H309     1.0000 0.75417  0.50053  0.91257  Biso   1.000  H
  H310     1.0000 0.11931  0.25768  0.48992  Biso   1.000  H
  H311     1.0000 0.01409  0.38879  0.72372  Biso   1.000  H
  H312     1.0000 0.25314  0.50367  0.60012  Biso   1.000  H
  H313     1.0000 0.25596  0.98556  0.90939  Biso   1.000  H
  H314     1.0000 0.93312  0.21970  0.99167  Biso   1.000  H
  H315     1.0000 0.05086  0.89929  0.22566  Biso   1.000  H
  H316     1.0000 0.76642  0.99059  0.59231  Biso   1.000  H
  H317     1.0000 0.44217  0.21508  0.47277  Biso   1.000  H
  H318     1.0000 0.51342  0.89410  0.27385  Biso   1.000  H
  H319     1.0000 0.29481  0.47188  0.91889  Biso   1.000  H
  H320     1.0000 0.60919  0.71675  0.99063  Biso   1.000  H
  H321     1.0000 0.53483  0.39503  0.23467  Biso   1.000  H
  H322     1.0000 0.79887  0.46622  0.58115  Biso   1.000  H
  H323     1.0000 0.11973  0.71290  0.49016  Biso   1.000  H
  H324     1.0000 0.01627  0.40669  0.26424  Biso   1.000  H
  H325     1.0000 0.79521  0.98886  0.09696  Biso   1.000  H
  H326     1.0000 0.11186  0.75583  0.99574  Biso   1.000  H
  H327     1.0000 0.01586  0.07608  0.76391  Biso   1.000  H
  H328     1.0000 0.29791  0.98359  0.42291  Biso   1.000  H
  H329     1.0000 0.62388  0.76085  0.52405  Biso   1.000  H
  H330     1.0000 0.53255  0.07320  0.72656  Biso   1.000  H
  H331     1.0000 0.75501  0.48438  0.09354  Biso   1.000  H
  H332     1.0000 0.44061  0.25748  0.99920  Biso   1.000  H
  H333     1.0000 0.53153  0.57591  0.77545  Biso   1.000  H
  H334     1.0000 0.25619  0.51028  0.42483  Biso   1.000  H
  H335     1.0000 0.93857  0.26092  0.49018  Biso   1.000  H
  H336     1.0000 0.00381  0.57040  0.72391  Biso   1.000  H
  H337     1.0000 0.02329  0.21719  0.90284  Biso   1.000  H
  H338     1.0000 0.93645  0.96733  0.22703  Biso   1.000  H
  H339     1.0000 0.25112  0.89357  0.00762  Biso   1.000  H
  H340     1.0000 0.52432  0.21522  0.59084  Biso   1.000  H
  H341     1.0000 0.43153  0.99347  0.27808  Biso   1.000  H
  H342     1.0000 0.75757  0.90558  0.51177  Biso   1.000  H
  H343     1.0000 0.51099  0.71568  0.91073  Biso   1.000  H
  H344     1.0000 0.62044  0.49539  0.23426  Biso   1.000  H
  H345     1.0000 0.30816  0.40039  0.03667  Biso   1.000  H
  H346     1.0000 0.04853  0.71359  0.59446  Biso   1.000  H
  H347     1.0000 0.12748  0.50272  0.27731  Biso   1.000  H
  H348     1.0000 0.80671  0.40760  0.46897  Biso   1.000  H
  H349     1.0000 0.02488  0.75958  0.08943  Biso   1.000  H
  H350     1.0000 0.11815  0.98093  0.76823  Biso   1.000  H
  H351     1.0000 0.79895  0.07944  0.01673  Biso   1.000  H
  H352     1.0000 0.52279  0.75199  0.41559  Biso   1.000  H
  H353     1.0000 0.62570  0.99404  0.72690  Biso   1.000  H
  H354     1.0000 0.30446  0.07481  0.50285  Biso   1.000  H
  H355     1.0000 0.52496  0.26340  0.09188  Biso   1.000  H
  H356     1.0000 0.43279  0.48684  0.78130  Biso   1.000  H
  H357     1.0000 0.75306  0.57854  0.99920  Biso   1.000  H
  H358     1.0000 0.04109  0.26330  0.40454  Biso   1.000  H
  H359     1.0000 0.93073  0.47877  0.72900  Biso   1.000  H
  H360     1.0000 0.25982  0.57712  0.50755  Biso   1.000  H
  H361     1.0000 0.01426  0.72234  0.41584  Biso   1.000  H
  H362     1.0000 0.45145  0.98776  0.72601  Biso   1.000  H
  H363     1.0000 0.75328  0.40031  0.99866  Biso   1.000  H
  H364     1.0000 0.49485  0.70587  0.08712  Biso   1.000  H
  H365     1.0000 0.93683  0.98786  0.77260  Biso   1.000  H
  H366     1.0000 0.25578  0.39763  0.51442  Biso   1.000  H
  H367     1.0000 0.55139  0.21479  0.41101  Biso   1.000  H
  H368     1.0000 0.11181  0.47447  0.73179  Biso   1.000  H
  H369     1.0000 0.78992  0.89832  0.99480  Biso   1.000  H
  H370     1.0000 0.02642  0.21874  0.08548  Biso   1.000  H
  H371     1.0000 0.61449  0.47653  0.77543  Biso   1.000  H
  H372     1.0000 0.30345  0.89513  0.50958  Biso   1.000  H
  H373     1.0000 0.02568  0.25583  0.58177  Biso   1.000  H
  H374     1.0000 0.60697  0.96224  0.27959  Biso   1.000  H
  H375     1.0000 0.29295  0.57697  0.99618  Biso   1.000  H
  H376     1.0000 0.53630  0.25491  0.91106  Biso   1.000  H
  H377     1.0000 0.11195  0.00185  0.22930  Biso   1.000  H
  H378     1.0000 0.79815  0.58348  0.50721  Biso   1.000  H
  H379     1.0000 0.51824  0.75917  0.59410  Biso   1.000  H
  H380     1.0000 0.94033  0.49177  0.26630  Biso   1.000  H
  H381     1.0000 0.25041  0.07513  0.00854  Biso   1.000  H
  H382     1.0000 0.01967  0.75614  0.91140  Biso   1.000  H
  H383     1.0000 0.44063  0.47863  0.23491  Biso   1.000  H
  H384     1.0000 0.76003  0.07975  0.49334  Biso   1.000  H
  H385     1.0000 0.26417  0.48856  0.33431  Biso   1.000  H
  H386     1.0000 0.30168  0.15835  0.46170  Biso   1.000  H
  H387     1.0000 0.49510  0.30712  0.22645  Biso   1.000  H
  H388     1.0000 0.69977  0.46289  0.22811  Biso   1.000  H
  H389     1.0000 0.85228  0.21778  0.03346  Biso   1.000  H
  H390     1.0000 0.98658  0.31696  0.27156  Biso   1.000  H
  H391     1.0000 0.29418  0.96721  0.33686  Biso   1.000  H
  H392     1.0000 0.20577  0.71077  0.53028  Biso   1.000  H
  H393     1.0000 0.99558  0.77201  0.18371  Biso   1.000  H
  H394     1.0000 0.80137  0.94326  0.17144  Biso   1.000  H
  H395     1.0000 0.75018  0.66460  0.02790  Biso   1.000  H
  H396     1.0000 0.53873  0.80704  0.27307  Biso   1.000  H
  H397     1.0000 0.79576  0.50419  0.66751  Biso   1.000  H
  H398     1.0000 0.75581  0.82122  0.54860  Biso   1.000  H
  H399     1.0000 0.56417  0.66467  0.78732  Biso   1.000  H
  H400     1.0000 0.35246  0.51471  0.78782  Biso   1.000  H
  H401     1.0000 0.24896  0.81364  0.97259  Biso   1.000  H
  H402     1.0000 0.04304  0.65186  0.73752  Biso   1.000  H
  H403     1.0000 0.75663  0.95301  0.68341  Biso   1.000  H
  H404     1.0000 0.80583  0.32251  0.51245  Biso   1.000  H
  H405     1.0000 0.98320  0.21133  0.81234  Biso   1.000  H
  H406     1.0000 0.25486  0.01640  0.82478  Biso   1.000  H
  H407     1.0000 0.29743  0.31963  0.99641  Biso   1.000  H
  H408     1.0000 0.49689  0.16046  0.72382  Biso   1.000  H
  H409     1.0000 0.29935  0.49627  0.18448  Biso   1.000  H
  H410     1.0000 0.20712  0.26374  0.46504  Biso   1.000  H
  H411     1.0000 0.50474  0.20816  0.32542  Biso   1.000  H
  H412     1.0000 0.86435  0.46214  0.27115  Biso   1.000  H
  H413     1.0000 0.70176  0.27115  0.96730  Biso   1.000  H
  H414     1.0000 0.99556  0.21916  0.16728  Biso   1.000  H
  H415     1.0000 0.19509  0.96109  0.23452  Biso   1.000  H
  H416     1.0000 0.35678  0.75281  0.52333  Biso   1.000  H
  H417     1.0000 0.01121  0.66274  0.28095  Biso   1.000  H
  H418     1.0000 0.74631  0.93800  0.33172  Biso   1.000  H
  H419     1.0000 0.85138  0.76201  0.02298  Biso   1.000  H
  H420     1.0000 0.47307  0.65554  0.22479  Biso   1.000  H
  H421     1.0000 0.75231  0.45639  0.82920  Biso   1.000  H
  H422     1.0000 0.80152  0.65874  0.55327  Biso   1.000  H
  H423     1.0000 0.55210  0.75659  0.67617  Biso   1.000  H
  H424     1.0000 0.19310  0.51199  0.73896  Biso   1.000  H
  H425     1.0000 0.34928  0.71228  0.98280  Biso   1.000  H
  H426     1.0000 0.05593  0.75947  0.82674  Biso   1.000  H
  H427     1.0000 0.85097  0.03482  0.78378  Biso   1.000  H
  H428     1.0000 0.76166  0.16408  0.52083  Biso   1.000  H
  H429     1.0000 0.05156  0.30924  0.71921  Biso   1.000  H
  H430     1.0000 0.36073  0.95238  0.73267  Biso   1.000  H
  H431     1.0000 0.20311  0.21184  0.97367  Biso   1.000  H
  H432     1.0000 0.50496  0.25179  0.83090  Biso   1.000  H
  H433     1.0000 0.30864  0.01057  0.67572  Biso   1.000  H
  H434     1.0000 0.74907  0.31433  0.03574  Biso   1.000  H
  H435     1.0000 0.06035  0.72784  0.33399  Biso   1.000  H
  H436     1.0000 0.80654  0.96251  0.83101  Biso   1.000  H
  H437     1.0000 0.25228  0.30048  0.54315  Biso   1.000  H
  H438     1.0000 0.52731  0.71334  0.17074  Biso   1.000  H
  H439     1.0000 0.25427  0.46389  0.68217  Biso   1.000  H
  H440     1.0000 0.79683  0.81717  0.96370  Biso   1.000  H
  H441     1.0000 0.56972  0.15737  0.27730  Biso   1.000  H
  H442     1.0000 0.70157  0.51655  0.77215  Biso   1.000  H
  H443     1.0000 0.30073  0.81648  0.47449  Biso   1.000  H
  H444     1.0000 0.04621  0.15906  0.22606  Biso   1.000  H
  H445     1.0000 0.69210  0.98503  0.26914  Biso   1.000  H
  H446     1.0000 0.28849  0.65993  0.03664  Biso   1.000  H
  H447     1.0000 0.99472  0.25927  0.66068  Biso   1.000  H
  H448     1.0000 0.25024  0.01272  0.17815  Biso   1.000  H
  H449     1.0000 0.85354  0.72179  0.50043  Biso   1.000  H
  H450     1.0000 0.54550  0.31633  0.77258  Biso   1.000  H
  H451     1.0000 0.80159  0.51688  0.32040  Biso   1.000  H
  H452     1.0000 0.24487  0.16386  0.04424  Biso   1.000  H
  H453     1.0000 0.50987  0.81923  0.73212  Biso   1.000  H
  H454     1.0000 0.36801  0.53683  0.23841  Biso   1.000  H
  H455     1.0000 0.70351  0.21943  0.46845  Biso   1.000  H
  H456     1.0000 0.99708  0.81496  0.77802  Biso   1.000  H
  H457     1.0000 0.70764  0.75824  0.49360  Biso   1.000  H
  H458     1.0000 0.48258  0.70383  0.82112  Biso   1.000  H
  H459     1.0000 0.84479  0.43555  0.71409  Biso   1.000  H
  H460     1.0000 0.19260  0.76649  0.03157  Biso   1.000  H
  H461     1.0000 0.99864  0.71209  0.67474  Biso   1.000  H
  H462     1.0000 0.30583  0.44929  0.83350  Biso   1.000  H
  H463     1.0000 0.85432  0.26655  0.45203  Biso   1.000  H
  H464     1.0000 0.04827  0.15347  0.77003  Biso   1.000  H
  H465     1.0000 0.71446  0.03026  0.71928  Biso   1.000  H
  H466     1.0000 0.35773  0.25649  0.03338  Biso   1.000  H
  H467     1.0000 0.55923  0.21398  0.67424  Biso   1.000  H
  H468     1.0000 0.20828  0.94976  0.77545  Biso   1.000  H
  H469     1.0000 0.36409  0.21587  0.50526  Biso   1.000  H
  H470     1.0000 0.56630  0.26765  0.17602  Biso   1.000  H
  H471     1.0000 0.20577  0.54831  0.28521  Biso   1.000  H
  H472     1.0000 0.79972  0.16066  0.98342  Biso   1.000  H
  H473     1.0000 0.06544  0.27540  0.30978  Biso   1.000  H
  H474     1.0000 0.75627  0.51574  0.17345  Biso   1.000  H
  H475     1.0000 0.25323  0.65973  0.46333  Biso   1.000  H
  H476     1.0000 0.07333  0.80886  0.21859  Biso   1.000  H
  H477     1.0000 0.34724  0.02618  0.27985  Biso   1.000  H
  H478     1.0000 0.69670  0.71104  0.96109  Biso   1.000  H
  H479     1.0000 0.48123  0.75769  0.33178  Biso   1.000  H
  H480     1.0000 0.84548  0.99283  0.24006  Biso   1.000  H
  N1       1.0000 0.71001  0.16911  0.49687  Biso   1.000  N
  N2       1.0000 0.50353  0.65929  0.17689  Biso   1.000  N
  N3       1.0000 0.20058  0.48618  0.68534  Biso   1.000  N
  N4       1.0000 0.20151  0.16506  0.00369  Biso   1.000  N
  N5       1.0000 0.03713  0.66952  0.33154  Biso   1.000  N
  N6       1.0000 0.70364  0.48734  0.82417  Biso   1.000  N
  N7       1.0000 0.85323  0.66713  0.52175  Biso   1.000  N
  N8       1.0000 0.02077  0.16730  0.17205  Biso   1.000  N
  N9       1.0000 0.35916  0.98044  0.68115  Biso   1.000  N
  N10      1.0000 0.34432  0.66241  0.01147  Biso   1.000  N
  N11      1.0000 0.54153  0.16191  0.32358  Biso   1.000  N
  N12      1.0000 0.85348  0.99682  0.83105  Biso   1.000  N
  N13      1.0000 0.35317  0.80655  0.50135  Biso   1.000  N
  N14      1.0000 0.52507  0.30736  0.82521  Biso   1.000  N
  N15      1.0000 0.85581  0.49281  0.32186  Biso   1.000  N
  N16      1.0000 0.84614  0.81466  0.99668  Biso   1.000  N
  N17      1.0000 0.02331  0.30668  0.66892  Biso   1.000  N
  N18      1.0000 0.35653  0.50905  0.18698  Biso   1.000  N
  N19      1.0000 0.20679  0.30851  0.50561  Biso   1.000  N
  N20      1.0000 0.02660  0.80916  0.82500  Biso   1.000  N
  N21      1.0000 0.69610  0.96970  0.32641  Biso   1.000  N
  N22      1.0000 0.70274  0.31285  0.00157  Biso   1.000  N
  N23      1.0000 0.53247  0.80985  0.67937  Biso   1.000  N
  N24      1.0000 0.19955  0.98887  0.18007  Biso   1.000  N
  N25      1.0000 0.84544  0.47100  0.67055  Biso   1.000  N
  N26      1.0000 0.70689  0.81581  0.51780  Biso   1.000  N
  N27      1.0000 0.52499  0.66181  0.82812  Biso   1.000  N
  N28      1.0000 0.34867  0.48243  0.83406  Biso   1.000  N
  N29      1.0000 0.19536  0.81163  0.99758  Biso   1.000  N
  N30      1.0000 0.02639  0.65954  0.67875  Biso   1.000  N
  N31      1.0000 0.71337  0.99062  0.67578  Biso   1.000  N
  N32      1.0000 0.85377  0.31788  0.48223  Biso   1.000  N
  N33      1.0000 0.01515  0.16214  0.81731  Biso   1.000  N
  N34      1.0000 0.20634  0.97974  0.82241  Biso   1.000  N
  N35      1.0000 0.35170  0.31090  0.01396  Biso   1.000  N
  N36      1.0000 0.52826  0.16285  0.67619  Biso   1.000  N
  N37      1.0000 0.20981  0.51321  0.33232  Biso   1.000  N
  N38      1.0000 0.35504  0.16326  0.48479  Biso   1.000  N
  N39      1.0000 0.52850  0.30984  0.17833  Biso   1.000  N
  N40      1.0000 0.70386  0.49281  0.17719  Biso   1.000  N
  N41      1.0000 0.85006  0.16538  0.00693  Biso   1.000  N
  N42      1.0000 0.02679  0.31821  0.31650  Biso   1.000  N
  N43      1.0000 0.34536  0.99799  0.33258  Biso   1.000  N
  N44      1.0000 0.20511  0.66183  0.49640  Biso   1.000  N
  N45      1.0000 0.03537  0.81215  0.17586  Biso   1.000  N
  N46      1.0000 0.84745  0.97294  0.18311  Biso   1.000  N
  N47      1.0000 0.69919  0.66547  0.99829  Biso   1.000  N
  N48      1.0000 0.51979  0.80370  0.32720  Biso   1.000  N
  O1       1.0000 0.36473  0.52930  0.00562  Biso   1.000  O
  O2       1.0000 0.02882  0.33016  0.53404  Biso   1.000  O
  O3       1.0000 0.56296  0.98245  0.34941  Biso   1.000  O
  O4       1.0000 0.87158  0.53320  0.50126  Biso   1.000  O
  O5       1.0000 0.53254  0.32387  0.95990  Biso   1.000  O
  O6       1.0000 0.06642  0.99300  0.15522  Biso   1.000  O
  O7       1.0000 0.17926  0.03068  0.00601  Biso   1.000  O
  O8       1.0000 0.53057  0.82965  0.54437  Biso   1.000  O
  O9       1.0000 0.99063  0.49848  0.34058  Biso   1.000  O
  O10      1.0000 0.68778  0.03425  0.49843  Biso   1.000  O
  O11      1.0000 0.02620  0.82722  0.95809  Biso   1.000  O
  O12      1.0000 0.48800  0.48123  0.16462  Biso   1.000  O
  O13      1.0000 0.67978  0.44709  0.00415  Biso   1.000  O
  O14      1.0000 0.01585  0.64877  0.46412  Biso   1.000  O
  O15      1.0000 0.49496  0.98170  0.65239  Biso   1.000  O
  O16      1.0000 0.18259  0.44423  0.51294  Biso   1.000  O
  O17      1.0000 0.52364  0.63816  0.04226  Biso   1.000  O
  O18      1.0000 0.98873  0.98095  0.84133  Biso   1.000  O
  O19      1.0000 0.86660  0.94828  0.00636  Biso   1.000  O
  O20      1.0000 0.53412  0.14393  0.45681  Biso   1.000  O
  O21      1.0000 0.06773  0.47940  0.65646  Biso   1.000  O
  O22      1.0000 0.37675  0.94288  0.50809  Biso   1.000  O
  O23      1.0000 0.02592  0.14479  0.03713  Biso   1.000  O
  O24      1.0000 0.56701  0.48118  0.84900  Biso   1.000  O
  O25      1.0000 0.98113  0.98035  0.15467  Biso   1.000  O
  O26      1.0000 0.17843  0.94515  0.99960  Biso   1.000  O
  O27      1.0000 0.02611  0.14402  0.95193  Biso   1.000  O
  O28      1.0000 0.47953  0.97955  0.34986  Biso   1.000  O
  O29      1.0000 0.68715  0.94998  0.50745  Biso   1.000  O
  O30      1.0000 0.52786  0.14567  0.54167  Biso   1.000  O
  O31      1.0000 0.56945  0.49255  0.16072  Biso   1.000  O
  O32      1.0000 0.37210  0.44832  0.01939  Biso   1.000  O
  O33      1.0000 0.51852  0.64370  0.95805  Biso   1.000  O
  O34      1.0000 0.07429  0.48946  0.34662  Biso   1.000  O
  O35      1.0000 0.87613  0.45096  0.48901  Biso   1.000  O
  O36      1.0000 0.03864  0.64493  0.54324  Biso   1.000  O
  O37      1.0000 0.07086  0.98996  0.83588  Biso   1.000  O
  O38      1.0000 0.86762  0.02869  0.00630  Biso   1.000  O
  O39      1.0000 0.01615  0.83077  0.04216  Biso   1.000  O
  O40      1.0000 0.58010  0.98606  0.65480  Biso   1.000  O
  O41      1.0000 0.37702  0.02669  0.50399  Biso   1.000  O
  O42      1.0000 0.53516  0.82386  0.46098  Biso   1.000  O
  O43      1.0000 0.48387  0.49156  0.84865  Biso   1.000  O
  O44      1.0000 0.68237  0.53181  0.99885  Biso   1.000  O
  O45      1.0000 0.52780  0.33191  0.04309  Biso   1.000  O
  O46      1.0000 0.97912  0.48300  0.65143  Biso   1.000  O
  O47      1.0000 0.18740  0.52802  0.50474  Biso   1.000  O
  O48      1.0000 0.03510  0.33393  0.44987  Biso   1.000  O
  O49      1.0000 0.03035  0.94573  0.15273  Biso   1.000  O
  O50      1.0000 0.18218  0.98831  0.95750  Biso   1.000  O
  O51      1.0000 0.98258  0.14734  0.99099  Biso   1.000  O
  O52      1.0000 0.52340  0.93879  0.35020  Biso   1.000  O
  O53      1.0000 0.69412  0.99301  0.54220  Biso   1.000  O
  O54      1.0000 0.48939  0.14489  0.49232  Biso   1.000  O
  O55      1.0000 0.53581  0.44528  0.16294  Biso   1.000  O
  O56      1.0000 0.36709  0.47929  0.97005  Biso   1.000  O
  O57      1.0000 0.56305  0.64212  0.99483  Biso   1.000  O
  O58      1.0000 0.02557  0.45069  0.34264  Biso   1.000  O
  O59      1.0000 0.87119  0.48329  0.53736  Biso   1.000  O
  O60      1.0000 0.07017  0.64222  0.49445  Biso   1.000  O
  O61      1.0000 0.02384  0.02791  0.83826  Biso   1.000  O
  O62      1.0000 0.86420  0.99171  0.04680  Biso   1.000  O
  O63      1.0000 0.06209  0.82916  0.00599  Biso   1.000  O
  O64      1.0000 0.52919  0.02664  0.65527  Biso   1.000  O
  O65      1.0000 0.37370  0.98343  0.46473  Biso   1.000  O
  O66      1.0000 0.57417  0.83362  0.50543  Biso   1.000  O
  O67      1.0000 0.52878  0.52721  0.84627  Biso   1.000  O
  O68      1.0000 0.68318  0.48904  0.04374  Biso   1.000  O
  O69      1.0000 0.48688  0.32930  0.99696  Biso   1.000  O
  O70      1.0000 0.02288  0.52433  0.65255  Biso   1.000  O
  O71      1.0000 0.18424  0.48498  0.46640  Biso   1.000  O
  O72      1.0000 0.98902  0.33260  0.48842  Biso   1.000  O
  O73      1.0000 0.01838  0.44062  0.65344  Biso   1.000  O
  O74      1.0000 0.68501  0.99208  0.45988  Biso   1.000  O
  O75      1.0000 0.47898  0.63838  0.00412  Biso   1.000  O
  O76      1.0000 0.52398  0.44410  0.84847  Biso   1.000  O
  O77      1.0000 0.18314  0.98500  0.04124  Biso   1.000  O
  O78      1.0000 0.98630  0.64362  0.51206  Biso   1.000  O
  O79      1.0000 0.54441  0.94433  0.65603  Biso   1.000  O
  O80      1.0000 0.87366  0.49870  0.45641  Biso   1.000  O
  O81      1.0000 0.06618  0.14571  0.99387  Biso   1.000  O
  O82      1.0000 0.03510  0.94461  0.83908  Biso   1.000  O
  O83      1.0000 0.36832  0.49752  0.05028  Biso   1.000  O
  O84      1.0000 0.57464  0.14600  0.50575  Biso   1.000  O
  O85      1.0000 0.03971  0.53485  0.34472  Biso   1.000  O
  O86      1.0000 0.38023  0.98396  0.54743  Biso   1.000  O
  O87      1.0000 0.56931  0.32811  0.00562  Biso   1.000  O
  O88      1.0000 0.52168  0.52801  0.16273  Biso   1.000  O
  O89      1.0000 0.87078  0.99113  0.96554  Biso   1.000  O
  O90      1.0000 0.07172  0.33123  0.49543  Biso   1.000  O
  O91      1.0000 0.51986  0.02973  0.34753  Biso   1.000  O
  O92      1.0000 0.18389  0.48731  0.54970  Biso   1.000  O
  O93      1.0000 0.98112  0.83131  0.99653  Biso   1.000  O
  O94      1.0000 0.01720  0.03022  0.15130  Biso   1.000  O
  O95      1.0000 0.68252  0.48665  0.95951  Biso   1.000  O
  O96      1.0000 0.48784  0.82828  0.50113  Biso   1.000  O
  O97      1.0000 0.49047  0.19455  0.49443  Biso   1.000  O
  O98      1.0000 0.53184  0.44344  0.21233  Biso   1.000  O
  O99      1.0000 0.23215  0.48075  0.46745  Biso   1.000  O
  O100     1.0000 0.98263  0.19644  0.98818  Biso   1.000  O
  O101     1.0000 0.02831  0.45391  0.29287  Biso   1.000  O
  O102     1.0000 0.73218  0.48642  0.04468  Biso   1.000  O
  O103     1.0000 0.07102  0.69190  0.49426  Biso   1.000  O
  O104     1.0000 0.03603  0.94723  0.20298  Biso   1.000  O
  O105     1.0000 0.32406  0.98735  0.46641  Biso   1.000  O
  O106     1.0000 0.56333  0.68950  0.00010  Biso   1.000  O
  O107     1.0000 0.51992  0.94256  0.30251  Biso   1.000  O
  O108     1.0000 0.81586  0.98682  0.04806  Biso   1.000  O
  O109     1.0000 0.57544  0.78461  0.50870  Biso   1.000  O
  O110     1.0000 0.52651  0.52643  0.79884  Biso   1.000  O
  O111     1.0000 0.82377  0.48504  0.53613  Biso   1.000  O
  O112     1.0000 0.06260  0.78093  0.00111  Biso   1.000  O
  O113     1.0000 0.02201  0.52532  0.70119  Biso   1.000  O
  O114     1.0000 0.31805  0.47891  0.97097  Biso   1.000  O
  O115     1.0000 0.98960  0.28397  0.49198  Biso   1.000  O
  O116     1.0000 0.02087  0.02701  0.78911  Biso   1.000  O
  O117     1.0000 0.74331  0.99106  0.54174  Biso   1.000  O
  O118     1.0000 0.48699  0.28061  0.00372  Biso   1.000  O
  O119     1.0000 0.53510  0.02939  0.70393  Biso   1.000  O
  O120     1.0000 0.23045  0.99299  0.95761  Biso   1.000  O
  O121     1.0000 0.06282  0.48134  0.70540  Biso   1.000  O
  O122     1.0000 0.73561  0.03179  0.49568  Biso   1.000  O
  O123     1.0000 0.52255  0.68565  0.04480  Biso   1.000  O
  O124     1.0000 0.56586  0.48227  0.79919  Biso   1.000  O
  O125     1.0000 0.22788  0.02961  0.00303  Biso   1.000  O
  O126     1.0000 0.01665  0.69657  0.46669  Biso   1.000  O
  O127     1.0000 0.49770  0.97890  0.70068  Biso   1.000  O
  O128     1.0000 0.82235  0.53295  0.50103  Biso   1.000  O
  O129     1.0000 0.02197  0.19428  0.03667  Biso   1.000  O
  O130     1.0000 0.98438  0.97787  0.79188  Biso   1.000  O
  O131     1.0000 0.31584  0.52740  0.00234  Biso   1.000  O
  O132     1.0000 0.53706  0.19293  0.45733  Biso   1.000  O
  O133     1.0000 0.99246  0.50142  0.29203  Biso   1.000  O
  O134     1.0000 0.32924  0.94303  0.51054  Biso   1.000  O
  O135     1.0000 0.52986  0.27568  0.96185  Biso   1.000  O
  O136     1.0000 0.48784  0.48166  0.21319  Biso   1.000  O
  O137     1.0000 0.81851  0.95065  0.00256  Biso   1.000  O
  O138     1.0000 0.02650  0.28166  0.53336  Biso   1.000  O
  O139     1.0000 0.56273  0.98501  0.30137  Biso   1.000  O
  O140     1.0000 0.23265  0.44532  0.51516  Biso   1.000  O
  O141     1.0000 0.02101  0.77929  0.95866  Biso   1.000  O
  O142     1.0000 0.06491  0.99662  0.20415  Biso   1.000  O
  O143     1.0000 0.72834  0.44879  0.00180  Biso   1.000  O
  O144     1.0000 0.52967  0.78175  0.54747  Biso   1.000  O
  O145     1.0000 0.57271  0.48798  0.20881  Biso   1.000  O
  O146     1.0000 0.23581  0.52490  0.50623  Biso   1.000  O
  O147     1.0000 0.52604  0.19366  0.54064  Biso   1.000  O
  O148     1.0000 0.07721  0.48908  0.29784  Biso   1.000  O
  O149     1.0000 0.72989  0.53224  0.01000  Biso   1.000  O
  O150     1.0000 0.02903  0.19253  0.95150  Biso   1.000  O
  O151     1.0000 0.98523  0.97746  0.20403  Biso   1.000  O
  O152     1.0000 0.32928  0.02701  0.50729  Biso   1.000  O
  O153     1.0000 0.04228  0.69395  0.54685  Biso   1.000  O
  O154     1.0000 0.48021  0.98340  0.30116  Biso   1.000  O
  O155     1.0000 0.82032  0.03417  0.00697  Biso   1.000  O
  O156     1.0000 0.51517  0.69244  0.96200  Biso   1.000  O
  O157     1.0000 0.48232  0.48841  0.80111  Biso   1.000  O
  O158     1.0000 0.82719  0.44935  0.48786  Biso   1.000  O
  O159     1.0000 0.53649  0.77605  0.46276  Biso   1.000  O
  O160     1.0000 0.97902  0.48368  0.70065  Biso   1.000  O
  O161     1.0000 0.32428  0.44436  0.02327  Biso   1.000  O
  O162     1.0000 0.02003  0.78250  0.04235  Biso   1.000  O
  O163     1.0000 0.06997  0.98713  0.78701  Biso   1.000  O
  O164     1.0000 0.73464  0.94795  0.49695  Biso   1.000  O
  O165     1.0000 0.03422  0.28455  0.44966  Biso   1.000  O
  O166     1.0000 0.57939  0.99177  0.70444  Biso   1.000  O
  O167     1.0000 0.22663  0.94544  0.00252  Biso   1.000  O
  O168     1.0000 0.52703  0.28239  0.04511  Biso   1.000  O
  O169     1.0000 0.01813  0.02961  0.20108  Biso   1.000  O
  O170     1.0000 0.23073  0.98995  0.04363  Biso   1.000  O
  O171     1.0000 0.06407  0.19388  0.99974  Biso   1.000  O
  O172     1.0000 0.52044  0.02784  0.29909  Biso   1.000  O
  O173     1.0000 0.73195  0.98566  0.45698  Biso   1.000  O
  O174     1.0000 0.57378  0.19376  0.49871  Biso   1.000  O
  O175     1.0000 0.52534  0.52656  0.21181  Biso   1.000  O
  O176     1.0000 0.31965  0.49557  0.05145  Biso   1.000  O
  O177     1.0000 0.47867  0.68910  0.00357  Biso   1.000  O
  O178     1.0000 0.04105  0.53653  0.29623  Biso   1.000  O
  O179     1.0000 0.82603  0.50333  0.45402  Biso   1.000  O
  O180     1.0000 0.98832  0.69119  0.51991  Biso   1.000  O
  O181     1.0000 0.03171  0.94093  0.79061  Biso   1.000  O
  O182     1.0000 0.82275  0.99645  0.96455  Biso   1.000  O
  O183     1.0000 0.97931  0.78321  0.00223  Biso   1.000  O
  O184     1.0000 0.54703  0.94721  0.70475  Biso   1.000  O
  O185     1.0000 0.33120  0.98755  0.54858  Biso   1.000  O
  O186     1.0000 0.49136  0.77899  0.49771  Biso   1.000  O
  O187     1.0000 0.51995  0.44361  0.79959  Biso   1.000  O
  O188     1.0000 0.73084  0.49349  0.96131  Biso   1.000  O
  O189     1.0000 0.56977  0.27941  0.00834  Biso   1.000  O
  O190     1.0000 0.01747  0.44148  0.70219  Biso   1.000  O
  O191     1.0000 0.23289  0.49023  0.55075  Biso   1.000  O
  O192     1.0000 0.07185  0.28271  0.49504  Biso   1.000  O
