data_image0
_cell_length_a       46.5563
_cell_length_b       46.6105
_cell_length_c       46.5682
_cell_angle_alpha    90
_cell_angle_beta     90
_cell_angle_gamma    90

_symmetry_space_group_name_H-M    "P 1"
_symmetry_int_tables_number       1

loop_
  _symmetry_equiv_pos_as_xyz
  'x, y, z'

loop_
  _atom_site_label
  _atom_site_occupancy
  _atom_site_fract_x
  _atom_site_fract_y
  _atom_site_fract_z
  _atom_site_thermal_displace_type
  _atom_site_B_iso_or_equiv
  _atom_site_type_symbol
  C1       1.0000 0.55403  0.98919  0.34250  Biso   1.000  C
  C2       1.0000 0.31635  0.55384  0.03139  Biso   1.000  C
  C3       1.0000 0.99755  0.31257  0.57847  Biso   1.000  C
  C4       1.0000 0.04977  0.99530  0.20075  Biso   1.000  C
  C5       1.0000 0.81687  0.54358  0.51330  Biso   1.000  C
  C6       1.0000 0.49567  0.31932  0.96221  Biso   1.000  C
  C7       1.0000 0.95532  0.48604  0.33832  Biso   1.000  C
  C8       1.0000 0.17177  0.05874  0.01737  Biso   1.000  C
  C9       1.0000 0.50206  0.81495  0.58295  Biso   1.000  C
  C10      1.0000 0.45381  0.49113  0.21144  Biso   1.000  C
  C11      1.0000 0.67449  0.04786  0.53070  Biso   1.000  C
  C12      1.0000 0.99517  0.81560  0.96980  Biso   1.000  C
  C13      1.0000 0.43369  0.00295  0.70720  Biso   1.000  C
  C14      1.0000 0.68010  0.44537  0.01490  Biso   1.000  C
  C15      1.0000 0.00290  0.66980  0.46660  Biso   1.000  C
  C16      1.0000 0.93630  0.98611  0.84009  Biso   1.000  C
  C17      1.0000 0.18040  0.43743  0.52587  Biso   1.000  C
  C18      1.0000 0.48658  0.67894  0.08650  Biso   1.000  C
  C19      1.0000 0.04474  0.49025  0.70271  Biso   1.000  C
  C20      1.0000 0.82179  0.94320  0.03630  Biso   1.000  C
  C21      1.0000 0.50675  0.17908  0.46563  Biso   1.000  C
  C22      1.0000 0.54883  0.50348  0.83841  Biso   1.000  C
  C23      1.0000 0.31768  0.94116  0.52191  Biso   1.000  C
  C24      1.0000 0.98513  0.17767  0.07630  Biso   1.000  C
  C25      1.0000 0.31830  0.05032  0.51245  Biso   1.000  C
  C26      1.0000 0.50221  0.31837  0.07085  Biso   1.000  C
  C27      1.0000 0.06067  0.50080  0.33967  Biso   1.000  C
  C28      1.0000 0.81490  0.04864  0.01839  Biso   1.000  C
  C29      1.0000 0.99562  0.31663  0.46954  Biso   1.000  C
  C30      1.0000 0.56363  0.49381  0.20116  Biso   1.000  C
  C31      1.0000 0.17774  0.54365  0.52976  Biso   1.000  C
  C32      1.0000 0.00119  0.82124  0.07942  Biso   1.000  C
  C33      1.0000 0.44455  0.99169  0.33748  Biso   1.000  C
  C34      1.0000 0.67950  0.55314  0.01156  Biso   1.000  C
  C35      1.0000 0.49064  0.81117  0.47544  Biso   1.000  C
  C36      1.0000 0.94390  0.00576  0.20504  Biso   1.000  C
  C37      1.0000 0.67644  0.93839  0.52887  Biso   1.000  C
  C38      1.0000 0.50499  0.67975  0.98063  Biso   1.000  C
  C39      1.0000 0.93685  0.49622  0.70489  Biso   1.000  C
  C40      1.0000 0.17875  0.94938  0.02116  Biso   1.000  C
  C41      1.0000 0.98842  0.66873  0.57427  Biso   1.000  C
  C42      1.0000 0.44106  0.50597  0.84278  Biso   1.000  C
  C43      1.0000 0.81790  0.43300  0.50864  Biso   1.000  C
  C44      1.0000 0.00470  0.17745  0.96724  Biso   1.000  C
  C45      1.0000 0.54070  0.00843  0.70573  Biso   1.000  C
  C46      1.0000 0.32215  0.44563  0.03154  Biso   1.000  C
  C47      1.0000 0.49791  0.18051  0.57222  Biso   1.000  C
  C48      1.0000 0.04517  0.99552  0.84379  Biso   1.000  C
  C49      1.0000 0.98786  0.04465  0.84479  Biso   1.000  C
  C50      1.0000 0.81590  0.00568  0.08336  Biso   1.000  C
  C51      1.0000 0.05569  0.82086  0.02193  Biso   1.000  C
  C52      1.0000 0.48729  0.05786  0.70138  Biso   1.000  C
  C53      1.0000 0.32095  0.99105  0.46808  Biso   1.000  C
  C54      1.0000 0.55134  0.80877  0.52481  Biso   1.000  C
  C55      1.0000 0.49783  0.55973  0.84262  Biso   1.000  C
  C56      1.0000 0.68159  0.50131  0.06805  Biso   1.000  C
  C57      1.0000 0.44550  0.31724  0.02274  Biso   1.000  C
  C58      1.0000 0.99181  0.54761  0.70630  Biso   1.000  C
  C59      1.0000 0.18186  0.48984  0.47591  Biso   1.000  C
  C60      1.0000 0.94674  0.31444  0.52967  Biso   1.000  C
  C61      1.0000 0.99089  0.94414  0.20710  Biso   1.000  C
  C62      1.0000 0.17595  0.00421  0.96515  Biso   1.000  C
  C63      1.0000 0.93909  0.17864  0.01163  Biso   1.000  C
  C64      1.0000 0.49992  0.93708  0.34550  Biso   1.000  C
  C65      1.0000 0.67303  0.98963  0.58345  Biso   1.000  C
  C66      1.0000 0.44755  0.17778  0.51308  Biso   1.000  C
  C67      1.0000 0.50716  0.43831  0.20486  Biso   1.000  C
  C68      1.0000 0.31964  0.49546  0.97558  Biso   1.000  C
  C69      1.0000 0.55024  0.67337  0.04387  Biso   1.000  C
  C70      1.0000 0.01663  0.44272  0.34336  Biso   1.000  C
  C71      1.0000 0.81973  0.48426  0.56510  Biso   1.000  C
  C72      1.0000 0.04993  0.67047  0.52695  Biso   1.000  C
  C73      1.0000 0.00072  0.55120  0.33358  Biso   1.000  C
  C74      1.0000 0.31217  0.00112  0.57443  Biso   1.000  C
  C75      1.0000 0.55122  0.31734  0.01434  Biso   1.000  C
  C76      1.0000 0.50965  0.54897  0.20582  Biso   1.000  C
  C77      1.0000 0.81844  0.99195  0.97399  Biso   1.000  C
  C78      1.0000 0.05345  0.31300  0.51950  Biso   1.000  C
  C79      1.0000 0.50031  0.04924  0.34183  Biso   1.000  C
  C80      1.0000 0.17629  0.49285  0.58545  Biso   1.000  C
  C81      1.0000 0.94502  0.81653  0.02891  Biso   1.000  C
  C82      1.0000 0.00613  0.05190  0.20142  Biso   1.000  C
  C83      1.0000 0.68187  0.49934  0.95849  Biso   1.000  C
  C84      1.0000 0.44104  0.81393  0.53156  Biso   1.000  C
  C85      1.0000 0.98471  0.43739  0.70670  Biso   1.000  C
  C86      1.0000 0.67675  0.99260  0.47450  Biso   1.000  C
  C87      1.0000 0.44331  0.68131  0.02629  Biso   1.000  C
  C88      1.0000 0.48968  0.45179  0.83671  Biso   1.000  C
  C89      1.0000 0.17264  0.00530  0.07294  Biso   1.000  C
  C90      1.0000 0.94171  0.67350  0.51385  Biso   1.000  C
  C91      1.0000 0.48914  0.94946  0.70878  Biso   1.000  C
  C92      1.0000 0.82179  0.48979  0.45851  Biso   1.000  C
  C93      1.0000 0.04508  0.18045  0.03338  Biso   1.000  C
  C94      1.0000 0.99745  0.93689  0.84119  Biso   1.000  C
  C95      1.0000 0.32406  0.49817  0.08507  Biso   1.000  C
  C96      1.0000 0.55553  0.17681  0.52852  Biso   1.000  C
  C97      1.0000 0.67513  0.08089  0.53178  Biso   1.000  C
  C98      1.0000 0.48666  0.67754  0.11845  Biso   1.000  C
  C99      1.0000 0.07631  0.48709  0.70594  Biso   1.000  C
  C100     1.0000 0.17248  0.09052  0.02211  Biso   1.000  C
  C101     1.0000 0.00310  0.67126  0.43409  Biso   1.000  C
  C102     1.0000 0.58022  0.50655  0.83787  Biso   1.000  C
  C103     1.0000 0.81597  0.57638  0.51200  Biso   1.000  C
  C104     1.0000 0.98542  0.17764  0.10843  Biso   1.000  C
  C105     1.0000 0.40280  0.00692  0.70661  Biso   1.000  C
  C106     1.0000 0.31442  0.58602  0.03117  Biso   1.000  C
  C107     1.0000 0.50563  0.17986  0.43410  Biso   1.000  C
  C108     1.0000 0.90489  0.98579  0.84131  Biso   1.000  C
  C109     1.0000 0.31671  0.90906  0.52005  Biso   1.000  C
  C110     1.0000 0.49521  0.32037  0.92886  Biso   1.000  C
  C111     1.0000 0.92336  0.48443  0.33607  Biso   1.000  C
  C112     1.0000 0.82322  0.91085  0.03593  Biso   1.000  C
  C113     1.0000 0.99249  0.31361  0.61097  Biso   1.000  C
  C114     1.0000 0.42173  0.48892  0.21049  Biso   1.000  C
  C115     1.0000 0.17930  0.40610  0.51737  Biso   1.000  C
  C116     1.0000 0.99286  0.81475  0.93778  Biso   1.000  C
  C117     1.0000 0.58566  0.99237  0.34466  Biso   1.000  C
  C118     1.0000 0.67949  0.41238  0.01628  Biso   1.000  C
  C119     1.0000 0.50550  0.81794  0.61608  Biso   1.000  C
  C120     1.0000 0.08228  0.99297  0.19992  Biso   1.000  C
  C121     1.0000 0.81459  0.00743  0.11603  Biso   1.000  C
  C122     1.0000 0.08830  0.82196  0.01971  Biso   1.000  C
  C123     1.0000 0.99065  0.07736  0.84539  Biso   1.000  C
  C124     1.0000 0.31893  0.99088  0.43533  Biso   1.000  C
  C125     1.0000 0.58311  0.80595  0.52175  Biso   1.000  C
  C126     1.0000 0.49150  0.08908  0.70012  Biso   1.000  C
  C127     1.0000 0.68238  0.50380  0.09995  Biso   1.000  C
  C128     1.0000 0.41282  0.31854  0.02692  Biso   1.000  C
  C129     1.0000 0.49549  0.59362  0.84492  Biso   1.000  C
  C130     1.0000 0.18098  0.48603  0.44364  Biso   1.000  C
  C131     1.0000 0.91641  0.31366  0.53676  Biso   1.000  C
  C132     1.0000 0.98884  0.58002  0.70674  Biso   1.000  C
  C133     1.0000 0.17495  0.99892  0.93323  Biso   1.000  C
  C134     1.0000 0.90699  0.17713  0.00790  Biso   1.000  C
  C135     1.0000 0.98907  0.91223  0.20549  Biso   1.000  C
  C136     1.0000 0.67088  0.98629  0.61389  Biso   1.000  C
  C137     1.0000 0.41401  0.17654  0.51049  Biso   1.000  C
  C138     1.0000 0.50177  0.90500  0.34699  Biso   1.000  C
  C139     1.0000 0.31770  0.49357  0.94406  Biso   1.000  C
  C140     1.0000 0.58179  0.67461  0.04411  Biso   1.000  C
  C141     1.0000 0.50717  0.40639  0.20457  Biso   1.000  C
  C142     1.0000 0.81788  0.48487  0.59701  Biso   1.000  C
  C143     1.0000 0.08161  0.67056  0.52897  Biso   1.000  C
  C144     1.0000 0.01737  0.41061  0.34394  Biso   1.000  C
  C145     1.0000 0.32531  0.49810  0.11694  Biso   1.000  C
  C146     1.0000 0.08449  0.31019  0.51697  Biso   1.000  C
  C147     1.0000 0.49888  0.08098  0.34081  Biso   1.000  C
  C148     1.0000 0.82247  0.49218  0.42620  Biso   1.000  C
  C149     1.0000 0.58317  0.31571  0.01763  Biso   1.000  C
  C150     1.0000 0.01236  0.08411  0.20277  Biso   1.000  C
  C151     1.0000 0.17227  0.00813  0.10514  Biso   1.000  C
  C152     1.0000 0.40793  0.81450  0.53773  Biso   1.000  C
  C153     1.0000 0.00155  0.58301  0.33445  Biso   1.000  C
  C154     1.0000 0.67835  0.99483  0.44275  Biso   1.000  C
  C155     1.0000 0.91273  0.81451  0.03167  Biso   1.000  C
  C156     1.0000 0.51173  0.58165  0.20574  Biso   1.000  C
  C157     1.0000 0.68204  0.50035  0.92507  Biso   1.000  C
  C158     1.0000 0.91022  0.67400  0.51117  Biso   1.000  C
  C159     1.0000 0.49386  0.91722  0.70760  Biso   1.000  C
  C160     1.0000 0.17638  0.49486  0.61722  Biso   1.000  C
  C161     1.0000 0.41043  0.68182  0.02706  Biso   1.000  C
  C162     1.0000 0.99559  0.90510  0.83860  Biso   1.000  C
  C163     1.0000 0.81599  0.99016  0.94173  Biso   1.000  C
  C164     1.0000 0.58719  0.17840  0.53867  Biso   1.000  C
  C165     1.0000 0.97564  0.40691  0.70283  Biso   1.000  C
  C166     1.0000 0.30913  0.99546  0.60581  Biso   1.000  C
  C167     1.0000 0.07717  0.18123  0.03700  Biso   1.000  C
  C168     1.0000 0.49024  0.41985  0.83509  Biso   1.000  C
  C169     1.0000 0.00054  0.81928  0.11103  Biso   1.000  C
  C170     1.0000 0.07705  0.99223  0.84335  Biso   1.000  C
  C171     1.0000 0.81434  0.08029  0.01145  Biso   1.000  C
  C172     1.0000 0.49032  0.80981  0.44271  Biso   1.000  C
  C173     1.0000 0.57291  0.00974  0.70718  Biso   1.000  C
  C174     1.0000 0.31908  0.08139  0.50439  Biso   1.000  C
  C175     1.0000 0.50484  0.31828  0.10245  Biso   1.000  C
  C176     1.0000 0.40935  0.50173  0.84522  Biso   1.000  C
  C177     1.0000 0.67907  0.58516  0.01670  Biso   1.000  C
  C178     1.0000 0.99228  0.31684  0.43716  Biso   1.000  C
  C179     1.0000 0.90529  0.49981  0.70236  Biso   1.000  C
  C180     1.0000 0.17827  0.57703  0.53065  Biso   1.000  C
  C181     1.0000 0.00151  0.17592  0.93547  Biso   1.000  C
  C182     1.0000 0.91278  0.01201  0.20810  Biso   1.000  C
  C183     1.0000 0.18045  0.91726  0.02374  Biso   1.000  C
  C184     1.0000 0.49751  0.18229  0.60354  Biso   1.000  C
  C185     1.0000 0.41230  0.98963  0.33739  Biso   1.000  C
  C186     1.0000 0.67844  0.90603  0.52811  Biso   1.000  C
  C187     1.0000 0.50338  0.68281  0.94816  Biso   1.000  C
  C188     1.0000 0.59504  0.49429  0.19686  Biso   1.000  C
  C189     1.0000 0.31996  0.41349  0.03030  Biso   1.000  C
  C190     1.0000 0.98687  0.66869  0.60721  Biso   1.000  C
  C191     1.0000 0.09315  0.49606  0.34074  Biso   1.000  C
  C192     1.0000 0.81959  0.40214  0.51397  Biso   1.000  C
  C193     1.0000 0.83997  0.98930  0.92172  Biso   1.000  C
  C194     1.0000 0.89763  0.84190  0.03512  Biso   1.000  C
  C195     1.0000 0.99220  0.88912  0.86582  Biso   1.000  C
  C196     1.0000 0.33689  0.99925  0.62206  Biso   1.000  C
  C197     1.0000 0.39362  0.84064  0.53310  Biso   1.000  C
  C198     1.0000 0.49535  0.90135  0.68010  Biso   1.000  C
  C199     1.0000 0.65554  0.49872  0.90998  Biso   1.000  C
  C200     1.0000 0.59952  0.34296  0.01366  Biso   1.000  C
  C201     1.0000 0.49160  0.40319  0.86191  Biso   1.000  C
  C202     1.0000 0.14869  0.49374  0.63197  Biso   1.000  C
  C203     1.0000 0.10195  0.33655  0.51970  Biso   1.000  C
  C204     1.0000 0.98088  0.39121  0.67574  Biso   1.000  C
  C205     1.0000 0.14685  0.00548  0.12218  Biso   1.000  C
  C206     1.0000 0.09296  0.15450  0.03346  Biso   1.000  C
  C207     1.0000 0.01122  0.10122  0.17512  Biso   1.000  C
  C208     1.0000 0.65194  0.99649  0.42468  Biso   1.000  C
  C209     1.0000 0.60280  0.15184  0.53553  Biso   1.000  C
  C210     1.0000 0.49765  0.09654  0.36854  Biso   1.000  C
  C211     1.0000 0.35234  0.49559  0.13224  Biso   1.000  C
  C212     1.0000 0.39233  0.65492  0.02752  Biso   1.000  C
  C213     1.0000 0.50438  0.59850  0.17972  Biso   1.000  C
  C214     1.0000 0.84918  0.48948  0.41057  Biso   1.000  C
  C215     1.0000 0.89424  0.64607  0.51169  Biso   1.000  C
  C216     1.0000 0.00021  0.59727  0.36290  Biso   1.000  C
  C217     1.0000 0.09421  0.98939  0.86984  Biso   1.000  C
  C218     1.0000 0.84121  0.09621  0.00811  Biso   1.000  C
  C219     1.0000 0.99509  0.84590  0.12760  Biso   1.000  C
  C220     1.0000 0.58795  0.00489  0.67948  Biso   1.000  C
  C221     1.0000 0.34597  0.09765  0.50864  Biso   1.000  C
  C222     1.0000 0.49185  0.83774  0.42709  Biso   1.000  C
  C223     1.0000 0.39342  0.50136  0.87162  Biso   1.000  C
  C224     1.0000 0.65203  0.60082  0.02095  Biso   1.000  C
  C225     1.0000 0.50343  0.34518  0.12077  Biso   1.000  C
  C226     1.0000 0.89235  0.49645  0.67210  Biso   1.000  C
  C227     1.0000 0.15126  0.59311  0.53125  Biso   1.000  C
  C228     1.0000 0.99988  0.34405  0.42115  Biso   1.000  C
  C229     1.0000 0.89533  0.00914  0.18109  Biso   1.000  C
  C230     1.0000 0.15385  0.89987  0.02013  Biso   1.000  C
  C231     1.0000 0.99667  0.14757  0.92036  Biso   1.000  C
  C232     1.0000 0.39585  0.99235  0.36516  Biso   1.000  C
  C233     1.0000 0.65182  0.88862  0.52547  Biso   1.000  C
  C234     1.0000 0.49516  0.15602  0.62050  Biso   1.000  C
  C235     1.0000 0.60792  0.49506  0.16926  Biso   1.000  C
  C236     1.0000 0.34614  0.39802  0.02632  Biso   1.000  C
  C237     1.0000 0.49931  0.65790  0.92899  Biso   1.000  C
  C238     1.0000 0.10795  0.49517  0.36946  Biso   1.000  C
  C239     1.0000 0.84786  0.38880  0.51715  Biso   1.000  C
  C240     1.0000 0.98535  0.64238  0.62343  Biso   1.000  C
  C241     1.0000 0.59887  0.50408  0.86279  Biso   1.000  C
  C242     1.0000 0.84300  0.59341  0.51449  Biso   1.000  C
  C243     1.0000 0.50452  0.84621  0.62813  Biso   1.000  C
  C244     1.0000 0.09332  0.49123  0.68080  Biso   1.000  C
  C245     1.0000 0.34132  0.60372  0.03022  Biso   1.000  C
  C246     1.0000 0.99256  0.83991  0.91900  Biso   1.000  C
  C247     1.0000 0.88795  0.98841  0.86891  Biso   1.000  C
  C248     1.0000 0.65030  0.09906  0.53192  Biso   1.000  C
  C249     1.0000 0.98740  0.34121  0.62556  Biso   1.000  C
  C250     1.0000 0.38675  0.00781  0.67734  Biso   1.000  C
  C251     1.0000 0.14593  0.10569  0.02806  Biso   1.000  C
  C252     1.0000 0.49102  0.34856  0.91419  Biso   1.000  C
  C253     1.0000 0.40490  0.49239  0.18361  Biso   1.000  C
  C254     1.0000 0.15324  0.38837  0.52148  Biso   1.000  C
  C255     1.0000 0.50042  0.15069  0.41937  Biso   1.000  C
  C256     1.0000 0.90450  0.48594  0.36246  Biso   1.000  C
  C257     1.0000 0.65276  0.39468  0.01162  Biso   1.000  C
  C258     1.0000 0.99370  0.15130  0.12371  Biso   1.000  C
  C259     1.0000 0.09758  0.99757  0.17301  Biso   1.000  C
  C260     1.0000 0.34383  0.89370  0.52667  Biso   1.000  C
  C261     1.0000 0.00240  0.64575  0.41563  Biso   1.000  C
  C262     1.0000 0.60140  0.99623  0.37227  Biso   1.000  C
  C263     1.0000 0.84956  0.89408  0.03690  Biso   1.000  C
  C264     1.0000 0.49235  0.64987  0.13106  Biso   1.000  C
  C265     1.0000 0.99034  0.09445  0.87116  Biso   1.000  C
  C266     1.0000 0.84256  0.00767  0.13242  Biso   1.000  C
  C267     1.0000 0.10501  0.84829  0.01781  Biso   1.000  C
  C268     1.0000 0.49162  0.10623  0.67466  Biso   1.000  C
  C269     1.0000 0.34586  0.99449  0.41800  Biso   1.000  C
  C270     1.0000 0.59848  0.83402  0.52248  Biso   1.000  C
  C271     1.0000 0.49487  0.60729  0.87401  Biso   1.000  C
  C272     1.0000 0.65668  0.50098  0.11820  Biso   1.000  C
  C273     1.0000 0.39801  0.34591  0.02717  Biso   1.000  C
  C274     1.0000 0.98581  0.59347  0.67824  Biso   1.000  C
  C275     1.0000 0.15642  0.48735  0.42579  Biso   1.000  C
  C276     1.0000 0.89873  0.33991  0.53044  Biso   1.000  C
  C277     1.0000 0.99141  0.89732  0.17865  Biso   1.000  C
  C278     1.0000 0.14667  0.99799  0.91839  Biso   1.000  C
  C279     1.0000 0.89282  0.14877  0.00902  Biso   1.000  C
  C280     1.0000 0.50052  0.89074  0.37510  Biso   1.000  C
  C281     1.0000 0.64263  0.99303  0.62713  Biso   1.000  C
  C282     1.0000 0.39712  0.14942  0.51132  Biso   1.000  C
  C283     1.0000 0.50589  0.39347  0.17611  Biso   1.000  C
  C284     1.0000 0.34426  0.49612  0.92640  Biso   1.000  C
  C285     1.0000 0.59874  0.64948  0.03655  Biso   1.000  C
  C286     1.0000 0.01407  0.39343  0.37022  Biso   1.000  C
  C287     1.0000 0.84401  0.48850  0.61502  Biso   1.000  C
  C288     1.0000 0.09835  0.64428  0.52887  Biso   1.000  C
  C289     1.0000 0.34113  0.86113  0.52736  Biso   1.000  C
  C290     1.0000 0.49125  0.34953  0.88318  Biso   1.000  C
  C291     1.0000 0.87298  0.48645  0.35921  Biso   1.000  C
  C292     1.0000 0.84632  0.86276  0.03710  Biso   1.000  C
  C293     1.0000 0.98331  0.33834  0.65676  Biso   1.000  C
  C294     1.0000 0.37314  0.48824  0.18429  Biso   1.000  C
  C295     1.0000 0.15398  0.35781  0.51435  Biso   1.000  C
  C296     1.0000 0.99041  0.83700  0.88725  Biso   1.000  C
  C297     1.0000 0.63264  0.99577  0.37101  Biso   1.000  C
  C298     1.0000 0.65314  0.36253  0.01507  Biso   1.000  C
  C299     1.0000 0.50277  0.84770  0.66045  Biso   1.000  C
  C300     1.0000 0.12899  0.99928  0.17602  Biso   1.000  C
  C301     1.0000 0.65417  0.12957  0.53683  Biso   1.000  C
  C302     1.0000 0.49648  0.65149  0.16251  Biso   1.000  C
  C303     1.0000 0.12552  0.48778  0.68344  Biso   1.000  C
  C304     1.0000 0.14663  0.13704  0.03160  Biso   1.000  C
  C305     1.0000 0.00101  0.64927  0.38480  Biso   1.000  C
  C306     1.0000 0.63062  0.50655  0.85936  Biso   1.000  C
  C307     1.0000 0.84193  0.62477  0.51304  Biso   1.000  C
  C308     1.0000 0.99498  0.15217  0.15576  Biso   1.000  C
  C309     1.0000 0.35647  0.00322  0.67673  Biso   1.000  C
  C310     1.0000 0.33983  0.63432  0.03275  Biso   1.000  C
  C311     1.0000 0.50120  0.15037  0.38806  Biso   1.000  C
  C312     1.0000 0.85684  0.98845  0.86636  Biso   1.000  C
  C313     1.0000 0.15864  0.48705  0.39424  Biso   1.000  C
  C314     1.0000 0.36510  0.14981  0.50986  Biso   1.000  C
  C315     1.0000 0.50532  0.36200  0.17584  Biso   1.000  C
  C316     1.0000 0.66010  0.50184  0.14933  Biso   1.000  C
  C317     1.0000 0.86089  0.14960  0.00949  Biso   1.000  C
  C318     1.0000 0.00717  0.36314  0.36888  Biso   1.000  C
  C319     1.0000 0.34320  0.99357  0.38685  Biso   1.000  C
  C320     1.0000 0.12949  0.64439  0.53086  Biso   1.000  C
  C321     1.0000 0.99316  0.86506  0.17972  Biso   1.000  C
  C322     1.0000 0.84269  0.00847  0.16311  Biso   1.000  C
  C323     1.0000 0.62976  0.65155  0.03353  Biso   1.000  C
  C324     1.0000 0.49882  0.85855  0.37475  Biso   1.000  C
  C325     1.0000 0.84123  0.49216  0.64667  Biso   1.000  C
  C326     1.0000 0.63091  0.83445  0.52296  Biso   1.000  C
  C327     1.0000 0.49853  0.63924  0.87565  Biso   1.000  C
  C328     1.0000 0.34290  0.49916  0.89534  Biso   1.000  C
  C329     1.0000 0.13546  0.84667  0.02203  Biso   1.000  C
  C330     1.0000 0.98178  0.62461  0.67739  Biso   1.000  C
  C331     1.0000 0.64029  0.99447  0.65827  Biso   1.000  C
  C332     1.0000 0.86870  0.33769  0.53355  Biso   1.000  C
  C333     1.0000 0.99125  0.12564  0.86837  Biso   1.000  C
  C334     1.0000 0.14695  0.99453  0.88767  Biso   1.000  C
  C335     1.0000 0.36678  0.34502  0.02862  Biso   1.000  C
  C336     1.0000 0.49427  0.13674  0.67366  Biso   1.000  C
  C337     1.0000 0.65396  0.50392  0.87920  Biso   1.000  C
  C338     1.0000 0.86285  0.64674  0.51160  Biso   1.000  C
  C339     1.0000 0.49935  0.86902  0.68156  Biso   1.000  C
  C340     1.0000 0.14862  0.49018  0.66364  Biso   1.000  C
  C341     1.0000 0.36199  0.65631  0.03233  Biso   1.000  C
  C342     1.0000 0.99009  0.85759  0.86474  Biso   1.000  C
  C343     1.0000 0.83686  0.98961  0.88865  Biso   1.000  C
  C344     1.0000 0.63327  0.15115  0.54063  Biso   1.000  C
  C345     1.0000 0.97952  0.35979  0.67707  Biso   1.000  C
  C346     1.0000 0.33652  0.99795  0.65430  Biso   1.000  C
  C347     1.0000 0.12487  0.15745  0.03507  Biso   1.000  C
  C348     1.0000 0.49294  0.37178  0.86239  Biso   1.000  C
  C349     1.0000 0.35004  0.49070  0.16276  Biso   1.000  C
  C350     1.0000 0.13303  0.33553  0.51642  Biso   1.000  C
  C351     1.0000 0.49973  0.12795  0.36725  Biso   1.000  C
  C352     1.0000 0.84969  0.48750  0.38024  Biso   1.000  C
  C353     1.0000 0.63070  0.34150  0.01431  Biso   1.000  C
  C354     1.0000 0.00212  0.13135  0.17723  Biso   1.000  C
  C355     1.0000 0.14895  0.00244  0.15324  Biso   1.000  C
  C356     1.0000 0.36158  0.83995  0.53187  Biso   1.000  C
  C357     1.0000 0.00109  0.62884  0.36136  Biso   1.000  C
  C358     1.0000 0.65375  0.99647  0.39339  Biso   1.000  C
  C359     1.0000 0.86686  0.84119  0.03610  Biso   1.000  C
  C360     1.0000 0.50303  0.62946  0.18217  Biso   1.000  C
  C361     1.0000 0.99406  0.14763  0.88889  Biso   1.000  C
  C362     1.0000 0.86470  0.00900  0.18424  Biso   1.000  C
  C363     1.0000 0.15660  0.86828  0.02250  Biso   1.000  C
  C364     1.0000 0.49581  0.15823  0.65078  Biso   1.000  C
  C365     1.0000 0.36456  0.99349  0.36508  Biso   1.000  C
  C366     1.0000 0.65230  0.85753  0.52505  Biso   1.000  C
  C367     1.0000 0.49993  0.66026  0.89810  Biso   1.000  C
  C368     1.0000 0.63994  0.50045  0.17115  Biso   1.000  C
  C369     1.0000 0.34585  0.36692  0.02832  Biso   1.000  C
  C370     1.0000 0.98177  0.64619  0.65436  Biso   1.000  C
  C371     1.0000 0.13862  0.49025  0.37150  Biso   1.000  C
  C372     1.0000 0.84707  0.35856  0.52852  Biso   1.000  C
  C373     1.0000 0.99459  0.84399  0.15859  Biso   1.000  C
  C374     1.0000 0.12499  0.99091  0.86767  Biso   1.000  C
  C375     1.0000 0.83956  0.12817  0.00962  Biso   1.000  C
  C376     1.0000 0.49515  0.83597  0.39579  Biso   1.000  C
  C377     1.0000 0.61911  0.99970  0.67969  Biso   1.000  C
  C378     1.0000 0.34325  0.12836  0.50836  Biso   1.000  C
  C379     1.0000 0.50509  0.34170  0.15243  Biso   1.000  C
  C380     1.0000 0.36199  0.50123  0.87168  Biso   1.000  C
  C381     1.0000 0.65249  0.63219  0.02796  Biso   1.000  C
  C382     1.0000 0.00174  0.34165  0.39092  Biso   1.000  C
  C383     1.0000 0.86136  0.49482  0.67005  Biso   1.000  C
  C384     1.0000 0.15203  0.62458  0.53119  Biso   1.000  C
  C385     1.0000 0.17342  0.15346  0.03194  Biso   1.000  C
  C386     1.0000 0.98679  0.17751  0.17222  Biso   1.000  C
  C387     1.0000 0.14526  0.99758  0.20309  Biso   1.000  C
  C388     1.0000 0.68105  0.14366  0.54206  Biso   1.000  C
  C389     1.0000 0.50625  0.17744  0.37151  Biso   1.000  C
  C390     1.0000 0.64849  0.99632  0.34501  Biso   1.000  C
  C391     1.0000 0.31325  0.64988  0.03860  Biso   1.000  C
  C392     1.0000 0.49662  0.67662  0.18022  Biso   1.000  C
  C393     1.0000 0.35780  0.48738  0.21093  Biso   1.000  C
  C394     1.0000 0.81538  0.64059  0.51527  Biso   1.000  C
  C395     1.0000 0.99860  0.67724  0.37136  Biso   1.000  C
  C396     1.0000 0.85853  0.48473  0.33215  Biso   1.000  C
  C397     1.0000 0.81971  0.84787  0.03532  Biso   1.000  C
  C398     1.0000 0.98935  0.80976  0.87347  Biso   1.000  C
  C399     1.0000 0.84176  0.99028  0.84014  Biso   1.000  C
  C400     1.0000 0.31436  0.84570  0.52516  Biso   1.000  C
  C401     1.0000 0.50586  0.82247  0.67858  Biso   1.000  C
  C402     1.0000 0.34021  0.00096  0.70335  Biso   1.000  C
  C403     1.0000 0.67888  0.34788  0.02257  Biso   1.000  C
  C404     1.0000 0.49485  0.32271  0.86666  Biso   1.000  C
  C405     1.0000 0.64430  0.51049  0.83100  Biso   1.000  C
  C406     1.0000 0.18039  0.34384  0.50877  Biso   1.000  C
  C407     1.0000 0.98190  0.31095  0.67295  Biso   1.000  C
  C408     1.0000 0.13902  0.48172  0.71095  Biso   1.000  C
  C409     1.0000 0.13955  0.99000  0.83926  Biso   1.000  C
  C410     1.0000 0.81197  0.14220  0.00994  Biso   1.000  C
  C411     1.0000 0.99762  0.81723  0.17355  Biso   1.000  C
  C412     1.0000 0.63554  0.00136  0.70625  Biso   1.000  C
  C413     1.0000 0.31713  0.14392  0.50232  Biso   1.000  C
  C414     1.0000 0.49637  0.80918  0.37961  Biso   1.000  C
  C415     1.0000 0.34395  0.49995  0.84617  Biso   1.000  C
  C416     1.0000 0.67874  0.64905  0.03054  Biso   1.000  C
  C417     1.0000 0.50632  0.31426  0.16760  Biso   1.000  C
  C418     1.0000 0.84442  0.49752  0.69539  Biso   1.000  C
  C419     1.0000 0.17834  0.64054  0.53160  Biso   1.000  C
  C420     1.0000 0.99993  0.31556  0.37571  Biso   1.000  C
  C421     1.0000 0.85013  0.01186  0.21135  Biso   1.000  C
  C422     1.0000 0.18322  0.85409  0.02919  Biso   1.000  C
  C423     1.0000 0.99400  0.17429  0.87206  Biso   1.000  C
  C424     1.0000 0.34771  0.99448  0.33831  Biso   1.000  C
  C425     1.0000 0.67892  0.84270  0.52635  Biso   1.000  C
  C426     1.0000 0.49512  0.18502  0.66529  Biso   1.000  C
  C427     1.0000 0.65726  0.50180  0.19674  Biso   1.000  C
  C428     1.0000 0.31850  0.35136  0.03000  Biso   1.000  C
  C429     1.0000 0.50025  0.68862  0.88522  Biso   1.000  C
  C430     1.0000 0.15571  0.48943  0.34513  Biso   1.000  C
  C431     1.0000 0.82090  0.34452  0.53647  Biso   1.000  C
  C432     1.0000 0.98197  0.67300  0.66907  Biso   1.000  C
  C433     1.0000 0.98835  0.13978  0.84147  Biso   1.000  C
  C434     1.0000 0.81635  0.00848  0.17900  Biso   1.000  C
  C435     1.0000 0.15026  0.81971  0.02433  Biso   1.000  C
  C436     1.0000 0.49778  0.15343  0.69964  Biso   1.000  C
  C437     1.0000 0.31638  0.99285  0.37106  Biso   1.000  C
  C438     1.0000 0.64682  0.80801  0.52439  Biso   1.000  C
  C439     1.0000 0.49540  0.65729  0.85062  Biso   1.000  C
  C440     1.0000 0.68774  0.50448  0.16311  Biso   1.000  C
  C441     1.0000 0.35056  0.31820  0.03154  Biso   1.000  C
  C442     1.0000 0.98023  0.64236  0.70321  Biso   1.000  C
  C443     1.0000 0.18623  0.48473  0.37981  Biso   1.000  C
  C444     1.0000 0.85400  0.31237  0.54425  Biso   1.000  C
  C445     1.0000 0.99250  0.84928  0.20636  Biso   1.000  C
  C446     1.0000 0.17267  0.99317  0.87217  Biso   1.000  C
  C447     1.0000 0.84568  0.17631  0.00968  Biso   1.000  C
  C448     1.0000 0.50194  0.84267  0.34727  Biso   1.000  C
  C449     1.0000 0.66731  0.99150  0.67422  Biso   1.000  C
  C450     1.0000 0.35156  0.17709  0.50639  Biso   1.000  C
  C451     1.0000 0.50763  0.34520  0.20171  Biso   1.000  C
  C452     1.0000 0.31388  0.49847  0.88097  Biso   1.000  C
  C453     1.0000 0.64485  0.67963  0.03947  Biso   1.000  C
  C454     1.0000 0.00853  0.34632  0.34220  Biso   1.000  C
  C455     1.0000 0.81309  0.49268  0.65963  Biso   1.000  C
  C456     1.0000 0.14519  0.67112  0.53066  Biso   1.000  C
  C457     1.0000 0.00067  0.64786  0.33567  Biso   1.000  C
  C458     1.0000 0.30890  0.99656  0.67022  Biso   1.000  C
  C459     1.0000 0.64601  0.31493  0.01996  Biso   1.000  C
  C460     1.0000 0.50713  0.64377  0.20942  Biso   1.000  C
  C461     1.0000 0.80953  0.99321  0.87531  Biso   1.000  C
  C462     1.0000 0.14703  0.30862  0.50902  Biso   1.000  C
  C463     1.0000 0.50394  0.14275  0.33984  Biso   1.000  C
  C464     1.0000 0.17399  0.48716  0.68007  Biso   1.000  C
  C465     1.0000 0.85148  0.81494  0.03571  Biso   1.000  C
  C466     1.0000 0.00095  0.14610  0.20469  Biso   1.000  C
  C467     1.0000 0.67963  0.50961  0.86242  Biso   1.000  C
  C468     1.0000 0.34636  0.81335  0.53489  Biso   1.000  C
  C469     1.0000 0.97558  0.34484  0.70379  Biso   1.000  C
  C470     1.0000 0.68072  0.99637  0.37943  Biso   1.000  C
  C471     1.0000 0.34826  0.68230  0.03914  Biso   1.000  C
  C472     1.0000 0.49615  0.35663  0.83480  Biso   1.000  C
  C473     1.0000 0.17698  0.00284  0.16880  Biso   1.000  C
  C474     1.0000 0.84696  0.67334  0.51179  Biso   1.000  C
  C475     1.0000 0.50082  0.85592  0.70985  Biso   1.000  C
  C476     1.0000 0.82330  0.48946  0.36285  Biso   1.000  C
  C477     1.0000 0.14091  0.18394  0.03736  Biso   1.000  C
  C478     1.0000 0.98952  0.84104  0.83855  Biso   1.000  C
  C479     1.0000 0.32344  0.49048  0.17917  Biso   1.000  C
  C480     1.0000 0.64964  0.17644  0.54900  Biso   1.000  C
  C481     1.0000 0.36182  0.78698  0.54296  Biso   1.000  C
  C482     1.0000 0.49716  0.37328  0.80848  Biso   1.000  C
  C483     1.0000 0.79640  0.49510  0.37833  Biso   1.000  C
  C484     1.0000 0.86448  0.78665  0.03171  Biso   1.000  C
  C485     1.0000 0.96869  0.36050  0.73016  Biso   1.000  C
  C486     1.0000 0.29724  0.49545  0.16230  Biso   1.000  C
  C487     1.0000 0.13060  0.28206  0.50353  Biso   1.000  C
  C488     1.0000 0.99084  0.85655  0.81097  Biso   1.000  C
  C489     1.0000 0.70807  0.99648  0.39648  Biso   1.000  C
  C490     1.0000 0.62945  0.28724  0.02404  Biso   1.000  C
  C491     1.0000 0.49732  0.87185  0.73683  Biso   1.000  C
  C492     1.0000 0.20274  0.00536  0.15064  Biso   1.000  C
  C493     1.0000 0.63356  0.20320  0.55600  Biso   1.000  C
  C494     1.0000 0.51551  0.62901  0.23639  Biso   1.000  C
  C495     1.0000 0.20295  0.49055  0.66600  Biso   1.000  C
  C496     1.0000 0.12463  0.20917  0.04172  Biso   1.000  C
  C497     1.0000 0.00287  0.63306  0.30826  Biso   1.000  C
  C498     1.0000 0.70851  0.51020  0.87666  Biso   1.000  C
  C499     1.0000 0.86206  0.70065  0.51273  Biso   1.000  C
  C500     1.0000 0.00643  0.13119  0.23214  Biso   1.000  C
  C501     1.0000 0.28205  0.99123  0.65270  Biso   1.000  C
  C502     1.0000 0.36595  0.70970  0.04063  Biso   1.000  C
  C503     1.0000 0.50316  0.12708  0.31161  Biso   1.000  C
  C504     1.0000 0.78496  0.99477  0.89527  Biso   1.000  C
  C505     1.0000 0.62602  0.51529  0.80586  Biso   1.000  C
  C506     1.0000 0.78836  0.62427  0.51182  Biso   1.000  C
  C507     1.0000 0.51092  0.79405  0.66490  Biso   1.000  C
  C508     1.0000 0.11996  0.47447  0.73671  Biso   1.000  C
  C509     1.0000 0.28599  0.63343  0.03964  Biso   1.000  C
  C510     1.0000 0.99005  0.78380  0.89204  Biso   1.000  C
  C511     1.0000 0.85751  0.99214  0.81303  Biso   1.000  C
  C512     1.0000 0.70703  0.12617  0.54039  Biso   1.000  C
  C513     1.0000 0.98840  0.28353  0.65775  Biso   1.000  C
  C514     1.0000 0.35348  0.00120  0.73194  Biso   1.000  C
  C515     1.0000 0.19965  0.13812  0.02802  Biso   1.000  C
  C516     1.0000 0.49853  0.29591  0.88225  Biso   1.000  C
  C517     1.0000 0.37473  0.48369  0.23764  Biso   1.000  C
  C518     1.0000 0.20622  0.36199  0.50472  Biso   1.000  C
  C519     1.0000 0.51089  0.20555  0.38534  Biso   1.000  C
  C520     1.0000 0.87512  0.48313  0.30584  Biso   1.000  C
  C521     1.0000 0.70678  0.36481  0.02586  Biso   1.000  C
  C522     1.0000 0.97789  0.20347  0.15571  Biso   1.000  C
  C523     1.0000 0.12944  0.98951  0.22976  Biso   1.000  C
  C524     1.0000 0.28780  0.86243  0.51894  Biso   1.000  C
  C525     1.0000 0.99764  0.70399  0.38859  Biso   1.000  C
  C526     1.0000 0.63380  0.99254  0.31684  Biso   1.000  C
  C527     1.0000 0.79363  0.86439  0.03393  Biso   1.000  C
  C528     1.0000 0.48854  0.70288  0.16706  Biso   1.000  C
  C529     1.0000 0.78520  0.12671  0.01244  Biso   1.000  C
  C530     1.0000 0.00224  0.79131  0.15767  Biso   1.000  C
  C531     1.0000 0.12100  0.98977  0.81351  Biso   1.000  C
  C532     1.0000 0.29022  0.12701  0.49684  Biso   1.000  C
  C533     1.0000 0.49369  0.78344  0.39503  Biso   1.000  C
  C534     1.0000 0.62028  0.00979  0.73350  Biso   1.000  C
  C535     1.0000 0.70563  0.63412  0.02352  Biso   1.000  C
  C536     1.0000 0.50661  0.28833  0.14944  Biso   1.000  C
  C537     1.0000 0.36000  0.50105  0.81900  Biso   1.000  C
  C538     1.0000 0.20616  0.62560  0.53089  Biso   1.000  C
  C539     1.0000 0.98914  0.28899  0.39183  Biso   1.000  C
  C540     1.0000 0.85669  0.50320  0.72396  Biso   1.000  C
  C541     1.0000 0.20996  0.87194  0.03080  Biso   1.000  C
  C542     1.0000 0.99560  0.20188  0.88653  Biso   1.000  C
  C543     1.0000 0.86778  0.01444  0.23683  Biso   1.000  C
  C544     1.0000 0.70552  0.85904  0.52962  Biso   1.000  C
  C545     1.0000 0.49483  0.21279  0.64936  Biso   1.000  C
  C546     1.0000 0.36298  0.99246  0.31108  Biso   1.000  C
  C547     1.0000 0.29124  0.36793  0.02953  Biso   1.000  C
  C548     1.0000 0.50044  0.71432  0.90263  Biso   1.000  C
  C549     1.0000 0.64187  0.50143  0.22467  Biso   1.000  C
  C550     1.0000 0.79299  0.35879  0.53256  Biso   1.000  C
  C551     1.0000 0.98333  0.69994  0.65154  Biso   1.000  C
  C552     1.0000 0.14103  0.48965  0.31760  Biso   1.000  C
  C553     1.0000 0.98653  0.12247  0.81600  Biso   1.000  C
  C554     1.0000 0.78868  0.01088  0.16182  Biso   1.000  C
  C555     1.0000 0.13446  0.79294  0.02094  Biso   1.000  C
  C556     1.0000 0.50190  0.13851  0.72770  Biso   1.000  C
  C557     1.0000 0.28929  0.99274  0.38740  Biso   1.000  C
  C558     1.0000 0.63018  0.78026  0.52134  Biso   1.000  C
  C559     1.0000 0.49290  0.64354  0.82112  Biso   1.000  C
  C560     1.0000 0.71319  0.50730  0.14601  Biso   1.000  C
  C561     1.0000 0.36521  0.29028  0.03261  Biso   1.000  C
  C562     1.0000 0.98158  0.62825  0.73136  Biso   1.000  C
  C563     1.0000 0.21249  0.48286  0.39798  Biso   1.000  C
  C564     1.0000 0.87079  0.28852  0.55520  Biso   1.000  C
  C565     1.0000 0.98913  0.86489  0.23369  Biso   1.000  C
  C566     1.0000 0.20045  0.99320  0.88727  Biso   1.000  C
  C567     1.0000 0.86044  0.20400  0.00569  Biso   1.000  C
  C568     1.0000 0.50254  0.85753  0.31881  Biso   1.000  C
  C569     1.0000 0.69532  0.98500  0.66138  Biso   1.000  C
  C570     1.0000 0.36761  0.20515  0.50730  Biso   1.000  C
  C571     1.0000 0.50527  0.35900  0.22950  Biso   1.000  C
  C572     1.0000 0.28868  0.49818  0.89993  Biso   1.000  C
  C573     1.0000 0.62772  0.70432  0.04784  Biso   1.000  C
  C574     1.0000 0.01901  0.36135  0.31575  Biso   1.000  C
  C575     1.0000 0.78663  0.48718  0.64181  Biso   1.000  C
  C576     1.0000 0.12842  0.69790  0.53246  Biso   1.000  C
  C577     1.0000 0.29867  0.49916  0.13188  Biso   1.000  C
  C578     1.0000 0.09846  0.28269  0.50795  Biso   1.000  C
  C579     1.0000 0.50201  0.09516  0.31268  Biso   1.000  C
  C580     1.0000 0.79623  0.49481  0.40993  Biso   1.000  C
  C581     1.0000 0.59728  0.28745  0.02294  Biso   1.000  C
  C582     1.0000 0.01170  0.09966  0.23093  Biso   1.000  C
  C583     1.0000 0.19966  0.00997  0.11915  Biso   1.000  C
  C584     1.0000 0.39284  0.78687  0.54416  Biso   1.000  C
  C585     1.0000 0.00351  0.60136  0.30695  Biso   1.000  C
  C586     1.0000 0.70727  0.99426  0.42803  Biso   1.000  C
  C587     1.0000 0.89604  0.78669  0.02985  Biso   1.000  C
  C588     1.0000 0.51766  0.59745  0.23353  Biso   1.000  C
  C589     1.0000 0.70834  0.50559  0.90758  Biso   1.000  C
  C590     1.0000 0.89443  0.70013  0.51125  Biso   1.000  C
  C591     1.0000 0.49617  0.90286  0.73599  Biso   1.000  C
  C592     1.0000 0.20260  0.49203  0.63429  Biso   1.000  C
  C593     1.0000 0.39637  0.70950  0.03239  Biso   1.000  C
  C594     1.0000 0.99655  0.88837  0.81178  Biso   1.000  C
  C595     1.0000 0.78787  0.99248  0.92732  Biso   1.000  C
  C596     1.0000 0.60354  0.20472  0.54775  Biso   1.000  C
  C597     1.0000 0.97060  0.39113  0.72921  Biso   1.000  C
  C598     1.0000 0.28219  0.98839  0.62060  Biso   1.000  C
  C599     1.0000 0.09283  0.20774  0.04034  Biso   1.000  C
  C600     1.0000 0.49209  0.40413  0.80809  Biso   1.000  C
  C601     1.0000 0.20223  0.99527  0.91798  Biso   1.000  C
  C602     1.0000 0.89141  0.20433  0.00675  Biso   1.000  C
  C603     1.0000 0.98631  0.89630  0.23272  Biso   1.000  C
  C604     1.0000 0.69730  0.98020  0.63075  Biso   1.000  C
  C605     1.0000 0.39877  0.20373  0.51042  Biso   1.000  C
  C606     1.0000 0.50307  0.88830  0.31933  Biso   1.000  C
  C607     1.0000 0.29052  0.49226  0.93074  Biso   1.000  C
  C608     1.0000 0.59635  0.70236  0.04754  Biso   1.000  C
  C609     1.0000 0.50648  0.38995  0.23153  Biso   1.000  C
  C610     1.0000 0.78958  0.48138  0.61106  Biso   1.000  C
  C611     1.0000 0.09640  0.69858  0.53032  Biso   1.000  C
  C612     1.0000 0.02339  0.39374  0.31677  Biso   1.000  C
  C613     1.0000 0.78831  0.01158  0.13113  Biso   1.000  C
  C614     1.0000 0.10350  0.79472  0.01903  Biso   1.000  C
  C615     1.0000 0.99095  0.09139  0.81742  Biso   1.000  C
  C616     1.0000 0.29151  0.99035  0.41973  Biso   1.000  C
  C617     1.0000 0.59849  0.77937  0.52085  Biso   1.000  C
  C618     1.0000 0.49872  0.10601  0.72745  Biso   1.000  C
  C619     1.0000 0.71059  0.50482  0.11388  Biso   1.000  C
  C620     1.0000 0.39707  0.28998  0.03132  Biso   1.000  C
  C621     1.0000 0.49545  0.61281  0.81895  Biso   1.000  C
  C622     1.0000 0.20941  0.48276  0.43000  Biso   1.000  C
  C623     1.0000 0.90185  0.28951  0.55195  Biso   1.000  C
  C624     1.0000 0.98768  0.59767  0.73306  Biso   1.000  C
  C625     1.0000 0.00057  0.20116  0.91724  Biso   1.000  C
  C626     1.0000 0.89825  0.01589  0.23680  Biso   1.000  C
  C627     1.0000 0.20809  0.90309  0.02916  Biso   1.000  C
  C628     1.0000 0.49756  0.21176  0.61801  Biso   1.000  C
  C629     1.0000 0.39443  0.98869  0.31089  Biso   1.000  C
  C630     1.0000 0.70632  0.89086  0.53127  Biso   1.000  C
  C631     1.0000 0.50249  0.71229  0.93470  Biso   1.000  C
  C632     1.0000 0.61140  0.49633  0.22450  Biso   1.000  C
  C633     1.0000 0.29113  0.39864  0.02949  Biso   1.000  C
  C634     1.0000 0.98371  0.69718  0.62111  Biso   1.000  C
  C635     1.0000 0.10981  0.49146  0.31499  Biso   1.000  C
  C636     1.0000 0.79314  0.38773  0.52086  Biso   1.000  C
  C637     1.0000 0.00264  0.79072  0.12640  Biso   1.000  C
  C638     1.0000 0.08987  0.99337  0.81572  Biso   1.000  C
  C639     1.0000 0.78558  0.09579  0.01399  Biso   1.000  C
  C640     1.0000 0.48976  0.78306  0.42640  Biso   1.000  C
  C641     1.0000 0.58895  0.01356  0.73369  Biso   1.000  C
  C642     1.0000 0.29176  0.09648  0.49607  Biso   1.000  C
  C643     1.0000 0.50654  0.29015  0.11836  Biso   1.000  C
  C644     1.0000 0.39148  0.50066  0.81776  Biso   1.000  C
  C645     1.0000 0.70507  0.60322  0.01797  Biso   1.000  C
  C646     1.0000 0.98424  0.29090  0.42236  Biso   1.000  C
  C647     1.0000 0.88719  0.50462  0.72732  Biso   1.000  C
  C648     1.0000 0.20584  0.59442  0.52975  Biso   1.000  C
  C649     1.0000 0.99857  0.69990  0.42022  Biso   1.000  C
  C650     1.0000 0.38537  0.00702  0.73291  Biso   1.000  C
  C651     1.0000 0.70555  0.39741  0.02417  Biso   1.000  C
  C652     1.0000 0.48367  0.70409  0.13483  Biso   1.000  C
  C653     1.0000 0.88853  0.98954  0.81465  Biso   1.000  C
  C654     1.0000 0.20545  0.39238  0.50866  Biso   1.000  C
  C655     1.0000 0.51098  0.20673  0.41649  Biso   1.000  C
  C656     1.0000 0.08878  0.47799  0.73300  Biso   1.000  C
  C657     1.0000 0.79594  0.89667  0.03488  Biso   1.000  C
  C658     1.0000 0.97662  0.20280  0.12424  Biso   1.000  C
  C659     1.0000 0.59502  0.51225  0.80904  Biso   1.000  C
  C660     1.0000 0.29002  0.89350  0.51480  Biso   1.000  C
  C661     1.0000 0.99338  0.28495  0.62525  Biso   1.000  C
  C662     1.0000 0.60110  0.98988  0.31681  Biso   1.000  C
  C663     1.0000 0.28596  0.60130  0.03606  Biso   1.000  C
  C664     1.0000 0.49642  0.29322  0.91335  Biso   1.000  C
  C665     1.0000 0.09631  0.98574  0.22784  Biso   1.000  C
  C666     1.0000 0.78914  0.59213  0.50885  Biso   1.000  C
  C667     1.0000 0.50945  0.79144  0.63354  Biso   1.000  C
  C668     1.0000 0.90782  0.48250  0.30680  Biso   1.000  C
  C669     1.0000 0.19843  0.10728  0.02207  Biso   1.000  C
  C670     1.0000 0.99062  0.78554  0.92467  Biso   1.000  C
  C671     1.0000 0.40599  0.48582  0.23767  Biso   1.000  C
  C672     1.0000 0.70473  0.09464  0.53376  Biso   1.000  C
  C673     1.0000 0.18611  0.99331  0.82455  Biso   1.000  C
  C674     1.0000 0.80027  0.19071  0.00795  Biso   1.000  C
  C675     1.0000 0.99739  0.80328  0.22002  Biso   1.000  C
  C676     1.0000 0.68328  0.99766  0.72069  Biso   1.000  C
  C677     1.0000 0.30394  0.18952  0.50458  Biso   1.000  C
  C678     1.0000 0.50779  0.79701  0.33410  Biso   1.000  C
  C679     1.0000 0.29549  0.49627  0.83536  Biso   1.000  C
  C680     1.0000 0.69150  0.69496  0.03989  Biso   1.000  C
  C681     1.0000 0.50741  0.29678  0.21442  Biso   1.000  C
  C682     1.0000 0.79510  0.49895  0.70366  Biso   1.000  C
  C683     1.0000 0.19214  0.68751  0.53288  Biso   1.000  C
  C684     1.0000 0.00149  0.30029  0.32821  Biso   1.000  C
  C685     1.0000 0.80249  0.01137  0.22603  Biso   1.000  C
  C686     1.0000 0.19612  0.80775  0.03520  Biso   1.000  C
  C687     1.0000 0.98933  0.18476  0.82408  Biso   1.000  C
  C688     1.0000 0.30070  0.99699  0.32430  Biso   1.000  C
  C689     1.0000 0.69300  0.79492  0.52519  Biso   1.000  C
  C690     1.0000 0.49991  0.20151  0.71113  Biso   1.000  C
  C691     1.0000 0.70577  0.50323  0.20907  Biso   1.000  C
  C692     1.0000 0.30285  0.30487  0.02962  Biso   1.000  C
  C693     1.0000 0.49644  0.70555  0.83912  Biso   1.000  C
  C694     1.0000 0.20197  0.48847  0.33265  Biso   1.000  C
  C695     1.0000 0.80627  0.30127  0.55170  Biso   1.000  C
  C696     1.0000 0.97998  0.68958  0.71370  Biso   1.000  C
  C697     1.0000 0.69429  0.99930  0.33260  Biso   1.000  C
  C698     1.0000 0.30065  0.69781  0.04214  Biso   1.000  C
  C699     1.0000 0.97535  0.29722  0.71856  Biso   1.000  C
  C700     1.0000 0.19289  0.99819  0.21498  Biso   1.000  C
  C701     1.0000 0.79866  0.68568  0.51496  Biso   1.000  C
  C702     1.0000 0.49937  0.31257  0.81947  Biso   1.000  C
  C703     1.0000 0.81373  0.49063  0.31641  Biso   1.000  C
  C704     1.0000 0.18546  0.20140  0.03289  Biso   1.000  C
  C705     1.0000 0.50534  0.80983  0.72730  Biso   1.000  C
  C706     1.0000 0.31057  0.49167  0.22566  Biso   1.000  C
  C707     1.0000 0.69502  0.19151  0.55461  Biso   1.000  C
  C708     1.0000 0.98783  0.79456  0.82643  Biso   1.000  C
  C709     1.0000 0.29368  0.99590  0.71640  Biso   1.000  C
  C710     1.0000 0.69196  0.30052  0.02215  Biso   1.000  C
  C711     1.0000 0.99684  0.69348  0.32504  Biso   1.000  C
  C712     1.0000 0.79219  0.99429  0.82995  Biso   1.000  C
  C713     1.0000 0.19495  0.29742  0.50255  Biso   1.000  C
  C714     1.0000 0.50621  0.68925  0.22700  Biso   1.000  C
  C715     1.0000 0.18720  0.48119  0.72660  Biso   1.000  C
  C716     1.0000 0.80327  0.80148  0.03642  Biso   1.000  C
  C717     1.0000 0.50475  0.18929  0.32426  Biso   1.000  C
  C718     1.0000 0.68857  0.51271  0.81423  Biso   1.000  C
  C719     1.0000 0.29944  0.79902  0.53087  Biso   1.000  C
  C720     1.0000 0.99298  0.19278  0.21828  Biso   1.000  C
  C721     1.0000 0.53099  0.79704  0.31311  Biso   1.000  C
  C722     1.0000 0.29637  0.51057  0.80752  Biso   1.000  C
  C723     1.0000 0.77924  0.30837  0.56482  Biso   1.000  C
  C724     1.0000 0.98001  0.77657  0.21431  Biso   1.000  C
  C725     1.0000 0.76786  0.51444  0.69641  Biso   1.000  C
  C726     1.0000 0.27862  0.30820  0.00890  Biso   1.000  C
  C727     1.0000 0.98986  0.30684  0.29933  Biso   1.000  C
  C728     1.0000 0.20892  0.01513  0.82561  Biso   1.000  C
  C729     1.0000 0.71930  0.79891  0.50849  Biso   1.000  C
  C730     1.0000 0.48906  0.30016  0.24052  Biso   1.000  C
  C731     1.0000 0.67697  0.98628  0.74953  Biso   1.000  C
  C732     1.0000 0.22535  0.81194  0.02373  Biso   1.000  C
  C733     1.0000 0.48547  0.19822  0.73901  Biso   1.000  C
  C734     1.0000 0.70259  0.52087  0.23459  Biso   1.000  C
  C735     1.0000 0.18927  0.71630  0.51867  Biso   1.000  C
  C736     1.0000 0.96826  0.18266  0.80146  Biso   1.000  C
  C737     1.0000 0.22853  0.47436  0.33512  Biso   1.000  C
  C738     1.0000 0.72046  0.68911  0.04885  Biso   1.000  C
  C739     1.0000 0.95816  0.69012  0.73592  Biso   1.000  C
  C740     1.0000 0.80743  0.99430  0.25289  Biso   1.000  C
  C741     1.0000 0.27680  0.18369  0.51766  Biso   1.000  C
  C742     1.0000 0.47675  0.70505  0.81486  Biso   1.000  C
  C743     1.0000 0.27536  0.97858  0.32467  Biso   1.000  C
  C744     1.0000 0.80310  0.21525  0.02829  Biso   1.000  C
  C745     1.0000 0.01765  0.71776  0.32688  Biso   1.000  C
  C746     1.0000 0.26838  0.97779  0.71304  Biso   1.000  C
  C747     1.0000 0.72046  0.30178  0.03600  Biso   1.000  C
  C748     1.0000 0.51859  0.71786  0.22061  Biso   1.000  C
  C749     1.0000 0.79062  0.97560  0.80303  Biso   1.000  C
  C750     1.0000 0.22111  0.30224  0.51926  Biso   1.000  C
  C751     1.0000 0.52722  0.18866  0.30307  Biso   1.000  C
  C752     1.0000 0.21715  0.47018  0.72416  Biso   1.000  C
  C753     1.0000 0.77756  0.80538  0.01755  Biso   1.000  C
  C754     1.0000 0.01616  0.19312  0.24075  Biso   1.000  C
  C755     1.0000 0.68134  0.49699  0.78828  Biso   1.000  C
  C756     1.0000 0.27310  0.80238  0.54771  Biso   1.000  C
  C757     1.0000 0.96131  0.26788  0.71337  Biso   1.000  C
  C758     1.0000 0.68975  0.01743  0.30759  Biso   1.000  C
  C759     1.0000 0.27185  0.69240  0.02805  Biso   1.000  C
  C760     1.0000 0.51583  0.31935  0.79306  Biso   1.000  C
  C761     1.0000 0.22107  0.98560  0.20988  Biso   1.000  C
  C762     1.0000 0.80039  0.71173  0.49843  Biso   1.000  C
  C763     1.0000 0.51992  0.81698  0.75460  Biso   1.000  C
  C764     1.0000 0.78331  0.48001  0.31862  Biso   1.000  C
  C765     1.0000 0.21398  0.19734  0.04606  Biso   1.000  C
  C766     1.0000 0.00356  0.79744  0.80006  Biso   1.000  C
  C767     1.0000 0.31639  0.51009  0.25084  Biso   1.000  C
  C768     1.0000 0.69053  0.22182  0.54627  Biso   1.000  C
  C769     1.0000 0.51605  0.73046  0.84100  Biso   1.000  C
  C770     1.0000 0.79766  0.48742  0.73255  Biso   1.000  C
  C771     1.0000 0.68812  0.76649  0.53994  Biso   1.000  C
  C772     1.0000 0.00421  0.70973  0.71667  Biso   1.000  C
  C773     1.0000 0.27098  0.47617  0.84342  Biso   1.000  C
  C774     1.0000 0.19070  0.77939  0.04927  Biso   1.000  C
  C775     1.0000 0.00976  0.21138  0.82292  Biso   1.000  C
  C776     1.0000 0.71166  0.01139  0.71678  Biso   1.000  C
  C777     1.0000 0.80977  0.26882  0.54438  Biso   1.000  C
  C778     1.0000 0.51825  0.22751  0.70858  Biso   1.000  C
  C779     1.0000 0.18319  0.97613  0.79950  Biso   1.000  C
  C780     1.0000 0.30363  0.27982  0.04807  Biso   1.000  C
  C781     1.0000 0.52219  0.26934  0.21050  Biso   1.000  C
  C782     1.0000 0.19828  0.50636  0.30543  Biso   1.000  C
  C783     1.0000 0.30888  0.21852  0.48902  Biso   1.000  C
  C784     1.0000 0.01187  0.27147  0.33327  Biso   1.000  C
  C785     1.0000 0.73226  0.48632  0.20267  Biso   1.000  C
  C786     1.0000 0.77385  0.18702  0.99092  Biso   1.000  C
  C787     1.0000 0.01161  0.80885  0.24783  Biso   1.000  C
  C788     1.0000 0.30472  0.01564  0.29775  Biso   1.000  C
  C789     1.0000 0.21762  0.68163  0.55074  Biso   1.000  C
  C790     1.0000 0.48726  0.77270  0.33303  Biso   1.000  C
  C791     1.0000 0.77475  0.02583  0.22266  Biso   1.000  C
  C792     1.0000 0.68449  0.72545  0.03089  Biso   1.000  C
  C793     1.0000 0.48496  0.21281  0.32488  Biso   1.000  C
  C794     1.0000 0.28383  0.47531  0.22322  Biso   1.000  C
  C795     1.0000 0.19240  0.26967  0.48757  Biso   1.000  C
  C796     1.0000 0.97039  0.21590  0.22106  Biso   1.000  C
  C797     1.0000 0.82028  0.50884  0.29123  Biso   1.000  C
  C798     1.0000 0.68666  0.27427  0.00383  Biso   1.000  C
  C799     1.0000 0.97814  0.69146  0.30040  Biso   1.000  C
  C800     1.0000 0.18860  0.01199  0.24287  Biso   1.000  C
  C801     1.0000 0.30358  0.76932  0.52078  Biso   1.000  C
  C802     1.0000 0.49871  0.68255  0.25689  Biso   1.000  C
  C803     1.0000 0.72142  0.98500  0.33629  Biso   1.000  C
  C804     1.0000 0.80465  0.77615  0.05478  Biso   1.000  C
  C805     1.0000 0.49021  0.78221  0.72198  Biso   1.000  C
  C806     1.0000 0.71740  0.52506  0.81733  Biso   1.000  C
  C807     1.0000 0.77519  0.68229  0.53472  Biso   1.000  C
  C808     1.0000 0.97051  0.76829  0.83115  Biso   1.000  C
  C809     1.0000 0.17971  0.48910  0.75813  Biso   1.000  C
  C810     1.0000 0.30522  0.72486  0.05707  Biso   1.000  C
  C811     1.0000 0.98988  0.30131  0.74704  Biso   1.000  C
  C812     1.0000 0.76924  0.01505  0.83318  Biso   1.000  C
  C813     1.0000 0.72122  0.18616  0.57054  Biso   1.000  C
  C814     1.0000 0.48278  0.28670  0.82131  Biso   1.000  C
  C815     1.0000 0.29611  0.01623  0.74115  Biso   1.000  C
  C816     1.0000 0.18094  0.22950  0.01856  Biso   1.000  C
  C817     1.0000 0.96625  0.20447  0.78127  Biso   1.000  C
  C818     1.0000 0.78550  0.99256  0.27396  Biso   1.000  C
  C819     1.0000 0.24667  0.79109  0.02645  Biso   1.000  C
  C820     1.0000 0.48768  0.21995  0.76059  Biso   1.000  C
  C821     1.0000 0.25474  0.97957  0.30210  Biso   1.000  C
  C822     1.0000 0.73838  0.77670  0.50838  Biso   1.000  C
  C823     1.0000 0.47840  0.72717  0.79467  Biso   1.000  C
  C824     1.0000 0.72567  0.52076  0.25374  Biso   1.000  C
  C825     1.0000 0.25694  0.28744  0.00708  Biso   1.000  C
  C826     1.0000 0.96047  0.71078  0.75764  Biso   1.000  C
  C827     1.0000 0.25039  0.47811  0.31482  Biso   1.000  C
  C828     1.0000 0.75929  0.28571  0.57074  Biso   1.000  C
  C829     1.0000 0.98081  0.75507  0.23402  Biso   1.000  C
  C830     1.0000 0.23139  0.01425  0.80550  Biso   1.000  C
  C831     1.0000 0.78148  0.23477  0.03049  Biso   1.000  C
  C832     1.0000 0.53495  0.77373  0.29476  Biso   1.000  C
  C833     1.0000 0.69796  0.98873  0.77142  Biso   1.000  C
  C834     1.0000 0.25455  0.20583  0.51531  Biso   1.000  C
  C835     1.0000 0.49289  0.28093  0.26311  Biso   1.000  C
  C836     1.0000 0.27364  0.50530  0.78859  Biso   1.000  C
  C837     1.0000 0.74065  0.71111  0.04817  Biso   1.000  C
  C838     1.0000 0.98929  0.28575  0.27747  Biso   1.000  C
  C839     1.0000 0.74549  0.51480  0.71614  Biso   1.000  C
  C840     1.0000 0.21172  0.73689  0.52066  Biso   1.000  C
  C841     1.0000 0.20475  0.97811  0.77883  Biso   1.000  C
  C842     1.0000 0.75294  0.20733  0.99499  Biso   1.000  C
  C843     1.0000 0.01028  0.78587  0.26741  Biso   1.000  C
  C844     1.0000 0.73247  0.01299  0.74026  Biso   1.000  C
  C845     1.0000 0.28759  0.23960  0.49070  Biso   1.000  C
  C846     1.0000 0.49230  0.75013  0.31423  Biso   1.000  C
  C847     1.0000 0.24908  0.47038  0.82265  Biso   1.000  C
  C848     1.0000 0.70490  0.74769  0.03011  Biso   1.000  C
  C849     1.0000 0.52108  0.24912  0.23226  Biso   1.000  C
  C850     1.0000 0.77429  0.49113  0.75247  Biso   1.000  C
  C851     1.0000 0.23987  0.70309  0.55246  Biso   1.000  C
  C852     1.0000 0.01038  0.25120  0.31137  Biso   1.000  C
  C853     1.0000 0.75379  0.02421  0.24472  Biso   1.000  C
  C854     1.0000 0.21127  0.75918  0.05134  Biso   1.000  C
  C855     1.0000 0.00718  0.23276  0.80177  Biso   1.000  C
  C856     1.0000 0.28374  0.01528  0.27628  Biso   1.000  C
  C857     1.0000 0.70786  0.74475  0.53685  Biso   1.000  C
  C858     1.0000 0.51820  0.24885  0.73017  Biso   1.000  C
  C859     1.0000 0.75359  0.48708  0.22380  Biso   1.000  C
  C860     1.0000 0.28089  0.26051  0.04608  Biso   1.000  C
  C861     1.0000 0.51685  0.75249  0.82062  Biso   1.000  C
  C862     1.0000 0.22151  0.50983  0.28724  Biso   1.000  C
  C863     1.0000 0.78801  0.24825  0.55151  Biso   1.000  C
  C864     1.0000 0.00443  0.73167  0.73723  Biso   1.000  C
  C865     1.0000 0.70108  0.49607  0.76479  Biso   1.000  C
  C866     1.0000 0.77853  0.73265  0.49812  Biso   1.000  C
  C867     1.0000 0.51606  0.79835  0.77739  Biso   1.000  C
  C868     1.0000 0.23625  0.46990  0.74771  Biso   1.000  C
  C869     1.0000 0.24982  0.71269  0.02778  Biso   1.000  C
  C870     1.0000 0.99980  0.77853  0.77722  Biso   1.000  C
  C871     1.0000 0.76757  0.97816  0.78416  Biso   1.000  C
  C872     1.0000 0.71121  0.24276  0.55212  Biso   1.000  C
  C873     1.0000 0.96406  0.24507  0.73355  Biso   1.000  C
  C874     1.0000 0.24641  0.98086  0.73420  Biso   1.000  C
  C875     1.0000 0.23608  0.21788  0.04165  Biso   1.000  C
  C876     1.0000 0.51896  0.29661  0.77389  Biso   1.000  C
  C877     1.0000 0.29488  0.51033  0.27203  Biso   1.000  C
  C878     1.0000 0.24284  0.28126  0.51941  Biso   1.000  C
  C879     1.0000 0.52875  0.20992  0.28255  Biso   1.000  C
  C880     1.0000 0.76283  0.48328  0.29605  Biso   1.000  C
  C881     1.0000 0.74057  0.28070  0.03136  Biso   1.000  C
  C882     1.0000 0.01503  0.21393  0.26271  Biso   1.000  C
  C883     1.0000 0.24347  0.98538  0.23037  Biso   1.000  C
  C884     1.0000 0.25261  0.77972  0.55228  Biso   1.000  C
  C885     1.0000 0.01707  0.73787  0.30523  Biso   1.000  C
  C886     1.0000 0.71146  0.01977  0.28695  Biso   1.000  C
  C887     1.0000 0.75473  0.78605  0.02218  Biso   1.000  C
  C888     1.0000 0.52068  0.73833  0.24338  Biso   1.000  C
  C889     1.0000 0.74200  0.98799  0.31551  Biso   1.000  C
  C890     1.0000 0.28387  0.74483  0.05258  Biso   1.000  C
  C891     1.0000 0.99037  0.27817  0.76654  Biso   1.000  C
  C892     1.0000 0.20927  0.00847  0.26371  Biso   1.000  C
  C893     1.0000 0.75382  0.70399  0.53708  Biso   1.000  C
  C894     1.0000 0.48377  0.26667  0.79987  Biso   1.000  C
  C895     1.0000 0.79954  0.51309  0.26988  Biso   1.000  C
  C896     1.0000 0.20407  0.24916  0.01646  Biso   1.000  C
  C897     1.0000 0.48978  0.76384  0.74579  Biso   1.000  C
  C898     1.0000 0.26419  0.47533  0.24555  Biso   1.000  C
  C899     1.0000 0.74242  0.20833  0.57373  Biso   1.000  C
  C900     1.0000 0.97007  0.74739  0.80812  Biso   1.000  C
  C901     1.0000 0.27626  0.01311  0.76380  Biso   1.000  C
  C902     1.0000 0.70726  0.25149  0.00225  Biso   1.000  C
  C903     1.0000 0.97926  0.71113  0.27849  Biso   1.000  C
  C904     1.0000 0.74609  0.01686  0.81382  Biso   1.000  C
  C905     1.0000 0.21342  0.24904  0.48994  Biso   1.000  C
  C906     1.0000 0.50464  0.70249  0.27859  Biso   1.000  C
  C907     1.0000 0.19895  0.48589  0.78055  Biso   1.000  C
  C908     1.0000 0.78187  0.75592  0.05645  Biso   1.000  C
  C909     1.0000 0.48761  0.23349  0.30357  Biso   1.000  C
  C910     1.0000 0.73760  0.52131  0.79490  Biso   1.000  C
  C911     1.0000 0.28318  0.74691  0.52463  Biso   1.000  C
  C912     1.0000 0.97342  0.23663  0.24174  Biso   1.000  C
  C913     1.0000 0.74903  0.50579  0.74449  Biso   1.000  C
  C914     1.0000 0.73397  0.75022  0.52263  Biso   1.000  C
  C915     1.0000 0.49784  0.75094  0.79616  Biso   1.000  C
  C916     1.0000 0.25056  0.48571  0.79632  Biso   1.000  C
  C917     1.0000 0.23817  0.76448  0.04000  Biso   1.000  C
  C918     1.0000 0.98323  0.73053  0.75832  Biso   1.000  C
  C919     1.0000 0.72389  0.00291  0.76658  Biso   1.000  C
  C920     1.0000 0.76359  0.25637  0.56466  Biso   1.000  C
  C921     1.0000 0.98525  0.22801  0.78045  Biso   1.000  C
  C922     1.0000 0.22977  0.99498  0.78144  Biso   1.000  C
  C923     1.0000 0.25870  0.26338  0.02378  Biso   1.000  C
  C924     1.0000 0.50315  0.24522  0.75559  Biso   1.000  C
  C925     1.0000 0.24792  0.49748  0.29094  Biso   1.000  C
  C926     1.0000 0.26110  0.23233  0.50258  Biso   1.000  C
  C927     1.0000 0.50768  0.25468  0.25878  Biso   1.000  C
  C928     1.0000 0.74975  0.50282  0.24928  Biso   1.000  C
  C929     1.0000 0.75629  0.23075  0.01422  Biso   1.000  C
  C930     1.0000 0.99791  0.25840  0.28417  Biso   1.000  C
  C931     1.0000 0.25892  0.99737  0.27892  Biso   1.000  C
  C932     1.0000 0.23466  0.72983  0.53835  Biso   1.000  C
  C933     1.0000 0.99571  0.76045  0.26078  Biso   1.000  C
  C934     1.0000 0.75988  0.00683  0.26923  Biso   1.000  C
  C935     1.0000 0.73338  0.73873  0.03879  Biso   1.000  C
  C936     1.0000 0.51535  0.75153  0.29477  Biso   1.000  C
  C937     1.0000 0.73465  0.25559  0.01457  Biso   1.000  C
  C938     1.0000 0.99907  0.73543  0.28075  Biso   1.000  C
  C939     1.0000 0.25004  0.99818  0.75800  Biso   1.000  C
  C940     1.0000 0.23961  0.25547  0.50386  Biso   1.000  C
  C941     1.0000 0.51537  0.72947  0.27126  Biso   1.000  C
  C942     1.0000 0.74687  0.00002  0.78872  Biso   1.000  C
  C943     1.0000 0.75690  0.76211  0.04108  Biso   1.000  C
  C944     1.0000 0.50775  0.23150  0.28100  Biso   1.000  C
  C945     1.0000 0.22753  0.47900  0.77525  Biso   1.000  C
  C946     1.0000 0.25775  0.75264  0.54002  Biso   1.000  C
  C947     1.0000 0.99534  0.23607  0.26231  Biso   1.000  C
  C948     1.0000 0.72855  0.50836  0.76825  Biso   1.000  C
  C949     1.0000 0.25690  0.73911  0.04036  Biso   1.000  C
  C950     1.0000 0.98117  0.25072  0.75832  Biso   1.000  C
  C951     1.0000 0.73719  0.00380  0.29041  Biso   1.000  C
  C952     1.0000 0.75642  0.72799  0.51803  Biso   1.000  C
  C953     1.0000 0.50312  0.27017  0.77734  Biso   1.000  C
  C954     1.0000 0.23638  0.99679  0.25698  Biso   1.000  C
  C955     1.0000 0.23249  0.24439  0.02889  Biso   1.000  C
  C956     1.0000 0.50241  0.77221  0.77248  Biso   1.000  C
  C957     1.0000 0.77179  0.50049  0.27219  Biso   1.000  C
  C958     1.0000 0.73675  0.23638  0.56602  Biso   1.000  C
  C959     1.0000 0.98554  0.75115  0.78295  Biso   1.000  C
  C960     1.0000 0.26820  0.49563  0.26817  Biso   1.000  C
  Cu1      1.0000 0.99193  0.49335  0.67818  Biso   1.000  Cu
  Cu2      1.0000 0.64842  0.99159  0.52528  Biso   1.000  Cu
  Cu3      1.0000 0.49512  0.64921  0.03391  Biso   1.000  Cu
  Cu4      1.0000 0.49649  0.50464  0.86805  Biso   1.000  Cu
  Cu5      1.0000 0.14571  0.00309  0.01942  Biso   1.000  Cu
  Cu6      1.0000 0.99450  0.64223  0.52010  Biso   1.000  Cu
  Cu7      1.0000 0.48611  0.00321  0.67931  Biso   1.000  Cu
  Cu8      1.0000 0.84546  0.48978  0.51221  Biso   1.000  Cu
  Cu9      1.0000 0.99317  0.15255  0.02239  Biso   1.000  Cu
  Cu10     1.0000 0.99068  0.98921  0.87023  Biso   1.000  Cu
  Cu11     1.0000 0.34783  0.49939  0.02871  Biso   1.000  Cu
  Cu12     1.0000 0.49995  0.15186  0.51983  Biso   1.000  Cu
  Cu13     1.0000 0.00636  0.49739  0.36423  Biso   1.000  Cu
  Cu14     1.0000 0.34371  0.99513  0.52410  Biso   1.000  Cu
  Cu15     1.0000 0.50029  0.34395  0.01665  Biso   1.000  Cu
  Cu16     1.0000 0.50592  0.49352  0.17861  Biso   1.000  Cu
  Cu17     1.0000 0.84524  0.99557  0.02784  Biso   1.000  Cu
  Cu18     1.0000 0.99977  0.33993  0.52358  Biso   1.000  Cu
  Cu19     1.0000 0.49744  0.99449  0.36969  Biso   1.000  Cu
  Cu20     1.0000 0.15052  0.48939  0.52986  Biso   1.000  Cu
  Cu21     1.0000 0.99986  0.84460  0.02295  Biso   1.000  Cu
  Cu22     1.0000 0.99561  0.99829  0.17672  Biso   1.000  Cu
  Cu23     1.0000 0.65346  0.49867  0.01471  Biso   1.000  Cu
  Cu24     1.0000 0.49720  0.84071  0.52626  Biso   1.000  Cu
  Cu25     1.0000 0.20234  0.00626  0.01852  Biso   1.000  Cu
  Cu26     1.0000 0.99262  0.20511  0.02094  Biso   1.000  Cu
  Cu27     1.0000 0.99833  0.99759  0.23106  Biso   1.000  Cu
  Cu28     1.0000 0.70201  0.99363  0.53103  Biso   1.000  Cu
  Cu29     1.0000 0.50141  0.20524  0.51759  Biso   1.000  Cu
  Cu30     1.0000 0.50017  0.99108  0.31549  Biso   1.000  Cu
  Cu31     1.0000 0.29293  0.49803  0.03240  Biso   1.000  Cu
  Cu32     1.0000 0.49875  0.70322  0.03486  Biso   1.000  Cu
  Cu33     1.0000 0.51007  0.49226  0.23221  Biso   1.000  Cu
  Cu34     1.0000 0.79184  0.48711  0.51042  Biso   1.000  Cu
  Cu35     1.0000 0.99775  0.69663  0.52164  Biso   1.000  Cu
  Cu36     1.0000 0.00860  0.49291  0.31148  Biso   1.000  Cu
  Cu37     1.0000 0.79172  0.99561  0.02665  Biso   1.000  Cu
  Cu38     1.0000 0.00101  0.79102  0.02588  Biso   1.000  Cu
  Cu39     1.0000 0.99137  0.99076  0.81586  Biso   1.000  Cu
  Cu40     1.0000 0.28962  0.99519  0.51843  Biso   1.000  Cu
  Cu41     1.0000 0.49530  0.78668  0.52938  Biso   1.000  Cu
  Cu42     1.0000 0.49002  0.00441  0.73308  Biso   1.000  Cu
  Cu43     1.0000 0.70699  0.49935  0.01296  Biso   1.000  Cu
  Cu44     1.0000 0.49456  0.28981  0.01704  Biso   1.000  Cu
  Cu45     1.0000 0.49379  0.50982  0.81425  Biso   1.000  Cu
  Cu46     1.0000 0.20516  0.49080  0.53092  Biso   1.000  Cu
  Cu47     1.0000 0.99980  0.28686  0.52344  Biso   1.000  Cu
  Cu48     1.0000 0.98982  0.49319  0.73244  Biso   1.000  Cu
  H1       1.0000 0.23420  0.78266  0.56626  Biso   1.000  H
  H2       1.0000 0.53497  0.30301  0.75823  Biso   1.000  H
  H3       1.0000 0.74181  0.47434  0.29706  Biso   1.000  H
  H4       1.0000 0.73430  0.79068  0.00888  Biso   1.000  H
  H5       1.0000 0.95537  0.22367  0.72974  Biso   1.000  H
  H6       1.0000 0.29792  0.52674  0.28987  Biso   1.000  H
  H7       1.0000 0.26209  0.28554  0.53230  Biso   1.000  H
  H8       1.0000 0.00942  0.78279  0.75555  Biso   1.000  H
  H9       1.0000 0.70586  0.02728  0.26513  Biso   1.000  H
  H10      1.0000 0.76084  0.28399  0.04210  Biso   1.000  H
  H11      1.0000 0.52624  0.80191  0.79858  Biso   1.000  H
  H12      1.0000 0.26509  0.97609  0.22735  Biso   1.000  H
  H13      1.0000 0.70669  0.26501  0.54483  Biso   1.000  H
  H14      1.0000 0.52798  0.75904  0.23933  Biso   1.000  H
  H15      1.0000 0.25802  0.46577  0.74490  Biso   1.000  H
  H16      1.0000 0.25562  0.21093  0.05082  Biso   1.000  H
  H17      1.0000 0.03181  0.75589  0.30736  Biso   1.000  H
  H18      1.0000 0.69491  0.48447  0.74452  Biso   1.000  H
  H19      1.0000 0.77825  0.74965  0.48178  Biso   1.000  H
  H20      1.0000 0.03158  0.21190  0.27838  Biso   1.000  H
  H21      1.0000 0.22731  0.96755  0.73222  Biso   1.000  H
  H22      1.0000 0.22876  0.70864  0.01799  Biso   1.000  H
  H23      1.0000 0.54759  0.20906  0.26780  Biso   1.000  H
  H24      1.0000 0.76477  0.96609  0.76528  Biso   1.000  H
  H25      1.0000 0.25022  0.02747  0.80994  Biso   1.000  H
  H26      1.0000 0.78188  0.25102  0.04615  Biso   1.000  H
  H27      1.0000 0.96906  0.73506  0.23366  Biso   1.000  H
  H28      1.0000 0.69350  0.97844  0.79271  Biso   1.000  H
  H29      1.0000 0.23431  0.20368  0.52595  Biso   1.000  H
  H30      1.0000 0.55533  0.77457  0.28302  Biso   1.000  H
  H31      1.0000 0.27071  0.51771  0.76895  Biso   1.000  H
  H32      1.0000 0.76288  0.70487  0.05340  Biso   1.000  H
  H33      1.0000 0.48344  0.28629  0.28484  Biso   1.000  H
  H34      1.0000 0.72505  0.52701  0.70818  Biso   1.000  H
  H35      1.0000 0.20814  0.75767  0.51053  Biso   1.000  H
  H36      1.0000 0.98155  0.29091  0.25471  Biso   1.000  H
  H37      1.0000 0.79080  0.98340  0.29520  Biso   1.000  H
  H38      1.0000 0.26647  0.79652  0.01638  Biso   1.000  H
  H39      1.0000 0.94976  0.20612  0.76573  Biso   1.000  H
  H40      1.0000 0.23682  0.96209  0.29984  Biso   1.000  H
  H41      1.0000 0.75860  0.78118  0.49494  Biso   1.000  H
  H42      1.0000 0.47577  0.21570  0.78116  Biso   1.000  H
  H43      1.0000 0.72568  0.53356  0.27421  Biso   1.000  H
  H44      1.0000 0.23979  0.28891  0.99172  Biso   1.000  H
  H45      1.0000 0.46330  0.72520  0.77639  Biso   1.000  H
  H46      1.0000 0.27166  0.46785  0.31784  Biso   1.000  H
  H47      1.0000 0.73817  0.29156  0.58007  Biso   1.000  H
  H48      1.0000 0.94303  0.71301  0.77302  Biso   1.000  H
  H49      1.0000 0.21854  0.52522  0.26889  Biso   1.000  H
  H50      1.0000 0.29074  0.26128  0.48002  Biso   1.000  H
  H51      1.0000 0.53171  0.22816  0.22829  Biso   1.000  H
  H52      1.0000 0.77334  0.47553  0.21948  Biso   1.000  H
  H53      1.0000 0.73290  0.20291  0.98253  Biso   1.000  H
  H54      1.0000 0.01695  0.23010  0.31666  Biso   1.000  H
  H55      1.0000 0.28713  0.02998  0.25761  Biso   1.000  H
  H56      1.0000 0.26066  0.69946  0.56326  Biso   1.000  H
  H57      1.0000 0.02163  0.78990  0.28731  Biso   1.000  H
  H58      1.0000 0.73542  0.03675  0.24117  Biso   1.000  H
  H59      1.0000 0.70013  0.76876  0.02078  Biso   1.000  H
  H60      1.0000 0.47643  0.73391  0.31278  Biso   1.000  H
  H61      1.0000 0.77617  0.48354  0.77406  Biso   1.000  H
  H62      1.0000 0.70190  0.72370  0.54612  Biso   1.000  H
  H63      1.0000 0.53513  0.76760  0.82418  Biso   1.000  H
  H64      1.0000 0.23424  0.45205  0.82883  Biso   1.000  H
  H65      1.0000 0.20822  0.73920  0.06380  Biso   1.000  H
  H66      1.0000 0.02221  0.74730  0.73472  Biso   1.000  H
  H67      1.0000 0.75344  0.02232  0.73847  Biso   1.000  H
  H68      1.0000 0.78954  0.22512  0.54670  Biso   1.000  H
  H69      1.0000 0.02374  0.25173  0.80255  Biso   1.000  H
  H70      1.0000 0.20234  0.96319  0.76092  Biso   1.000  H
  H71      1.0000 0.27910  0.24467  0.06370  Biso   1.000  H
  H72      1.0000 0.53278  0.26696  0.72629  Biso   1.000  H
  H73      1.0000 0.75881  0.52926  0.79679  Biso   1.000  H
  H74      1.0000 0.73887  0.70331  0.55448  Biso   1.000  H
  H75      1.0000 0.48051  0.74249  0.74152  Biso   1.000  H
  H76      1.0000 0.19185  0.48924  0.80296  Biso   1.000  H
  H77      1.0000 0.28608  0.76365  0.06383  Biso   1.000  H
  H78      1.0000 0.95674  0.72720  0.81372  Biso   1.000  H
  H79      1.0000 0.72872  0.03076  0.81799  Biso   1.000  H
  H80      1.0000 0.76297  0.20306  0.58556  Biso   1.000  H
  H81      1.0000 0.99933  0.28334  0.78744  Biso   1.000  H
  H82      1.0000 0.27937  0.02609  0.78381  Biso   1.000  H
  H83      1.0000 0.20194  0.26998  0.00424  Biso   1.000  H
  H84      1.0000 0.46658  0.25045  0.79959  Biso   1.000  H
  H85      1.0000 0.24641  0.45892  0.24269  Biso   1.000  H
  H86      1.0000 0.21104  0.22835  0.47947  Biso   1.000  H
  H87      1.0000 0.47602  0.25295  0.30525  Biso   1.000  H
  H88      1.0000 0.80625  0.52651  0.25142  Biso   1.000  H
  H89      1.0000 0.69914  0.23122  0.99081  Biso   1.000  H
  H90      1.0000 0.95607  0.25252  0.24396  Biso   1.000  H
  H91      1.0000 0.20325  0.01545  0.28626  Biso   1.000  H
  H92      1.0000 0.28731  0.72635  0.51457  Biso   1.000  H
  H93      1.0000 0.96570  0.70835  0.25802  Biso   1.000  H
  H94      1.0000 0.75903  0.97167  0.31734  Biso   1.000  H
  H95      1.0000 0.78417  0.73850  0.07208  Biso   1.000  H
  H96      1.0000 0.50018  0.69405  0.29979  Biso   1.000  H
  H97      1.0000 0.86228  0.98936  0.93176  Biso   1.000  H
  H98      1.0000 0.91041  0.86198  0.03879  Biso   1.000  H
  H99      1.0000 0.98772  0.90074  0.88613  Biso   1.000  H
  H100     1.0000 0.35732  0.00626  0.61282  Biso   1.000  H
  H101     1.0000 0.40692  0.86131  0.53364  Biso   1.000  H
  H102     1.0000 0.49280  0.91360  0.65924  Biso   1.000  H
  H103     1.0000 0.63469  0.49600  0.92097  Biso   1.000  H
  H104     1.0000 0.58729  0.36225  0.00796  Biso   1.000  H
  H105     1.0000 0.49510  0.41394  0.88303  Biso   1.000  H
  H106     1.0000 0.12965  0.49908  0.61933  Biso   1.000  H
  H107     1.0000 0.09231  0.35876  0.52384  Biso   1.000  H
  H108     1.0000 0.98546  0.40374  0.65524  Biso   1.000  H
  H109     1.0000 0.12544  0.00453  0.11178  Biso   1.000  H
  H110     1.0000 0.08193  0.13366  0.03127  Biso   1.000  H
  H111     1.0000 0.01651  0.09137  0.15447  Biso   1.000  H
  H112     1.0000 0.62973  0.99566  0.43278  Biso   1.000  H
  H113     1.0000 0.59060  0.13228  0.52851  Biso   1.000  H
  H114     1.0000 0.49144  0.08516  0.38819  Biso   1.000  H
  H115     1.0000 0.37172  0.49459  0.12041  Biso   1.000  H
  H116     1.0000 0.40272  0.63450  0.02187  Biso   1.000  H
  H117     1.0000 0.50486  0.58866  0.15936  Biso   1.000  H
  H118     1.0000 0.87030  0.48650  0.42200  Biso   1.000  H
  H119     1.0000 0.90806  0.62696  0.51249  Biso   1.000  H
  H120     1.0000 0.99897  0.58750  0.38449  Biso   1.000  H
  H121     1.0000 0.08489  0.99006  0.89080  Biso   1.000  H
  H122     1.0000 0.86203  0.08599  0.00471  Biso   1.000  H
  H123     1.0000 0.99598  0.86779  0.11806  Biso   1.000  H
  H124     1.0000 0.57795  0.00162  0.65897  Biso   1.000  H
  H125     1.0000 0.36676  0.08656  0.51189  Biso   1.000  H
  H126     1.0000 0.49315  0.85906  0.43798  Biso   1.000  H
  H127     1.0000 0.40436  0.49806  0.89158  Biso   1.000  H
  H128     1.0000 0.63232  0.58966  0.02242  Biso   1.000  H
  H129     1.0000 0.50269  0.36742  0.11221  Biso   1.000  H
  H130     1.0000 0.90441  0.49638  0.65209  Biso   1.000  H
  H131     1.0000 0.12910  0.58323  0.52920  Biso   1.000  H
  H132     1.0000 0.99775  0.36541  0.43172  Biso   1.000  H
  H133     1.0000 0.90730  0.01018  0.15999  Biso   1.000  H
  H134     1.0000 0.13378  0.90970  0.01578  Biso   1.000  H
  H135     1.0000 0.99974  0.12702  0.93015  Biso   1.000  H
  H136     1.0000 0.40516  0.99122  0.38633  Biso   1.000  H
  H137     1.0000 0.62962  0.89728  0.52603  Biso   1.000  H
  H138     1.0000 0.49534  0.13618  0.60939  Biso   1.000  H
  H139     1.0000 0.59643  0.49579  0.14822  Biso   1.000  H
  H140     1.0000 0.36699  0.41084  0.02677  Biso   1.000  H
  H141     1.0000 0.49474  0.63660  0.93812  Biso   1.000  H
  H142     1.0000 0.09476  0.50260  0.38769  Biso   1.000  H
  H143     1.0000 0.86770  0.39990  0.51236  Biso   1.000  H
  H144     1.0000 0.99003  0.62064  0.61488  Biso   1.000  H
  H145     1.0000 0.58848  0.49910  0.88398  Biso   1.000  H
  H146     1.0000 0.86441  0.58495  0.51287  Biso   1.000  H
  H147     1.0000 0.50492  0.86533  0.61535  Biso   1.000  H
  H148     1.0000 0.08322  0.49779  0.65985  Biso   1.000  H
  H149     1.0000 0.36222  0.59224  0.02706  Biso   1.000  H
  H150     1.0000 0.99394  0.86086  0.92832  Biso   1.000  H
  H151     1.0000 0.89740  0.98962  0.89232  Biso   1.000  H
  H152     1.0000 0.62801  0.08964  0.53295  Biso   1.000  H
  H153     1.0000 0.98566  0.36270  0.61300  Biso   1.000  H
  H154     1.0000 0.39826  0.00996  0.65747  Biso   1.000  H
  H155     1.0000 0.12504  0.09478  0.02895  Biso   1.000  H
  H156     1.0000 0.49430  0.36833  0.92659  Biso   1.000  H
  H157     1.0000 0.41444  0.49613  0.16279  Biso   1.000  H
  H158     1.0000 0.13364  0.40032  0.52749  Biso   1.000  H
  H159     1.0000 0.50011  0.12997  0.43134  Biso   1.000  H
  H160     1.0000 0.91590  0.48648  0.38267  Biso   1.000  H
  H161     1.0000 0.63271  0.40449  0.00530  Biso   1.000  H
  H162     1.0000 0.99989  0.13168  0.11009  Biso   1.000  H
  H163     1.0000 0.08756  0.99757  0.15246  Biso   1.000  H
  H164     1.0000 0.36431  0.90539  0.53087  Biso   1.000  H
  H165     1.0000 0.00762  0.62364  0.42279  Biso   1.000  H
  H166     1.0000 0.58671  0.99890  0.39089  Biso   1.000  H
  H167     1.0000 0.87087  0.90553  0.03851  Biso   1.000  H
  H168     1.0000 0.49223  0.62964  0.11970  Biso   1.000  H
  H169     1.0000 0.99146  0.08428  0.89448  Biso   1.000  H
  H170     1.0000 0.86189  0.00202  0.12126  Biso   1.000  H
  H171     1.0000 0.09480  0.87039  0.01692  Biso   1.000  H
  H172     1.0000 0.48529  0.09553  0.65592  Biso   1.000  H
  H173     1.0000 0.36703  0.99360  0.42814  Biso   1.000  H
  H174     1.0000 0.58628  0.85428  0.52207  Biso   1.000  H
  H175     1.0000 0.49598  0.59581  0.89509  Biso   1.000  H
  H176     1.0000 0.63485  0.50017  0.10774  Biso   1.000  H
  H177     1.0000 0.40866  0.36816  0.02535  Biso   1.000  H
  H178     1.0000 0.98627  0.58090  0.65759  Biso   1.000  H
  H179     1.0000 0.13416  0.48856  0.43354  Biso   1.000  H
  H180     1.0000 0.90900  0.36055  0.52205  Biso   1.000  H
  H181     1.0000 0.99024  0.90745  0.15737  Biso   1.000  H
  H182     1.0000 0.12632  0.99797  0.92897  Biso   1.000  H
  H183     1.0000 0.90458  0.12773  0.01051  Biso   1.000  H
  H184     1.0000 0.49868  0.90368  0.39508  Biso   1.000  H
  H185     1.0000 0.62455  0.99648  0.61350  Biso   1.000  H
  H186     1.0000 0.40718  0.12822  0.51242  Biso   1.000  H
  H187     1.0000 0.50823  0.40544  0.15560  Biso   1.000  H
  H188     1.0000 0.36552  0.49388  0.93455  Biso   1.000  H
  H189     1.0000 0.58501  0.62883  0.03327  Biso   1.000  H
  H190     1.0000 0.01515  0.40659  0.39086  Biso   1.000  H
  H191     1.0000 0.86605  0.48910  0.60708  Biso   1.000  H
  H192     1.0000 0.08813  0.62309  0.52798  Biso   1.000  H
  H193     1.0000 0.26703  0.85060  0.51648  Biso   1.000  H
  H194     1.0000 0.50090  0.27655  0.86977  Biso   1.000  H
  H195     1.0000 0.86472  0.48347  0.28415  Biso   1.000  H
  H196     1.0000 0.77388  0.85183  0.03295  Biso   1.000  H
  H197     1.0000 0.98851  0.26294  0.67008  Biso   1.000  H
  H198     1.0000 0.36389  0.47768  0.25769  Biso   1.000  H
  H199     1.0000 0.22795  0.35258  0.50168  Biso   1.000  H
  H200     1.0000 0.99274  0.76250  0.88310  Biso   1.000  H
  H201     1.0000 0.64827  0.99139  0.29597  Biso   1.000  H
  H202     1.0000 0.72729  0.35596  0.03200  Biso   1.000  H
  H203     1.0000 0.51266  0.77468  0.67824  Biso   1.000  H
  H204     1.0000 0.14149  0.98491  0.25043  Biso   1.000  H
  H205     1.0000 0.72913  0.13229  0.54432  Biso   1.000  H
  H206     1.0000 0.48576  0.72139  0.18121  Biso   1.000  H
  H207     1.0000 0.12978  0.46733  0.75688  Biso   1.000  H
  H208     1.0000 0.22290  0.14783  0.02761  Biso   1.000  H
  H209     1.0000 0.99386  0.72432  0.37679  Biso   1.000  H
  H210     1.0000 0.63352  0.51903  0.78418  Biso   1.000  H
  H211     1.0000 0.76754  0.63427  0.51109  Biso   1.000  H
  H212     1.0000 0.97352  0.22384  0.16628  Biso   1.000  H
  H213     1.0000 0.34287  0.99921  0.75235  Biso   1.000  H
  H214     1.0000 0.26637  0.64251  0.04564  Biso   1.000  H
  H215     1.0000 0.51386  0.22448  0.37152  Biso   1.000  H
  H216     1.0000 0.84551  0.99245  0.79222  Biso   1.000  H
  H217     1.0000 0.23365  0.48642  0.38948  Biso   1.000  H
  H218     1.0000 0.35906  0.22701  0.50435  Biso   1.000  H
  H219     1.0000 0.50344  0.34930  0.24888  Biso   1.000  H
  H220     1.0000 0.73458  0.50796  0.15591  Biso   1.000  H
  H221     1.0000 0.84879  0.22492  0.00326  Biso   1.000  H
  H222     1.0000 0.02433  0.35000  0.29569  Biso   1.000  H
  H223     1.0000 0.26739  0.99196  0.37820  Biso   1.000  H
  H224     1.0000 0.13777  0.71889  0.53369  Biso   1.000  H
  H225     1.0000 0.98619  0.85177  0.25379  Biso   1.000  H
  H226     1.0000 0.76914  0.01074  0.17399  Biso   1.000  H
  H227     1.0000 0.63628  0.72540  0.05152  Biso   1.000  H
  H228     1.0000 0.50624  0.84733  0.29667  Biso   1.000  H
  H229     1.0000 0.76561  0.48543  0.65360  Biso   1.000  H
  H230     1.0000 0.64189  0.76009  0.52011  Biso   1.000  H
  H231     1.0000 0.49457  0.65529  0.80184  Biso   1.000  H
  H232     1.0000 0.26601  0.50004  0.89123  Biso   1.000  H
  H233     1.0000 0.14565  0.77289  0.02185  Biso   1.000  H
  H234     1.0000 0.98006  0.63890  0.75249  Biso   1.000  H
  H235     1.0000 0.71533  0.98268  0.67430  Biso   1.000  H
  H236     1.0000 0.86093  0.26989  0.56349  Biso   1.000  H
  H237     1.0000 0.98225  0.13094  0.79417  Biso   1.000  H
  H238     1.0000 0.21951  0.99148  0.87400  Biso   1.000  H
  H239     1.0000 0.35255  0.26992  0.03376  Biso   1.000  H
  H240     1.0000 0.50888  0.14889  0.74799  Biso   1.000  H
  H241     1.0000 0.73038  0.51258  0.86738  Biso   1.000  H
  H242     1.0000 0.84984  0.72061  0.51411  Biso   1.000  H
  H243     1.0000 0.49595  0.86089  0.75729  Biso   1.000  H
  H244     1.0000 0.22412  0.49256  0.67645  Biso   1.000  H
  H245     1.0000 0.35875  0.73232  0.04262  Biso   1.000  H
  H246     1.0000 0.98935  0.84901  0.78876  Biso   1.000  H
  H247     1.0000 0.76313  0.99541  0.88690  Biso   1.000  H
  H248     1.0000 0.64461  0.22298  0.56740  Biso   1.000  H
  H249     1.0000 0.96576  0.34711  0.75008  Biso   1.000  H
  H250     1.0000 0.26057  0.99067  0.66391  Biso   1.000  H
  H251     1.0000 0.13520  0.23019  0.04487  Biso   1.000  H
  H252     1.0000 0.50020  0.36285  0.78760  Biso   1.000  H
  H253     1.0000 0.27664  0.49946  0.17155  Biso   1.000  H
  H254     1.0000 0.14059  0.26169  0.50054  Biso   1.000  H
  H255     1.0000 0.50426  0.13754  0.29022  Biso   1.000  H
  H256     1.0000 0.77462  0.50066  0.37034  Biso   1.000  H
  H257     1.0000 0.64169  0.26735  0.02883  Biso   1.000  H
  H258     1.0000 0.00777  0.14290  0.25440  Biso   1.000  H
  H259     1.0000 0.22582  0.00691  0.16015  Biso   1.000  H
  H260     1.0000 0.35224  0.76560  0.54722  Biso   1.000  H
  H261     1.0000 0.00604  0.64534  0.28817  Biso   1.000  H
  H262     1.0000 0.72829  0.99654  0.38668  Biso   1.000  H
  H263     1.0000 0.85146  0.76710  0.03034  Biso   1.000  H
  H264     1.0000 0.52357  0.63958  0.25527  Biso   1.000  H
  H265     1.0000 0.99513  0.22320  0.87452  Biso   1.000  H
  H266     1.0000 0.85751  0.01699  0.25793  Biso   1.000  H
  H267     1.0000 0.23051  0.86269  0.03642  Biso   1.000  H
  H268     1.0000 0.49326  0.23333  0.65973  Biso   1.000  H
  H269     1.0000 0.35320  0.99202  0.28899  Biso   1.000  H
  H270     1.0000 0.72442  0.84738  0.53609  Biso   1.000  H
  H271     1.0000 0.49913  0.73501  0.89399  Biso   1.000  H
  H272     1.0000 0.65156  0.50620  0.24686  Biso   1.000  H
  H273     1.0000 0.27001  0.35489  0.03089  Biso   1.000  H
  H274     1.0000 0.98052  0.72014  0.66258  Biso   1.000  H
  H275     1.0000 0.15306  0.48647  0.29719  Biso   1.000  H
  H276     1.0000 0.77226  0.34720  0.53538  Biso   1.000  H
  H277     1.0000 0.00471  0.77107  0.16878  Biso   1.000  H
  H278     1.0000 0.13142  0.98734  0.79289  Biso   1.000  H
  H279     1.0000 0.76509  0.13679  0.01800  Biso   1.000  H
  H280     1.0000 0.49456  0.76243  0.38504  Biso   1.000  H
  H281     1.0000 0.63202  0.01080  0.75467  Biso   1.000  H
  H282     1.0000 0.27056  0.13541  0.48960  Biso   1.000  H
  H283     1.0000 0.50408  0.26620  0.15776  Biso   1.000  H
  H284     1.0000 0.34770  0.49824  0.79869  Biso   1.000  H
  H285     1.0000 0.72528  0.64726  0.02402  Biso   1.000  H
  H286     1.0000 0.98325  0.26849  0.38221  Biso   1.000  H
  H287     1.0000 0.84554  0.50664  0.74396  Biso   1.000  H
  H288     1.0000 0.22657  0.63565  0.52793  Biso   1.000  H
  H289     1.0000 0.08137  0.22846  0.04200  Biso   1.000  H
  H290     1.0000 0.01563  0.08843  0.25152  Biso   1.000  H
  H291     1.0000 0.22040  0.01443  0.10747  Biso   1.000  H
  H292     1.0000 0.59254  0.22420  0.54865  Biso   1.000  H
  H293     1.0000 0.50529  0.08311  0.29231  Biso   1.000  H
  H294     1.0000 0.72750  0.99701  0.44067  Biso   1.000  H
  H295     1.0000 0.41050  0.72853  0.03099  Biso   1.000  H
  H296     1.0000 0.52301  0.58486  0.25323  Biso   1.000  H
  H297     1.0000 0.27934  0.50852  0.12301  Biso   1.000  H
  H298     1.0000 0.90404  0.72161  0.51119  Biso   1.000  H
  H299     1.0000 0.00712  0.59271  0.28534  Biso   1.000  H
  H300     1.0000 0.77578  0.49712  0.42085  Biso   1.000  H
  H301     1.0000 0.90985  0.76745  0.02368  Biso   1.000  H
  H302     1.0000 0.99847  0.90112  0.79293  Biso   1.000  H
  H303     1.0000 0.76947  0.99878  0.94011  Biso   1.000  H
  H304     1.0000 0.40279  0.76633  0.55040  Biso   1.000  H
  H305     1.0000 0.49870  0.91480  0.75499  Biso   1.000  H
  H306     1.0000 0.26197  0.98536  0.60832  Biso   1.000  H
  H307     1.0000 0.58484  0.26656  0.02510  Biso   1.000  H
  H308     1.0000 0.48786  0.41406  0.78708  Biso   1.000  H
  H309     1.0000 0.72949  0.50603  0.92039  Biso   1.000  H
  H310     1.0000 0.08241  0.26523  0.50412  Biso   1.000  H
  H311     1.0000 0.97020  0.40282  0.75030  Biso   1.000  H
  H312     1.0000 0.22349  0.49252  0.62355  Biso   1.000  H
  H313     1.0000 0.22349  0.99340  0.92926  Biso   1.000  H
  H314     1.0000 0.90405  0.22338  0.00860  Biso   1.000  H
  H315     1.0000 0.98153  0.90576  0.25343  Biso   1.000  H
  H316     1.0000 0.71488  0.97265  0.61808  Biso   1.000  H
  H317     1.0000 0.41248  0.22299  0.50913  Biso   1.000  H
  H318     1.0000 0.50336  0.90040  0.29869  Biso   1.000  H
  H319     1.0000 0.27111  0.49116  0.94189  Biso   1.000  H
  H320     1.0000 0.58466  0.72069  0.05284  Biso   1.000  H
  H321     1.0000 0.50553  0.40004  0.25224  Biso   1.000  H
  H322     1.0000 0.76839  0.47945  0.59675  Biso   1.000  H
  H323     1.0000 0.08384  0.71913  0.53267  Biso   1.000  H
  H324     1.0000 0.03002  0.40386  0.29617  Biso   1.000  H
  H325     1.0000 0.76688  0.01048  0.12141  Biso   1.000  H
  H326     1.0000 0.09233  0.77473  0.01685  Biso   1.000  H
  H327     1.0000 0.99222  0.07983  0.79624  Biso   1.000  H
  H328     1.0000 0.27239  0.98736  0.43192  Biso   1.000  H
  H329     1.0000 0.58813  0.75815  0.52209  Biso   1.000  H
  H330     1.0000 0.50156  0.09479  0.74831  Biso   1.000  H
  H331     1.0000 0.72942  0.50358  0.10156  Biso   1.000  H
  H332     1.0000 0.40571  0.26862  0.03579  Biso   1.000  H
  H333     1.0000 0.49624  0.60341  0.79779  Biso   1.000  H
  H334     1.0000 0.23017  0.48247  0.44354  Biso   1.000  H
  H335     1.0000 0.91409  0.27256  0.56008  Biso   1.000  H
  H336     1.0000 0.99042  0.58683  0.75358  Biso   1.000  H
  H337     1.0000 0.00451  0.22230  0.92607  Biso   1.000  H
  H338     1.0000 0.90862  0.01941  0.25702  Biso   1.000  H
  H339     1.0000 0.22919  0.91408  0.03153  Biso   1.000  H
  H340     1.0000 0.49706  0.23072  0.60364  Biso   1.000  H
  H341     1.0000 0.40555  0.98658  0.29041  Biso   1.000  H
  H342     1.0000 0.72579  0.90158  0.53206  Biso   1.000  H
  H343     1.0000 0.49860  0.73020  0.94927  Biso   1.000  H
  H344     1.0000 0.60225  0.49648  0.24632  Biso   1.000  H
  H345     1.0000 0.27074  0.41003  0.03230  Biso   1.000  H
  H346     1.0000 0.98422  0.71616  0.60867  Biso   1.000  H
  H347     1.0000 0.10138  0.49030  0.29306  Biso   1.000  H
  H348     1.0000 0.77182  0.39574  0.51582  Biso   1.000  H
  H349     1.0000 0.00779  0.77142  0.11327  Biso   1.000  H
  H350     1.0000 0.07629  0.99724  0.79660  Biso   1.000  H
  H351     1.0000 0.76502  0.08428  0.01406  Biso   1.000  H
  H352     1.0000 0.48684  0.76243  0.43810  Biso   1.000  H
  H353     1.0000 0.57822  0.01898  0.75353  Biso   1.000  H
  H354     1.0000 0.27336  0.08440  0.48973  Biso   1.000  H
  H355     1.0000 0.50428  0.26909  0.10877  Biso   1.000  H
  H356     1.0000 0.40186  0.50078  0.79589  Biso   1.000  H
  H357     1.0000 0.72585  0.59279  0.01484  Biso   1.000  H
  H358     1.0000 0.97401  0.27192  0.43324  Biso   1.000  H
  H359     1.0000 0.89547  0.51156  0.74803  Biso   1.000  H
  H360     1.0000 0.22533  0.58364  0.52866  Biso   1.000  H
  H361     1.0000 0.99750  0.71886  0.43268  Biso   1.000  H
  H362     1.0000 0.39556  0.00672  0.75414  Biso   1.000  H
  H363     1.0000 0.72455  0.40996  0.03044  Biso   1.000  H
  H364     1.0000 0.47923  0.72394  0.12375  Biso   1.000  H
  H365     1.0000 0.89957  0.98700  0.79452  Biso   1.000  H
  H366     1.0000 0.22372  0.40691  0.50635  Biso   1.000  H
  H367     1.0000 0.51746  0.22871  0.42543  Biso   1.000  H
  H368     1.0000 0.07464  0.47318  0.75118  Biso   1.000  H
  H369     1.0000 0.77488  0.90697  0.03588  Biso   1.000  H
  H370     1.0000 0.97505  0.22364  0.11356  Biso   1.000  H
  H371     1.0000 0.58339  0.51887  0.79001  Biso   1.000  H
  H372     1.0000 0.26859  0.90381  0.51149  Biso   1.000  H
  H373     1.0000 0.99927  0.26382  0.61594  Biso   1.000  H
  H374     1.0000 0.58743  0.98502  0.29820  Biso   1.000  H
  H375     1.0000 0.26466  0.58928  0.03819  Biso   1.000  H
  H376     1.0000 0.49574  0.27171  0.92386  Biso   1.000  H
  H377     1.0000 0.08590  0.97891  0.24825  Biso   1.000  H
  H378     1.0000 0.76860  0.57860  0.50721  Biso   1.000  H
  H379     1.0000 0.50890  0.76975  0.62317  Biso   1.000  H
  H380     1.0000 0.91971  0.47933  0.28787  Biso   1.000  H
  H381     1.0000 0.21813  0.09705  0.01697  Biso   1.000  H
  H382     1.0000 0.98942  0.76635  0.93893  Biso   1.000  H
  H383     1.0000 0.41784  0.48270  0.25747  Biso   1.000  H
  H384     1.0000 0.72433  0.08275  0.53437  Biso   1.000  H
  H385     1.0000 0.23209  0.45876  0.35152  Biso   1.000  H
  H386     1.0000 0.27253  0.16284  0.52799  Biso   1.000  H
  H387     1.0000 0.47226  0.31755  0.24201  Biso   1.000  H
  H388     1.0000 0.68505  0.53511  0.23739  Biso   1.000  H
  H389     1.0000 0.81999  0.21750  0.04466  Biso   1.000  H
  H390     1.0000 0.97793  0.32693  0.29462  Biso   1.000  H
  H391     1.0000 0.27149  0.96209  0.34034  Biso   1.000  H
  H392     1.0000 0.17138  0.72143  0.50323  Biso   1.000  H
  H393     1.0000 0.96661  0.77326  0.19432  Biso   1.000  H
  H394     1.0000 0.82893  0.98449  0.25504  Biso   1.000  H
  H395     1.0000 0.72659  0.66821  0.05728  Biso   1.000  H
  H396     1.0000 0.54648  0.81438  0.31162  Biso   1.000  H
  H397     1.0000 0.76604  0.52298  0.67505  Biso   1.000  H
  H398     1.0000 0.72498  0.81909  0.49747  Biso   1.000  H
  H399     1.0000 0.46148  0.68700  0.81111  Biso   1.000  H
  H400     1.0000 0.31418  0.52509  0.80249  Biso   1.000  H
  H401     1.0000 0.22984  0.82983  0.00878  Biso   1.000  H
  H402     1.0000 0.94012  0.67424  0.73643  Biso   1.000  H
  H403     1.0000 0.65612  0.97549  0.75191  Biso   1.000  H
  H404     1.0000 0.77353  0.33023  0.57028  Biso   1.000  H
  H405     1.0000 0.95190  0.16572  0.80163  Biso   1.000  H
  H406     1.0000 0.21087  0.02987  0.84379  Biso   1.000  H
  H407     1.0000 0.27858  0.32690  0.99258  Biso   1.000  H
  H408     1.0000 0.47154  0.17863  0.74346  Biso   1.000  H
  H409     1.0000 0.27982  0.45983  0.20466  Biso   1.000  H
  H410     1.0000 0.17255  0.26418  0.47520  Biso   1.000  H
  H411     1.0000 0.47108  0.21470  0.34292  Biso   1.000  H
  H412     1.0000 0.84058  0.51917  0.28742  Biso   1.000  H
  H413     1.0000 0.66684  0.27325  0.99194  Biso   1.000  H
  H414     1.0000 0.95121  0.21630  0.20712  Biso   1.000  H
  H415     1.0000 0.16816  0.02490  0.24711  Biso   1.000  H
  H416     1.0000 0.32360  0.76422  0.50877  Biso   1.000  H
  H417     1.0000 0.96383  0.67268  0.29876  Biso   1.000  H
  H418     1.0000 0.72493  0.96886  0.35447  Biso   1.000  H
  H419     1.0000 0.82384  0.77148  0.06724  Biso   1.000  H
  H420     1.0000 0.48803  0.66187  0.26257  Biso   1.000  H
  H421     1.0000 0.72439  0.53845  0.83625  Biso   1.000  H
  H422     1.0000 0.77506  0.66307  0.54863  Biso   1.000  H
  H423     1.0000 0.47762  0.77671  0.70310  Biso   1.000  H
  H424     1.0000 0.15757  0.49611  0.76267  Biso   1.000  H
  H425     1.0000 0.32363  0.72983  0.07089  Biso   1.000  H
  H426     1.0000 0.95589  0.76681  0.84898  Biso   1.000  H
  H427     1.0000 0.76888  0.02842  0.85185  Biso   1.000  H
  H428     1.0000 0.72821  0.16425  0.57824  Biso   1.000  H
  H429     1.0000 0.99988  0.32232  0.75145  Biso   1.000  H
  H430     1.0000 0.31217  0.03401  0.74296  Biso   1.000  H
  H431     1.0000 0.15986  0.23343  0.00765  Biso   1.000  H
  H432     1.0000 0.46547  0.28412  0.83684  Biso   1.000  H
  H433     1.0000 0.26671  0.96226  0.69537  Biso   1.000  H
  H434     1.0000 0.72519  0.32044  0.05024  Biso   1.000  H
  H435     1.0000 0.03357  0.72205  0.34396  Biso   1.000  H
  H436     1.0000 0.80712  0.96020  0.79700  Biso   1.000  H
  H437     1.0000 0.22546  0.32035  0.53379  Biso   1.000  H
  H438     1.0000 0.52599  0.72564  0.19998  Biso   1.000  H
  H439     1.0000 0.22548  0.46049  0.70376  Biso   1.000  H
  H440     1.0000 0.77797  0.82190  0.00200  Biso   1.000  H
  H441     1.0000 0.54412  0.17134  0.30429  Biso   1.000  H
  H442     1.0000 0.66262  0.48314  0.78707  Biso   1.000  H
  H443     1.0000 0.27049  0.82319  0.55777  Biso   1.000  H
  H444     1.0000 0.03429  0.17880  0.24244  Biso   1.000  H
  H445     1.0000 0.66722  0.02908  0.30283  Biso   1.000  H
  H446     1.0000 0.26680  0.67310  0.01452  Biso   1.000  H
  H447     1.0000 0.95170  0.26181  0.69180  Biso   1.000  H
  H448     1.0000 0.22286  0.97496  0.18968  Biso   1.000  H
  H449     1.0000 0.81811  0.71432  0.48483  Biso   1.000  H
  H450     1.0000 0.52953  0.33874  0.79089  Biso   1.000  H
  H451     1.0000 0.77759  0.46541  0.33666  Biso   1.000  H
  H452     1.0000 0.22163  0.17906  0.05740  Biso   1.000  H
  H453     1.0000 0.53352  0.83689  0.75600  Biso   1.000  H
  H454     1.0000 0.33607  0.52250  0.25149  Biso   1.000  H
  H455     1.0000 0.67234  0.22781  0.53172  Biso   1.000  H
  H456     1.0000 0.01857  0.81572  0.79498  Biso   1.000  H
  H457     1.0000 0.66870  0.76261  0.55304  Biso   1.000  H
  H458     1.0000 0.53282  0.72967  0.85794  Biso   1.000  H
  H459     1.0000 0.81777  0.47629  0.73907  Biso   1.000  H
  H460     1.0000 0.17014  0.77648  0.06026  Biso   1.000  H
  H461     1.0000 0.02208  0.70876  0.70149  Biso   1.000  H
  H462     1.0000 0.27238  0.46202  0.86215  Biso   1.000  H
  H463     1.0000 0.82910  0.26195  0.53397  Biso   1.000  H
  H464     1.0000 0.02728  0.21175  0.83822  Biso   1.000  H
  H465     1.0000 0.71395  0.02351  0.69859  Biso   1.000  H
  H466     1.0000 0.32088  0.27639  0.06400  Biso   1.000  H
  H467     1.0000 0.52798  0.23278  0.68823  Biso   1.000  H
  H468     1.0000 0.16560  0.96089  0.79695  Biso   1.000  H
  H469     1.0000 0.32798  0.22492  0.47667  Biso   1.000  H
  H470     1.0000 0.53323  0.26598  0.18983  Biso   1.000  H
  H471     1.0000 0.18002  0.51889  0.30458  Biso   1.000  H
  H472     1.0000 0.76960  0.16807  0.97520  Biso   1.000  H
  H473     1.0000 0.02197  0.26611  0.35486  Biso   1.000  H
  H474     1.0000 0.73442  0.47594  0.18177  Biso   1.000  H
  H475     1.0000 0.22089  0.66250  0.56478  Biso   1.000  H
  H476     1.0000 0.02328  0.82913  0.25305  Biso   1.000  H
  H477     1.0000 0.32392  0.03036  0.29291  Biso   1.000  H
  H478     1.0000 0.66224  0.72920  0.02330  Biso   1.000  H
  H479     1.0000 0.46570  0.76994  0.34481  Biso   1.000  H
  H480     1.0000 0.77234  0.04034  0.20411  Biso   1.000  H
  N1       1.0000 0.67703  0.17086  0.54922  Biso   1.000  N
  N2       1.0000 0.50287  0.67067  0.20655  Biso   1.000  N
  N3       1.0000 0.16709  0.48268  0.70749  Biso   1.000  N
  N4       1.0000 0.16768  0.18082  0.03521  Biso   1.000  N
  N5       1.0000 0.99791  0.67370  0.34353  Biso   1.000  N
  N6       1.0000 0.67136  0.51155  0.83559  Biso   1.000  N
  N7       1.0000 0.81938  0.66776  0.51422  Biso   1.000  N
  N8       1.0000 0.99252  0.17319  0.19939  Biso   1.000  N
  N9       1.0000 0.31316  0.99724  0.69739  Biso   1.000  N
  N10      1.0000 0.31969  0.67752  0.04109  Biso   1.000  N
  N11      1.0000 0.50439  0.17028  0.34401  Biso   1.000  N
  N12      1.0000 0.81417  0.99310  0.84757  Biso   1.000  N
  N13      1.0000 0.31947  0.81805  0.52995  Biso   1.000  N
  N14      1.0000 0.49625  0.32983  0.84012  Biso   1.000  N
  N15      1.0000 0.83132  0.48810  0.33606  Biso   1.000  N
  N16      1.0000 0.82407  0.82036  0.03485  Biso   1.000  N
  N17      1.0000 0.97747  0.31732  0.69929  Biso   1.000  N
  N18      1.0000 0.33025  0.49013  0.20632  Biso   1.000  N
  N19      1.0000 0.17469  0.31629  0.50680  Biso   1.000  N
  N20      1.0000 0.98891  0.81483  0.84504  Biso   1.000  N
  N21      1.0000 0.67515  0.99664  0.35186  Biso   1.000  N
  N22      1.0000 0.67321  0.32012  0.02390  Biso   1.000  N
  N23      1.0000 0.50605  0.82793  0.70608  Biso   1.000  N
  N24      1.0000 0.17243  0.99945  0.19623  Biso   1.000  N
  N25      1.0000 0.81738  0.49728  0.68680  Biso   1.000  N
  N26      1.0000 0.67407  0.81464  0.52563  Biso   1.000  N
  N27      1.0000 0.49638  0.68462  0.85801  Biso   1.000  N
  N28      1.0000 0.31660  0.49841  0.85382  Biso   1.000  N
  N29      1.0000 0.17674  0.82661  0.03007  Biso   1.000  N
  N30      1.0000 0.97999  0.66894  0.69588  Biso   1.000  N
  N31      1.0000 0.66224  0.99733  0.70159  Biso   1.000  N
  N32      1.0000 0.82654  0.31891  0.54473  Biso   1.000  N
  N33      1.0000 0.99045  0.16697  0.84522  Biso   1.000  N
  N34      1.0000 0.16752  0.99070  0.84420  Biso   1.000  N
  N35      1.0000 0.32323  0.32391  0.03135  Biso   1.000  N
  N36      1.0000 0.49747  0.18115  0.69277  Biso   1.000  N
  N37      1.0000 0.18244  0.48787  0.35096  Biso   1.000  N
  N38      1.0000 0.32450  0.17180  0.50471  Biso   1.000  N
  N39      1.0000 0.50815  0.31799  0.19532  Biso   1.000  N
  N40      1.0000 0.68483  0.50367  0.19096  Biso   1.000  N
  N41      1.0000 0.81859  0.16961  0.00845  Biso   1.000  N
  N42      1.0000 0.00398  0.31923  0.34838  Biso   1.000  N
  N43      1.0000 0.32053  0.99446  0.34337  Biso   1.000  N
  N44      1.0000 0.17241  0.66721  0.53063  Biso   1.000  N
  N45      1.0000 0.99711  0.82219  0.20086  Biso   1.000  N
  N46      1.0000 0.82169  0.01110  0.20636  Biso   1.000  N
  N47      1.0000 0.67229  0.67542  0.03779  Biso   1.000  N
  N48      1.0000 0.50198  0.81647  0.35334  Biso   1.000  N
  O1       1.0000 0.34058  0.54150  0.02770  Biso   1.000  O
  O2       1.0000 0.99938  0.33678  0.56582  Biso   1.000  O
  O3       1.0000 0.54068  0.99035  0.36601  Biso   1.000  O
  O4       1.0000 0.84136  0.53170  0.51406  Biso   1.000  O
  O5       1.0000 0.49531  0.34251  0.97552  Biso   1.000  O
  O6       1.0000 0.03782  0.99359  0.17694  Biso   1.000  O
  O7       1.0000 0.14857  0.04470  0.02016  Biso   1.000  O
  O8       1.0000 0.49923  0.83936  0.56907  Biso   1.000  O
  O9       1.0000 0.96643  0.48838  0.36239  Biso   1.000  O
  O10      1.0000 0.65077  0.03466  0.52916  Biso   1.000  O
  O11      1.0000 0.99387  0.84074  0.98135  Biso   1.000  O
  O12      1.0000 0.46563  0.49073  0.18717  Biso   1.000  O
  O13      1.0000 0.65526  0.45740  0.01473  Biso   1.000  O
  O14      1.0000 0.99898  0.64512  0.47774  Biso   1.000  O
  O15      1.0000 0.44459  0.99888  0.68152  Biso   1.000  O
  O16      1.0000 0.15538  0.44836  0.52849  Biso   1.000  O
  O17      1.0000 0.48730  0.65430  0.07425  Biso   1.000  O
  O18      1.0000 0.94881  0.98450  0.86453  Biso   1.000  O
  O19      1.0000 0.84617  0.95530  0.03461  Biso   1.000  O
  O20      1.0000 0.50397  0.15548  0.47850  Biso   1.000  O
  O21      1.0000 0.03406  0.49515  0.67797  Biso   1.000  O
  O22      1.0000 0.34170  0.95354  0.52705  Biso   1.000  O
  O23      1.0000 0.98538  0.15419  0.06254  Biso   1.000  O
  O24      1.0000 0.53662  0.50020  0.86232  Biso   1.000  O
  O25      1.0000 0.95498  0.00206  0.17899  Biso   1.000  O
  O26      1.0000 0.15360  0.96055  0.02212  Biso   1.000  O
  O27      1.0000 0.00659  0.15334  0.98037  Biso   1.000  O
  O28      1.0000 0.45836  0.99508  0.36181  Biso   1.000  O
  O29      1.0000 0.65258  0.94791  0.52229  Biso   1.000  O
  O30      1.0000 0.49496  0.15552  0.56139  Biso   1.000  O
  O31      1.0000 0.54836  0.49543  0.17839  Biso   1.000  O
  O32      1.0000 0.34630  0.45865  0.02784  Biso   1.000  O
  O33      1.0000 0.50190  0.65510  0.99194  Biso   1.000  O
  O34      1.0000 0.04698  0.50509  0.36284  Biso   1.000  O
  O35      1.0000 0.84193  0.44707  0.50901  Biso   1.000  O
  O36      1.0000 0.98848  0.64457  0.56217  Biso   1.000  O
  O37      1.0000 0.03353  0.99509  0.86806  Biso   1.000  O
  O38      1.0000 0.83986  0.03725  0.02114  Biso   1.000  O
  O39      1.0000 0.00425  0.84578  0.06748  Biso   1.000  O
  O40      1.0000 0.52719  0.00795  0.68231  Biso   1.000  O
  O41      1.0000 0.34166  0.03799  0.51302  Biso   1.000  O
  O42      1.0000 0.49153  0.83592  0.48640  Biso   1.000  O
  O43      1.0000 0.45555  0.50690  0.86636  Biso   1.000  O
  O44      1.0000 0.65501  0.54098  0.00892  Biso   1.000  O
  O45      1.0000 0.50665  0.34244  0.05752  Biso   1.000  O
  O46      1.0000 0.95118  0.49627  0.68240  Biso   1.000  O
  O47      1.0000 0.15307  0.53292  0.52830  Biso   1.000  O
  O48      1.0000 0.99681  0.34018  0.48288  Biso   1.000  O
  O49      1.0000 0.99168  0.95719  0.18222  Biso   1.000  O
  O50      1.0000 0.15188  0.00238  0.97714  Biso   1.000  O
  O51      1.0000 0.95070  0.15415  0.01287  Biso   1.000  O
  O52      1.0000 0.49687  0.95193  0.36809  Biso   1.000  O
  O53      1.0000 0.65084  0.98899  0.56808  Biso   1.000  O
  O54      1.0000 0.45906  0.15306  0.51266  Biso   1.000  O
  O55      1.0000 0.50797  0.45108  0.18107  Biso   1.000  O
  O56      1.0000 0.34485  0.49604  0.98636  Biso   1.000  O
  O57      1.0000 0.53639  0.64936  0.04055  Biso   1.000  O
  O58      1.0000 0.01164  0.45604  0.36738  Biso   1.000  O
  O59      1.0000 0.84366  0.48349  0.55368  Biso   1.000  O
  O60      1.0000 0.03682  0.64703  0.52136  Biso   1.000  O
  O61      1.0000 0.98803  0.03089  0.86850  Biso   1.000  O
  O62      1.0000 0.83960  0.00543  0.07126  Biso   1.000  O
  O63      1.0000 0.04173  0.84295  0.01763  Biso   1.000  O
  O64      1.0000 0.48508  0.04614  0.67777  Biso   1.000  O
  O65      1.0000 0.34534  0.99031  0.48138  Biso   1.000  O
  O66      1.0000 0.54116  0.83415  0.52170  Biso   1.000  O
  O67      1.0000 0.49863  0.54615  0.86803  Biso   1.000  O
  O68      1.0000 0.65634  0.49992  0.05722  Biso   1.000  O
  O69      1.0000 0.46083  0.33986  0.02386  Biso   1.000  O
  O70      1.0000 0.99154  0.53673  0.68095  Biso   1.000  O
  O71      1.0000 0.15622  0.49330  0.48806  Biso   1.000  O
  O72      1.0000 0.95879  0.33931  0.52570  Biso   1.000  O
  O73      1.0000 0.98677  0.45042  0.68255  Biso   1.000  O
  O74      1.0000 0.65181  0.99139  0.48470  Biso   1.000  O
  O75      1.0000 0.45442  0.65632  0.02665  Biso   1.000  O
  O76      1.0000 0.49501  0.46349  0.86078  Biso   1.000  O
  O77      1.0000 0.14862  0.00629  0.06130  Biso   1.000  O
  O78      1.0000 0.95377  0.64758  0.51389  Biso   1.000  O
  O79      1.0000 0.48511  0.96145  0.68440  Biso   1.000  O
  O80      1.0000 0.84662  0.49077  0.47083  Biso   1.000  O
  O81      1.0000 0.03440  0.15513  0.03251  Biso   1.000  O
  O82      1.0000 0.99607  0.94729  0.86634  Biso   1.000  O
  O83      1.0000 0.34802  0.49824  0.07190  Biso   1.000  O
  O84      1.0000 0.54177  0.15231  0.52594  Biso   1.000  O
  O85      1.0000 0.99782  0.53953  0.35824  Biso   1.000  O
  O86      1.0000 0.33785  0.00211  0.56549  Biso   1.000  O
  O87      1.0000 0.54110  0.34201  0.00985  Biso   1.000  O
  O88      1.0000 0.50746  0.53472  0.18232  Biso   1.000  O
  O89      1.0000 0.84215  0.99213  0.98604  Biso   1.000  O
  O90      1.0000 0.04365  0.33881  0.52048  Biso   1.000  O
  O91      1.0000 0.49918  0.03707  0.36591  Biso   1.000  O
  O92      1.0000 0.15149  0.49086  0.57290  Biso   1.000  O
  O93      1.0000 0.95749  0.84151  0.02888  Biso   1.000  O
  O94      1.0000 0.99925  0.03917  0.17737  Biso   1.000  O
  O95      1.0000 0.65685  0.49646  0.97087  Biso   1.000  O
  O96      1.0000 0.45394  0.83781  0.52800  Biso   1.000  O
  O97      1.0000 0.46008  0.20254  0.51461  Biso   1.000  O
  O98      1.0000 0.50802  0.44992  0.22987  Biso   1.000  O
  O99      1.0000 0.20561  0.48846  0.48845  Biso   1.000  O
  O100     1.0000 0.95181  0.20241  0.01291  Biso   1.000  O
  O101     1.0000 0.01658  0.45358  0.31840  Biso   1.000  O
  O102     1.0000 0.70573  0.50336  0.05459  Biso   1.000  O
  O103     1.0000 0.03903  0.69555  0.52825  Biso   1.000  O
  O104     1.0000 0.98997  0.95664  0.23200  Biso   1.000  O
  O105     1.0000 0.29596  0.99216  0.47775  Biso   1.000  O
  O106     1.0000 0.53878  0.69729  0.04465  Biso   1.000  O
  O107     1.0000 0.49918  0.94782  0.32079  Biso   1.000  O
  O108     1.0000 0.79239  0.00361  0.07072  Biso   1.000  O
  O109     1.0000 0.53620  0.78596  0.52841  Biso   1.000  O
  O110     1.0000 0.49884  0.55035  0.81687  Biso   1.000  O
  O111     1.0000 0.79585  0.48344  0.55225  Biso   1.000  O
  O112     1.0000 0.04386  0.79558  0.02795  Biso   1.000  O
  O113     1.0000 0.99434  0.53317  0.73054  Biso   1.000  O
  O114     1.0000 0.29623  0.49620  0.98952  Biso   1.000  O
  O115     1.0000 0.95876  0.29000  0.52638  Biso   1.000  O
  O116     1.0000 0.98946  0.03357  0.82013  Biso   1.000  O
  O117     1.0000 0.69848  0.99539  0.57557  Biso   1.000  O
  O118     1.0000 0.45496  0.29224  0.01986  Biso   1.000  O
  O119     1.0000 0.48771  0.04523  0.72633  Biso   1.000  O
  O120     1.0000 0.19977  0.00531  0.97789  Biso   1.000  O
  O121     1.0000 0.03022  0.48851  0.72587  Biso   1.000  O
  O122     1.0000 0.69949  0.03515  0.53243  Biso   1.000  O
  O123     1.0000 0.48859  0.70322  0.07438  Biso   1.000  O
  O124     1.0000 0.53539  0.50587  0.81376  Biso   1.000  O
  O125     1.0000 0.19731  0.04755  0.01660  Biso   1.000  O
  O126     1.0000 0.00388  0.69480  0.47848  Biso   1.000  O
  O127     1.0000 0.44694  0.00354  0.73100  Biso   1.000  O
  O128     1.0000 0.79296  0.52918  0.51275  Biso   1.000  O
  O129     1.0000 0.98563  0.20311  0.06281  Biso   1.000  O
  O130     1.0000 0.94932  0.98890  0.81679  Biso   1.000  O
  O131     1.0000 0.29118  0.54041  0.03419  Biso   1.000  O
  O132     1.0000 0.50724  0.20270  0.47675  Biso   1.000  O
  O133     1.0000 0.96783  0.48675  0.31370  Biso   1.000  O
  O134     1.0000 0.29360  0.95392  0.52036  Biso   1.000  O
  O135     1.0000 0.49552  0.29359  0.97313  Biso   1.000  O
  O136     1.0000 0.46713  0.49019  0.23475  Biso   1.000  O
  O137     1.0000 0.79662  0.95511  0.03523  Biso   1.000  O
  O138     1.0000 0.99847  0.28780  0.56628  Biso   1.000  O
  O139     1.0000 0.54216  0.98943  0.31884  Biso   1.000  O
  O140     1.0000 0.20495  0.44804  0.53058  Biso   1.000  O
  O141     1.0000 0.99889  0.79223  0.98346  Biso   1.000  O
  O142     1.0000 0.03941  0.99561  0.22644  Biso   1.000  O
  O143     1.0000 0.70473  0.45679  0.01607  Biso   1.000  O
  O144     1.0000 0.50095  0.79041  0.57225  Biso   1.000  O
  O145     1.0000 0.55331  0.49341  0.22636  Biso   1.000  O
  O146     1.0000 0.20165  0.53127  0.53023  Biso   1.000  O
  O147     1.0000 0.50020  0.20384  0.55960  Biso   1.000  O
  O148     1.0000 0.04962  0.49691  0.31457  Biso   1.000  O
  O149     1.0000 0.70427  0.54267  0.01329  Biso   1.000  O
  O150     1.0000 0.00292  0.20165  0.97988  Biso   1.000  O
  O151     1.0000 0.95722  0.00536  0.22937  Biso   1.000  O
  O152     1.0000 0.29298  0.03858  0.51530  Biso   1.000  O
  O153     1.0000 0.98892  0.69278  0.56150  Biso   1.000  O
  O154     1.0000 0.45810  0.98856  0.31428  Biso   1.000  O
  O155     1.0000 0.79067  0.03582  0.02333  Biso   1.000  O
  O156     1.0000 0.50813  0.70229  0.99501  Biso   1.000  O
  O157     1.0000 0.45199  0.50893  0.81818  Biso   1.000  O
  O158     1.0000 0.79287  0.44463  0.51138  Biso   1.000  O
  O159     1.0000 0.48972  0.78730  0.48927  Biso   1.000  O
  O160     1.0000 0.94792  0.49426  0.73075  Biso   1.000  O
  O161     1.0000 0.29731  0.45781  0.03477  Biso   1.000  O
  O162     1.0000 0.00033  0.79675  0.06691  Biso   1.000  O
  O163     1.0000 0.03214  0.99406  0.81983  Biso   1.000  O
  O164     1.0000 0.69886  0.95276  0.53362  Biso   1.000  O
  O165     1.0000 0.99853  0.29176  0.48048  Biso   1.000  O
  O166     1.0000 0.52990  0.00486  0.73054  Biso   1.000  O
  O167     1.0000 0.20204  0.96319  0.01896  Biso   1.000  O
  O168     1.0000 0.49586  0.29452  0.06043  Biso   1.000  O
  O169     1.0000 0.00559  0.03904  0.22598  Biso   1.000  O
  O170     1.0000 0.19707  0.00280  0.06077  Biso   1.000  O
  O171     1.0000 0.03204  0.20345  0.02971  Biso   1.000  O
  O172     1.0000 0.50108  0.03434  0.31881  Biso   1.000  O
  O173     1.0000 0.70123  0.99214  0.48817  Biso   1.000  O
  O174     1.0000 0.54340  0.20114  0.52321  Biso   1.000  O
  O175     1.0000 0.50925  0.53582  0.23064  Biso   1.000  O
  O176     1.0000 0.29862  0.49770  0.07437  Biso   1.000  O
  O177     1.0000 0.45653  0.70521  0.02534  Biso   1.000  O
  O178     1.0000 0.00291  0.53707  0.30984  Biso   1.000  O
  O179     1.0000 0.79704  0.48963  0.47008  Biso   1.000  O
  O180     1.0000 0.95443  0.69771  0.51497  Biso   1.000  O
  O181     1.0000 0.99668  0.94984  0.81682  Biso   1.000  O
  O182     1.0000 0.79490  0.99256  0.98735  Biso   1.000  O
  O183     1.0000 0.95906  0.79284  0.02725  Biso   1.000  O
  O184     1.0000 0.49203  0.96193  0.73294  Biso   1.000  O
  O185     1.0000 0.28891  0.00084  0.55842  Biso   1.000  O
  O186     1.0000 0.45268  0.78908  0.53104  Biso   1.000  O
  O187     1.0000 0.48623  0.46646  0.81310  Biso   1.000  O
  O188     1.0000 0.70555  0.50139  0.97092  Biso   1.000  O
  O189     1.0000 0.53633  0.29434  0.01600  Biso   1.000  O
  O190     1.0000 0.98477  0.44893  0.73130  Biso   1.000  O
  O191     1.0000 0.20119  0.49249  0.57278  Biso   1.000  O
  O192     1.0000 0.03909  0.28898  0.51937  Biso   1.000  O
