data_image0
_cell_length_a       46.6418
_cell_length_b       46.7801
_cell_length_c       46.6866
_cell_angle_alpha    90
_cell_angle_beta     90
_cell_angle_gamma    90

_symmetry_space_group_name_H-M    "P 1"
_symmetry_int_tables_number       1

loop_
  _symmetry_equiv_pos_as_xyz
  'x, y, z'

loop_
  _atom_site_label
  _atom_site_occupancy
  _atom_site_fract_x
  _atom_site_fract_y
  _atom_site_fract_z
  _atom_site_thermal_displace_type
  _atom_site_B_iso_or_equiv
  _atom_site_type_symbol
  C1       1.0000 0.56290  0.99523  0.33907  Biso   1.000  C
  C2       1.0000 0.32122  0.54808  0.02668  Biso   1.000  C
  C3       1.0000 0.00227  0.31591  0.58764  Biso   1.000  C
  C4       1.0000 0.06588  0.00853  0.21298  Biso   1.000  C
  C5       1.0000 0.81551  0.54548  0.53617  Biso   1.000  C
  C6       1.0000 0.51492  0.30580  0.98099  Biso   1.000  C
  C7       1.0000 0.94551  0.50344  0.35190  Biso   1.000  C
  C8       1.0000 0.18746  0.05357  0.03134  Biso   1.000  C
  C9       1.0000 0.50365  0.81211  0.56878  Biso   1.000  C
  C10      1.0000 0.44618  0.49218  0.20550  Biso   1.000  C
  C11      1.0000 0.68805  0.04819  0.52075  Biso   1.000  C
  C12      1.0000 0.01550  0.82366  0.97650  Biso   1.000  C
  C13      1.0000 0.44909  0.98365  0.70657  Biso   1.000  C
  C14      1.0000 0.68812  0.43835  0.02923  Biso   1.000  C
  C15      1.0000 0.99802  0.67263  0.47350  Biso   1.000  C
  C16      1.0000 0.94772  0.00092  0.84158  Biso   1.000  C
  C17      1.0000 0.18649  0.43612  0.52430  Biso   1.000  C
  C18      1.0000 0.50830  0.67067  0.07037  Biso   1.000  C
  C19      1.0000 0.06294  0.49514  0.70666  Biso   1.000  C
  C20      1.0000 0.82537  0.94264  0.02423  Biso   1.000  C
  C21      1.0000 0.50257  0.17254  0.48179  Biso   1.000  C
  C22      1.0000 0.55980  0.49633  0.85173  Biso   1.000  C
  C23      1.0000 0.32254  0.93786  0.53028  Biso   1.000  C
  C24      1.0000 0.00364  0.18066  0.08774  Biso   1.000  C
  C25      1.0000 0.32093  0.04500  0.53659  Biso   1.000  C
  C26      1.0000 0.50267  0.31558  0.08922  Biso   1.000  C
  C27      1.0000 0.05390  0.49010  0.34561  Biso   1.000  C
  C28      1.0000 0.83160  0.04975  0.01743  Biso   1.000  C
  C29      1.0000 0.99864  0.31450  0.47848  Biso   1.000  C
  C30      1.0000 0.55418  0.49909  0.21305  Biso   1.000  C
  C31      1.0000 0.18436  0.54537  0.51657  Biso   1.000  C
  C32      1.0000 0.00810  0.82357  0.08614  Biso   1.000  C
  C33      1.0000 0.45218  0.00284  0.34631  Biso   1.000  C
  C34      1.0000 0.68279  0.54933  0.03536  Biso   1.000  C
  C35      1.0000 0.50724  0.81247  0.46124  Biso   1.000  C
  C36      1.0000 0.95943  0.99284  0.20348  Biso   1.000  C
  C37      1.0000 0.68880  0.94004  0.51098  Biso   1.000  C
  C38      1.0000 0.50872  0.67098  0.95872  Biso   1.000  C
  C39      1.0000 0.94991  0.50056  0.70959  Biso   1.000  C
  C40      1.0000 0.19486  0.94432  0.03087  Biso   1.000  C
  C41      1.0000 0.00092  0.67741  0.58218  Biso   1.000  C
  C42      1.0000 0.45443  0.47738  0.84705  Biso   1.000  C
  C43      1.0000 0.81664  0.43870  0.53190  Biso   1.000  C
  C44      1.0000 0.01085  0.18004  0.97821  Biso   1.000  C
  C45      1.0000 0.55707  0.98023  0.70053  Biso   1.000  C
  C46      1.0000 0.32364  0.43958  0.00949  Biso   1.000  C
  C47      1.0000 0.50229  0.16673  0.59202  Biso   1.000  C
  C48      1.0000 0.05620  0.99370  0.85066  Biso   1.000  C
  C49      1.0000 0.00349  0.05089  0.84952  Biso   1.000  C
  C50      1.0000 0.82670  0.99818  0.07487  Biso   1.000  C
  C51      1.0000 0.06571  0.82411  0.03069  Biso   1.000  C
  C52      1.0000 0.50478  0.03707  0.70880  Biso   1.000  C
  C53      1.0000 0.32432  0.99245  0.47766  Biso   1.000  C
  C54      1.0000 0.55983  0.81385  0.52047  Biso   1.000  C
  C55      1.0000 0.49672  0.53660  0.84348  Biso   1.000  C
  C56      1.0000 0.68353  0.49209  0.08526  Biso   1.000  C
  C57      1.0000 0.45617  0.31246  0.02587  Biso   1.000  C
  C58      1.0000 0.01047  0.55182  0.71174  Biso   1.000  C
  C59      1.0000 0.18744  0.49111  0.46653  Biso   1.000  C
  C60      1.0000 0.94553  0.31753  0.53765  Biso   1.000  C
  C61      1.0000 0.02218  0.94711  0.21284  Biso   1.000  C
  C62      1.0000 0.18684  0.00043  0.97418  Biso   1.000  C
  C63      1.0000 0.95216  0.18409  0.03359  Biso   1.000  C
  C64      1.0000 0.50867  0.94458  0.34188  Biso   1.000  C
  C65      1.0000 0.68456  0.98936  0.57303  Biso   1.000  C
  C66      1.0000 0.44836  0.16771  0.53600  Biso   1.000  C
  C67      1.0000 0.49946  0.44427  0.20909  Biso   1.000  C
  C68      1.0000 0.32248  0.50012  0.96560  Biso   1.000  C
  C69      1.0000 0.56172  0.67504  0.01859  Biso   1.000  C
  C70      1.0000 0.99298  0.44284  0.35103  Biso   1.000  C
  C71      1.0000 0.81991  0.49052  0.58866  Biso   1.000  C
  C72      1.0000 0.05539  0.67510  0.52309  Biso   1.000  C
  C73      1.0000 0.00594  0.54992  0.34805  Biso   1.000  C
  C74      1.0000 0.31857  0.98444  0.58693  Biso   1.000  C
  C75      1.0000 0.56208  0.31460  0.04469  Biso   1.000  C
  C76      1.0000 0.50008  0.55301  0.20820  Biso   1.000  C
  C77      1.0000 0.82530  0.99236  0.96726  Biso   1.000  C
  C78      1.0000 0.05586  0.31267  0.53205  Biso   1.000  C
  C79      1.0000 0.50986  0.05657  0.34557  Biso   1.000  C
  C80      1.0000 0.18762  0.49186  0.57758  Biso   1.000  C
  C81      1.0000 0.95707  0.82045  0.02956  Biso   1.000  C
  C82      1.0000 0.00132  0.05306  0.20797  Biso   1.000  C
  C83      1.0000 0.69112  0.49818  0.97952  Biso   1.000  C
  C84      1.0000 0.44854  0.81433  0.51166  Biso   1.000  C
  C85      1.0000 0.00049  0.44408  0.71584  Biso   1.000  C
  C86      1.0000 0.68994  0.99594  0.46412  Biso   1.000  C
  C87      1.0000 0.45218  0.67456  0.01832  Biso   1.000  C
  C88      1.0000 0.51797  0.42968  0.85323  Biso   1.000  C
  C89      1.0000 0.19087  0.99451  0.08226  Biso   1.000  C
  C90      1.0000 0.94490  0.67054  0.53382  Biso   1.000  C
  C91      1.0000 0.49990  0.92868  0.70335  Biso   1.000  C
  C92      1.0000 0.82074  0.49451  0.48076  Biso   1.000  C
  C93      1.0000 0.06101  0.17998  0.03749  Biso   1.000  C
  C94      1.0000 0.00409  0.94129  0.84402  Biso   1.000  C
  C95      1.0000 0.32523  0.48509  0.07273  Biso   1.000  C
  C96      1.0000 0.55740  0.16978  0.53446  Biso   1.000  C
  C97      1.0000 0.68638  0.07988  0.52040  Biso   1.000  C
  C98      1.0000 0.50972  0.67339  0.10296  Biso   1.000  C
  C99      1.0000 0.09384  0.49773  0.70495  Biso   1.000  C
  C100     1.0000 0.18573  0.08453  0.03461  Biso   1.000  C
  C101     1.0000 0.99943  0.67488  0.44083  Biso   1.000  C
  C102     1.0000 0.59175  0.50322  0.85367  Biso   1.000  C
  C103     1.0000 0.81474  0.57730  0.53299  Biso   1.000  C
  C104     1.0000 0.99956  0.18224  0.11942  Biso   1.000  C
  C105     1.0000 0.41691  0.98045  0.71083  Biso   1.000  C
  C106     1.0000 0.32288  0.57968  0.02666  Biso   1.000  C
  C107     1.0000 0.50235  0.17449  0.44905  Biso   1.000  C
  C108     1.0000 0.91517  0.00315  0.84141  Biso   1.000  C
  C109     1.0000 0.32226  0.90587  0.53010  Biso   1.000  C
  C110     1.0000 0.51919  0.30328  0.94958  Biso   1.000  C
  C111     1.0000 0.91404  0.49844  0.35391  Biso   1.000  C
  C112     1.0000 0.82390  0.91085  0.02872  Biso   1.000  C
  C113     1.0000 0.00336  0.31685  0.62022  Biso   1.000  C
  C114     1.0000 0.41429  0.49206  0.20495  Biso   1.000  C
  C115     1.0000 0.18605  0.40450  0.52592  Biso   1.000  C
  C116     1.0000 0.01578  0.82122  0.94364  Biso   1.000  C
  C117     1.0000 0.59560  0.99062  0.33733  Biso   1.000  C
  C118     1.0000 0.68927  0.40692  0.02999  Biso   1.000  C
  C119     1.0000 0.50681  0.81136  0.60034  Biso   1.000  C
  C120     1.0000 0.09720  0.00211  0.21351  Biso   1.000  C
  C121     1.0000 0.82921  0.99934  0.10625  Biso   1.000  C
  C122     1.0000 0.09749  0.82259  0.03007  Biso   1.000  C
  C123     1.0000 0.00407  0.08368  0.85038  Biso   1.000  C
  C124     1.0000 0.32605  0.99560  0.44590  Biso   1.000  C
  C125     1.0000 0.59334  0.81385  0.52321  Biso   1.000  C
  C126     1.0000 0.50035  0.06844  0.71205  Biso   1.000  C
  C127     1.0000 0.68456  0.49397  0.11784  Biso   1.000  C
  C128     1.0000 0.42444  0.31305  0.02053  Biso   1.000  C
  C129     1.0000 0.48940  0.56861  0.84094  Biso   1.000  C
  C130     1.0000 0.18539  0.49266  0.43439  Biso   1.000  C
  C131     1.0000 0.91316  0.31519  0.53492  Biso   1.000  C
  C132     1.0000 0.01102  0.58403  0.71121  Biso   1.000  C
  C133     1.0000 0.18628  0.00097  0.94232  Biso   1.000  C
  C134     1.0000 0.92016  0.18461  0.03222  Biso   1.000  C
  C135     1.0000 0.02440  0.91510  0.21348  Biso   1.000  C
  C136     1.0000 0.68513  0.99458  0.60412  Biso   1.000  C
  C137     1.0000 0.41710  0.16806  0.53329  Biso   1.000  C
  C138     1.0000 0.50893  0.91239  0.34082  Biso   1.000  C
  C139     1.0000 0.32373  0.49678  0.93372  Biso   1.000  C
  C140     1.0000 0.59413  0.67817  0.02390  Biso   1.000  C
  C141     1.0000 0.49668  0.41292  0.21112  Biso   1.000  C
  C142     1.0000 0.81774  0.49203  0.62112  Biso   1.000  C
  C143     1.0000 0.08660  0.67175  0.51840  Biso   1.000  C
  C144     1.0000 0.98748  0.41214  0.35299  Biso   1.000  C
  C145     1.0000 0.32581  0.48387  0.10529  Biso   1.000  C
  C146     1.0000 0.08816  0.31136  0.53331  Biso   1.000  C
  C147     1.0000 0.51206  0.08898  0.34905  Biso   1.000  C
  C148     1.0000 0.82018  0.49572  0.44867  Biso   1.000  C
  C149     1.0000 0.59240  0.31750  0.05120  Biso   1.000  C
  C150     1.0000 0.99434  0.08477  0.20998  Biso   1.000  C
  C151     1.0000 0.19034  0.99198  0.11453  Biso   1.000  C
  C152     1.0000 0.41589  0.81366  0.51050  Biso   1.000  C
  C153     1.0000 0.00670  0.58146  0.34388  Biso   1.000  C
  C154     1.0000 0.68986  0.99363  0.43078  Biso   1.000  C
  C155     1.0000 0.92440  0.82093  0.03402  Biso   1.000  C
  C156     1.0000 0.50405  0.58462  0.20725  Biso   1.000  C
  C157     1.0000 0.69149  0.49573  0.94695  Biso   1.000  C
  C158     1.0000 0.91151  0.67171  0.53119  Biso   1.000  C
  C159     1.0000 0.50244  0.89596  0.70143  Biso   1.000  C
  C160     1.0000 0.18668  0.49049  0.60898  Biso   1.000  C
  C161     1.0000 0.42114  0.67389  0.02353  Biso   1.000  C
  C162     1.0000 0.00381  0.90781  0.84441  Biso   1.000  C
  C163     1.0000 0.82269  0.98661  0.93551  Biso   1.000  C
  C164     1.0000 0.58929  0.17242  0.53261  Biso   1.000  C
  C165     1.0000 0.99435  0.41194  0.71271  Biso   1.000  C
  C166     1.0000 0.31985  0.97961  0.61802  Biso   1.000  C
  C167     1.0000 0.09289  0.17854  0.04236  Biso   1.000  C
  C168     1.0000 0.52212  0.39677  0.85436  Biso   1.000  C
  C169     1.0000 0.00898  0.82365  0.11901  Biso   1.000  C
  C170     1.0000 0.08836  0.99268  0.85154  Biso   1.000  C
  C171     1.0000 0.83225  0.08207  0.02276  Biso   1.000  C
  C172     1.0000 0.50699  0.81267  0.43008  Biso   1.000  C
  C173     1.0000 0.58963  0.97700  0.69898  Biso   1.000  C
  C174     1.0000 0.31991  0.07705  0.53292  Biso   1.000  C
  C175     1.0000 0.50439  0.31684  0.12033  Biso   1.000  C
  C176     1.0000 0.42205  0.48306  0.84374  Biso   1.000  C
  C177     1.0000 0.68442  0.58209  0.03292  Biso   1.000  C
  C178     1.0000 0.99333  0.31456  0.44733  Biso   1.000  C
  C179     1.0000 0.91746  0.50154  0.71114  Biso   1.000  C
  C180     1.0000 0.18388  0.57729  0.51906  Biso   1.000  C
  C181     1.0000 0.01297  0.17987  0.94589  Biso   1.000  C
  C182     1.0000 0.92873  0.98428  0.20183  Biso   1.000  C
  C183     1.0000 0.19605  0.91244  0.03572  Biso   1.000  C
  C184     1.0000 0.49754  0.16578  0.62297  Biso   1.000  C
  C185     1.0000 0.42036  0.00717  0.34915  Biso   1.000  C
  C186     1.0000 0.68804  0.90936  0.50210  Biso   1.000  C
  C187     1.0000 0.51417  0.66738  0.92708  Biso   1.000  C
  C188     1.0000 0.58658  0.49847  0.21371  Biso   1.000  C
  C189     1.0000 0.32803  0.40709  0.01084  Biso   1.000  C
  C190     1.0000 0.99960  0.67851  0.61328  Biso   1.000  C
  C191     1.0000 0.08719  0.49067  0.34368  Biso   1.000  C
  C192     1.0000 0.81606  0.40743  0.52875  Biso   1.000  C
  C193     1.0000 0.84903  0.99165  0.91983  Biso   1.000  C
  C194     1.0000 0.90741  0.84662  0.03069  Biso   1.000  C
  C195     1.0000 0.00819  0.89281  0.87109  Biso   1.000  C
  C196     1.0000 0.34711  0.98134  0.63355  Biso   1.000  C
  C197     1.0000 0.40039  0.84070  0.51296  Biso   1.000  C
  C198     1.0000 0.50236  0.88218  0.67259  Biso   1.000  C
  C199     1.0000 0.66341  0.49742  0.93345  Biso   1.000  C
  C200     1.0000 0.60873  0.34395  0.04699  Biso   1.000  C
  C201     1.0000 0.52417  0.38023  0.88162  Biso   1.000  C
  C202     1.0000 0.16064  0.49494  0.62552  Biso   1.000  C
  C203     1.0000 0.10642  0.33783  0.53318  Biso   1.000  C
  C204     1.0000 0.99755  0.39698  0.68594  Biso   1.000  C
  C205     1.0000 0.16290  0.99275  0.13151  Biso   1.000  C
  C206     1.0000 0.10897  0.15099  0.03853  Biso   1.000  C
  C207     1.0000 0.99476  0.10163  0.18308  Biso   1.000  C
  C208     1.0000 0.66212  0.99116  0.41281  Biso   1.000  C
  C209     1.0000 0.60592  0.14515  0.53064  Biso   1.000  C
  C210     1.0000 0.51295  0.10114  0.37770  Biso   1.000  C
  C211     1.0000 0.35207  0.48138  0.12490  Biso   1.000  C
  C212     1.0000 0.40571  0.64638  0.02321  Biso   1.000  C
  C213     1.0000 0.50359  0.59805  0.17872  Biso   1.000  C
  C214     1.0000 0.84718  0.50060  0.43276  Biso   1.000  C
  C215     1.0000 0.89562  0.64511  0.53015  Biso   1.000  C
  C216     1.0000 0.00252  0.59810  0.37067  Biso   1.000  C
  C217     1.0000 0.10487  0.99617  0.87746  Biso   1.000  C
  C218     1.0000 0.85703  0.10083  0.02024  Biso   1.000  C
  C219     1.0000 0.01669  0.84945  0.13623  Biso   1.000  C
  C220     1.0000 0.60461  0.97563  0.67138  Biso   1.000  C
  C221     1.0000 0.34746  0.09240  0.53287  Biso   1.000  C
  C222     1.0000 0.50591  0.84025  0.41682  Biso   1.000  C
  C223     1.0000 0.40535  0.48610  0.87001  Biso   1.000  C
  C224     1.0000 0.65986  0.60064  0.03161  Biso   1.000  C
  C225     1.0000 0.50304  0.34413  0.13706  Biso   1.000  C
  C226     1.0000 0.90136  0.49772  0.68373  Biso   1.000  C
  C227     1.0000 0.15743  0.59293  0.51969  Biso   1.000  C
  C228     1.0000 0.99411  0.34231  0.43246  Biso   1.000  C
  C229     1.0000 0.91239  0.98668  0.17340  Biso   1.000  C
  C230     1.0000 0.16789  0.89757  0.03214  Biso   1.000  C
  C231     1.0000 0.01898  0.15275  0.92947  Biso   1.000  C
  C232     1.0000 0.40472  0.00547  0.37751  Biso   1.000  C
  C233     1.0000 0.66180  0.89341  0.50909  Biso   1.000  C
  C234     1.0000 0.49406  0.13895  0.63872  Biso   1.000  C
  C235     1.0000 0.60344  0.49885  0.18656  Biso   1.000  C
  C236     1.0000 0.35600  0.39041  0.01093  Biso   1.000  C
  C237     1.0000 0.50674  0.63990  0.91405  Biso   1.000  C
  C238     1.0000 0.10391  0.49137  0.36962  Biso   1.000  C
  C239     1.0000 0.84427  0.39127  0.52772  Biso   1.000  C
  C240     1.0000 0.00055  0.65182  0.63086  Biso   1.000  C
  C241     1.0000 0.60850  0.49915  0.88065  Biso   1.000  C
  C242     1.0000 0.84320  0.59294  0.53278  Biso   1.000  C
  C243     1.0000 0.50682  0.83548  0.61925  Biso   1.000  C
  C244     1.0000 0.11071  0.49747  0.67768  Biso   1.000  C
  C245     1.0000 0.35230  0.59462  0.02617  Biso   1.000  C
  C246     1.0000 0.01576  0.84743  0.92688  Biso   1.000  C
  C247     1.0000 0.89860  0.00129  0.86819  Biso   1.000  C
  C248     1.0000 0.65876  0.09502  0.52262  Biso   1.000  C
  C249     1.0000 0.99774  0.34406  0.63665  Biso   1.000  C
  C250     1.0000 0.40069  0.97890  0.68435  Biso   1.000  C
  C251     1.0000 0.15819  0.10015  0.03462  Biso   1.000  C
  C252     1.0000 0.52131  0.32980  0.93185  Biso   1.000  C
  C253     1.0000 0.39887  0.49002  0.17784  Biso   1.000  C
  C254     1.0000 0.15853  0.39051  0.52863  Biso   1.000  C
  C255     1.0000 0.50112  0.14741  0.43216  Biso   1.000  C
  C256     1.0000 0.89947  0.49351  0.38177  Biso   1.000  C
  C257     1.0000 0.66221  0.39238  0.03607  Biso   1.000  C
  C258     1.0000 0.00012  0.15470  0.13446  Biso   1.000  C
  C259     1.0000 0.11440  0.99953  0.18695  Biso   1.000  C
  C260     1.0000 0.35012  0.88984  0.52732  Biso   1.000  C
  C261     1.0000 0.99752  0.64855  0.42463  Biso   1.000  C
  C262     1.0000 0.61161  0.99328  0.36274  Biso   1.000  C
  C263     1.0000 0.85205  0.89793  0.03012  Biso   1.000  C
  C264     1.0000 0.50907  0.64784  0.12195  Biso   1.000  C
  C265     1.0000 0.01163  0.09946  0.87710  Biso   1.000  C
  C266     1.0000 0.85689  0.99924  0.12190  Biso   1.000  C
  C267     1.0000 0.11352  0.84757  0.03319  Biso   1.000  C
  C268     1.0000 0.49852  0.08623  0.68640  Biso   1.000  C
  C269     1.0000 0.35305  0.99915  0.43028  Biso   1.000  C
  C270     1.0000 0.60944  0.84073  0.51971  Biso   1.000  C
  C271     1.0000 0.49557  0.58682  0.86567  Biso   1.000  C
  C272     1.0000 0.65809  0.49843  0.13348  Biso   1.000  C
  C273     1.0000 0.40872  0.33913  0.01614  Biso   1.000  C
  C274     1.0000 0.00781  0.60014  0.68352  Biso   1.000  C
  C275     1.0000 0.15767  0.49429  0.41978  Biso   1.000  C
  C276     1.0000 0.89580  0.34154  0.53058  Biso   1.000  C
  C277     1.0000 0.02283  0.89956  0.18678  Biso   1.000  C
  C278     1.0000 0.15787  0.00328  0.92648  Biso   1.000  C
  C279     1.0000 0.90461  0.15657  0.02660  Biso   1.000  C
  C280     1.0000 0.51158  0.89431  0.36604  Biso   1.000  C
  C281     1.0000 0.65814  0.98789  0.62130  Biso   1.000  C
  C282     1.0000 0.40093  0.14191  0.53259  Biso   1.000  C
  C283     1.0000 0.49834  0.39530  0.18514  Biso   1.000  C
  C284     1.0000 0.35114  0.49141  0.91916  Biso   1.000  C
  C285     1.0000 0.61143  0.65145  0.02871  Biso   1.000  C
  C286     1.0000 0.98793  0.39650  0.38149  Biso   1.000  C
  C287     1.0000 0.84696  0.49116  0.63588  Biso   1.000  C
  C288     1.0000 0.10296  0.64559  0.52160  Biso   1.000  C
  C289     1.0000 0.34897  0.85879  0.52124  Biso   1.000  C
  C290     1.0000 0.51837  0.32757  0.90198  Biso   1.000  C
  C291     1.0000 0.86681  0.49388  0.38031  Biso   1.000  C
  C292     1.0000 0.85259  0.86627  0.03203  Biso   1.000  C
  C293     1.0000 0.99759  0.34284  0.66744  Biso   1.000  C
  C294     1.0000 0.36745  0.48909  0.17762  Biso   1.000  C
  C295     1.0000 0.15937  0.35741  0.52936  Biso   1.000  C
  C296     1.0000 0.01420  0.84244  0.89584  Biso   1.000  C
  C297     1.0000 0.64260  0.99134  0.36101  Biso   1.000  C
  C298     1.0000 0.66271  0.36130  0.04185  Biso   1.000  C
  C299     1.0000 0.50413  0.83082  0.64887  Biso   1.000  C
  C300     1.0000 0.14551  0.99469  0.18605  Biso   1.000  C
  C301     1.0000 0.65887  0.12675  0.52145  Biso   1.000  C
  C302     1.0000 0.50966  0.65037  0.15454  Biso   1.000  C
  C303     1.0000 0.14178  0.49498  0.67892  Biso   1.000  C
  C304     1.0000 0.16038  0.13102  0.03815  Biso   1.000  C
  C305     1.0000 0.00204  0.65026  0.39310  Biso   1.000  C
  C306     1.0000 0.63969  0.50063  0.88095  Biso   1.000  C
  C307     1.0000 0.84281  0.62378  0.53146  Biso   1.000  C
  C308     1.0000 0.99488  0.15688  0.16517  Biso   1.000  C
  C309     1.0000 0.36975  0.98050  0.68613  Biso   1.000  C
  C310     1.0000 0.35258  0.62560  0.02453  Biso   1.000  C
  C311     1.0000 0.50637  0.15134  0.40151  Biso   1.000  C
  C312     1.0000 0.86808  0.99634  0.86711  Biso   1.000  C
  C313     1.0000 0.15648  0.49491  0.38921  Biso   1.000  C
  C314     1.0000 0.36903  0.14391  0.52948  Biso   1.000  C
  C315     1.0000 0.49890  0.36322  0.18915  Biso   1.000  C
  C316     1.0000 0.65697  0.49731  0.16510  Biso   1.000  C
  C317     1.0000 0.87392  0.15471  0.03259  Biso   1.000  C
  C318     1.0000 0.98605  0.36402  0.38085  Biso   1.000  C
  C319     1.0000 0.35275  0.00203  0.39934  Biso   1.000  C
  C320     1.0000 0.13442  0.64543  0.52083  Biso   1.000  C
  C321     1.0000 0.02168  0.86891  0.18959  Biso   1.000  C
  C322     1.0000 0.85825  0.99186  0.15230  Biso   1.000  C
  C323     1.0000 0.64307  0.65379  0.02821  Biso   1.000  C
  C324     1.0000 0.50918  0.86316  0.36471  Biso   1.000  C
  C325     1.0000 0.84639  0.49746  0.66681  Biso   1.000  C
  C326     1.0000 0.64049  0.84062  0.51515  Biso   1.000  C
  C327     1.0000 0.49746  0.61750  0.86279  Biso   1.000  C
  C328     1.0000 0.35260  0.49178  0.88850  Biso   1.000  C
  C329     1.0000 0.14596  0.84423  0.03470  Biso   1.000  C
  C330     1.0000 0.00630  0.63210  0.68307  Biso   1.000  C
  C331     1.0000 0.65856  0.98403  0.65199  Biso   1.000  C
  C332     1.0000 0.86503  0.33840  0.53068  Biso   1.000  C
  C333     1.0000 0.01176  0.13053  0.87643  Biso   1.000  C
  C334     1.0000 0.15692  0.00176  0.89608  Biso   1.000  C
  C335     1.0000 0.37687  0.33921  0.01809  Biso   1.000  C
  C336     1.0000 0.49536  0.11673  0.69141  Biso   1.000  C
  C337     1.0000 0.66200  0.49897  0.90161  Biso   1.000  C
  C338     1.0000 0.86395  0.64542  0.52927  Biso   1.000  C
  C339     1.0000 0.50168  0.85013  0.67203  Biso   1.000  C
  C340     1.0000 0.16169  0.49191  0.65690  Biso   1.000  C
  C341     1.0000 0.37407  0.64806  0.02245  Biso   1.000  C
  C342     1.0000 0.01090  0.86201  0.87229  Biso   1.000  C
  C343     1.0000 0.84675  0.99221  0.88868  Biso   1.000  C
  C344     1.0000 0.63637  0.14713  0.52375  Biso   1.000  C
  C345     1.0000 0.99769  0.36542  0.68780  Biso   1.000  C
  C346     1.0000 0.34665  0.98178  0.66579  Biso   1.000  C
  C347     1.0000 0.13936  0.15197  0.03974  Biso   1.000  C
  C348     1.0000 0.52095  0.34927  0.87978  Biso   1.000  C
  C349     1.0000 0.34722  0.48526  0.15536  Biso   1.000  C
  C350     1.0000 0.13772  0.33721  0.53018  Biso   1.000  C
  C351     1.0000 0.51125  0.13243  0.37917  Biso   1.000  C
  C352     1.0000 0.84517  0.49674  0.40108  Biso   1.000  C
  C353     1.0000 0.64090  0.34112  0.04635  Biso   1.000  C
  C354     1.0000 0.99353  0.13352  0.18445  Biso   1.000  C
  C355     1.0000 0.16624  0.99351  0.16320  Biso   1.000  C
  C356     1.0000 0.36959  0.83856  0.51613  Biso   1.000  C
  C357     1.0000 0.00350  0.63004  0.37130  Biso   1.000  C
  C358     1.0000 0.66438  0.99165  0.38144  Biso   1.000  C
  C359     1.0000 0.87529  0.84551  0.03362  Biso   1.000  C
  C360     1.0000 0.50782  0.63023  0.17797  Biso   1.000  C
  C361     1.0000 0.01339  0.15263  0.89837  Biso   1.000  C
  C362     1.0000 0.88002  0.98670  0.17334  Biso   1.000  C
  C363     1.0000 0.16865  0.86597  0.03386  Biso   1.000  C
  C364     1.0000 0.49277  0.13863  0.67010  Biso   1.000  C
  C365     1.0000 0.37361  0.00418  0.37793  Biso   1.000  C
  C366     1.0000 0.66261  0.86188  0.50904  Biso   1.000  C
  C367     1.0000 0.50154  0.63937  0.88300  Biso   1.000  C
  C368     1.0000 0.63533  0.49746  0.18747  Biso   1.000  C
  C369     1.0000 0.35493  0.36001  0.01568  Biso   1.000  C
  C370     1.0000 0.00367  0.65284  0.66124  Biso   1.000  C
  C371     1.0000 0.13465  0.49548  0.36739  Biso   1.000  C
  C372     1.0000 0.84239  0.35937  0.52892  Biso   1.000  C
  C373     1.0000 0.01801  0.84768  0.16778  Biso   1.000  C
  C374     1.0000 0.13567  0.00053  0.87496  Biso   1.000  C
  C375     1.0000 0.85397  0.13095  0.03065  Biso   1.000  C
  C376     1.0000 0.50662  0.84080  0.38476  Biso   1.000  C
  C377     1.0000 0.63641  0.97888  0.67220  Biso   1.000  C
  C378     1.0000 0.34757  0.12333  0.52938  Biso   1.000  C
  C379     1.0000 0.49971  0.34198  0.16745  Biso   1.000  C
  C380     1.0000 0.37382  0.49074  0.86800  Biso   1.000  C
  C381     1.0000 0.66421  0.63180  0.02950  Biso   1.000  C
  C382     1.0000 0.98716  0.34222  0.40073  Biso   1.000  C
  C383     1.0000 0.86976  0.49941  0.68604  Biso   1.000  C
  C384     1.0000 0.15688  0.62418  0.52095  Biso   1.000  C
  C385     1.0000 0.18651  0.14628  0.04127  Biso   1.000  C
  C386     1.0000 0.99025  0.18232  0.18155  Biso   1.000  C
  C387     1.0000 0.16322  0.99401  0.21162  Biso   1.000  C
  C388     1.0000 0.68516  0.14157  0.52125  Biso   1.000  C
  C389     1.0000 0.50386  0.17941  0.38846  Biso   1.000  C
  C390     1.0000 0.65733  0.98991  0.33389  Biso   1.000  C
  C391     1.0000 0.32632  0.64202  0.02627  Biso   1.000  C
  C392     1.0000 0.51421  0.67847  0.16818  Biso   1.000  C
  C393     1.0000 0.35102  0.48898  0.20411  Biso   1.000  C
  C394     1.0000 0.81590  0.64074  0.52707  Biso   1.000  C
  C395     1.0000 0.00622  0.67892  0.37985  Biso   1.000  C
  C396     1.0000 0.85096  0.49445  0.35386  Biso   1.000  C
  C397     1.0000 0.82604  0.84935  0.03154  Biso   1.000  C
  C398     1.0000 0.01413  0.81460  0.88121  Biso   1.000  C
  C399     1.0000 0.85317  0.99362  0.83980  Biso   1.000  C
  C400     1.0000 0.32158  0.84447  0.51999  Biso   1.000  C
  C401     1.0000 0.50466  0.80223  0.66271  Biso   1.000  C
  C402     1.0000 0.35463  0.98109  0.71350  Biso   1.000  C
  C403     1.0000 0.68941  0.34374  0.04265  Biso   1.000  C
  C404     1.0000 0.51519  0.30164  0.88673  Biso   1.000  C
  C405     1.0000 0.65580  0.50505  0.85402  Biso   1.000  C
  C406     1.0000 0.18514  0.34156  0.52527  Biso   1.000  C
  C407     1.0000 0.99905  0.31635  0.68321  Biso   1.000  C
  C408     1.0000 0.15640  0.49488  0.70635  Biso   1.000  C
  C409     1.0000 0.15165  0.99967  0.84821  Biso   1.000  C
  C410     1.0000 0.82717  0.14380  0.03815  Biso   1.000  C
  C411     1.0000 0.01427  0.82025  0.18140  Biso   1.000  C
  C412     1.0000 0.65141  0.98225  0.70008  Biso   1.000  C
  C413     1.0000 0.32070  0.14017  0.52648  Biso   1.000  C
  C414     1.0000 0.50791  0.81559  0.36706  Biso   1.000  C
  C415     1.0000 0.35950  0.49456  0.84063  Biso   1.000  C
  C416     1.0000 0.69184  0.64625  0.02748  Biso   1.000  C
  C417     1.0000 0.49709  0.31572  0.18404  Biso   1.000  C
  C418     1.0000 0.85568  0.50648  0.71301  Biso   1.000  C
  C419     1.0000 0.18461  0.63982  0.52234  Biso   1.000  C
  C420     1.0000 0.98297  0.31613  0.38537  Biso   1.000  C
  C421     1.0000 0.86452  0.98248  0.20078  Biso   1.000  C
  C422     1.0000 0.19440  0.84938  0.03524  Biso   1.000  C
  C423     1.0000 0.00993  0.17967  0.88385  Biso   1.000  C
  C424     1.0000 0.35640  0.00548  0.35168  Biso   1.000  C
  C425     1.0000 0.68822  0.84474  0.50178  Biso   1.000  C
  C426     1.0000 0.49476  0.16481  0.68705  Biso   1.000  C
  C427     1.0000 0.65181  0.49874  0.21371  Biso   1.000  C
  C428     1.0000 0.32813  0.34511  0.01882  Biso   1.000  C
  C429     1.0000 0.50425  0.66480  0.86588  Biso   1.000  C
  C430     1.0000 0.14948  0.49657  0.33946  Biso   1.000  C
  C431     1.0000 0.81583  0.34333  0.53007  Biso   1.000  C
  C432     1.0000 0.00396  0.67972  0.67619  Biso   1.000  C
  C433     1.0000 0.00717  0.14678  0.85004  Biso   1.000  C
  C434     1.0000 0.83144  0.98909  0.16772  Biso   1.000  C
  C435     1.0000 0.16073  0.81749  0.03371  Biso   1.000  C
  C436     1.0000 0.49544  0.13125  0.71887  Biso   1.000  C
  C437     1.0000 0.32555  0.99994  0.38316  Biso   1.000  C
  C438     1.0000 0.65624  0.81400  0.51290  Biso   1.000  C
  C439     1.0000 0.49540  0.63104  0.83468  Biso   1.000  C
  C440     1.0000 0.68432  0.49686  0.17974  Biso   1.000  C
  C441     1.0000 0.36068  0.31140  0.02111  Biso   1.000  C
  C442     1.0000 0.00816  0.64794  0.70963  Biso   1.000  C
  C443     1.0000 0.18182  0.49673  0.37218  Biso   1.000  C
  C444     1.0000 0.85072  0.31135  0.53225  Biso   1.000  C
  C445     1.0000 0.02325  0.85293  0.21525  Biso   1.000  C
  C446     1.0000 0.18445  0.00068  0.87995  Biso   1.000  C
  C447     1.0000 0.85812  0.17944  0.04309  Biso   1.000  C
  C448     1.0000 0.50774  0.85022  0.33679  Biso   1.000  C
  C449     1.0000 0.68422  0.98925  0.66723  Biso   1.000  C
  C450     1.0000 0.35372  0.17148  0.52636  Biso   1.000  C
  C451     1.0000 0.49701  0.34876  0.21602  Biso   1.000  C
  C452     1.0000 0.32638  0.49830  0.87177  Biso   1.000  C
  C453     1.0000 0.65765  0.68090  0.02591  Biso   1.000  C
  C454     1.0000 0.98323  0.34989  0.35353  Biso   1.000  C
  C455     1.0000 0.82061  0.50358  0.68333  Biso   1.000  C
  C456     1.0000 0.15141  0.67272  0.52128  Biso   1.000  C
  C457     1.0000 0.00880  0.64626  0.34472  Biso   1.000  C
  C458     1.0000 0.32004  0.98119  0.68208  Biso   1.000  C
  C459     1.0000 0.65514  0.31376  0.05152  Biso   1.000  C
  C460     1.0000 0.51229  0.64781  0.20319  Biso   1.000  C
  C461     1.0000 0.81986  0.98989  0.87276  Biso   1.000  C
  C462     1.0000 0.15170  0.30988  0.52789  Biso   1.000  C
  C463     1.0000 0.51415  0.14998  0.35393  Biso   1.000  C
  C464     1.0000 0.18858  0.48919  0.67270  Biso   1.000  C
  C465     1.0000 0.86028  0.81903  0.03684  Biso   1.000  C
  C466     1.0000 0.98644  0.14736  0.21199  Biso   1.000  C
  C467     1.0000 0.68895  0.49988  0.88590  Biso   1.000  C
  C468     1.0000 0.35329  0.81199  0.51492  Biso   1.000  C
  C469     1.0000 0.99432  0.34885  0.71485  Biso   1.000  C
  C470     1.0000 0.69148  0.99260  0.36644  Biso   1.000  C
  C471     1.0000 0.35910  0.67473  0.02488  Biso   1.000  C
  C472     1.0000 0.51604  0.33329  0.85237  Biso   1.000  C
  C473     1.0000 0.19444  0.99196  0.17831  Biso   1.000  C
  C474     1.0000 0.84909  0.67163  0.52553  Biso   1.000  C
  C475     1.0000 0.50124  0.83212  0.69726  Biso   1.000  C
  C476     1.0000 0.81756  0.49544  0.38521  Biso   1.000  C
  C477     1.0000 0.15447  0.17944  0.04262  Biso   1.000  C
  C478     1.0000 0.00681  0.84545  0.84717  Biso   1.000  C
  C479     1.0000 0.32021  0.48646  0.16925  Biso   1.000  C
  C480     1.0000 0.65145  0.17355  0.52522  Biso   1.000  C
  C481     1.0000 0.37010  0.78592  0.51027  Biso   1.000  C
  C482     1.0000 0.51411  0.35041  0.82565  Biso   1.000  C
  C483     1.0000 0.79072  0.49449  0.40264  Biso   1.000  C
  C484     1.0000 0.87823  0.79258  0.03963  Biso   1.000  C
  C485     1.0000 0.98751  0.36603  0.74030  Biso   1.000  C
  C486     1.0000 0.29389  0.48877  0.15224  Biso   1.000  C
  C487     1.0000 0.13455  0.28363  0.52913  Biso   1.000  C
  C488     1.0000 0.00115  0.86009  0.81869  Biso   1.000  C
  C489     1.0000 0.71715  0.99503  0.38332  Biso   1.000  C
  C490     1.0000 0.63803  0.28983  0.06250  Biso   1.000  C
  C491     1.0000 0.50185  0.84506  0.72596  Biso   1.000  C
  C492     1.0000 0.22018  0.99175  0.15977  Biso   1.000  C
  C493     1.0000 0.63676  0.20158  0.52950  Biso   1.000  C
  C494     1.0000 0.51218  0.63332  0.23114  Biso   1.000  C
  C495     1.0000 0.21665  0.48598  0.65574  Biso   1.000  C
  C496     1.0000 0.13891  0.20696  0.04663  Biso   1.000  C
  C497     1.0000 0.01483  0.62864  0.31828  Biso   1.000  C
  C498     1.0000 0.71691  0.49446  0.89938  Biso   1.000  C
  C499     1.0000 0.86451  0.69843  0.52802  Biso   1.000  C
  C500     1.0000 0.98061  0.12896  0.23676  Biso   1.000  C
  C501     1.0000 0.29184  0.97946  0.66671  Biso   1.000  C
  C502     1.0000 0.37444  0.70214  0.02469  Biso   1.000  C
  C503     1.0000 0.51586  0.13774  0.32445  Biso   1.000  C
  C504     1.0000 0.79442  0.98209  0.88963  Biso   1.000  C
  C505     1.0000 0.63951  0.51043  0.82666  Biso   1.000  C
  C506     1.0000 0.78797  0.62505  0.52648  Biso   1.000  C
  C507     1.0000 0.50703  0.77746  0.64444  Biso   1.000  C
  C508     1.0000 0.14142  0.49484  0.73361  Biso   1.000  C
  C509     1.0000 0.29888  0.62723  0.02731  Biso   1.000  C
  C510     1.0000 0.01499  0.78941  0.89887  Biso   1.000  C
  C511     1.0000 0.86971  0.99511  0.81271  Biso   1.000  C
  C512     1.0000 0.71215  0.12603  0.51719  Biso   1.000  C
  C513     1.0000 0.00664  0.29057  0.66739  Biso   1.000  C
  C514     1.0000 0.37190  0.98250  0.73985  Biso   1.000  C
  C515     1.0000 0.21326  0.13120  0.04063  Biso   1.000  C
  C516     1.0000 0.51426  0.27520  0.90330  Biso   1.000  C
  C517     1.0000 0.36606  0.48917  0.23171  Biso   1.000  C
  C518     1.0000 0.21193  0.35685  0.52164  Biso   1.000  C
  C519     1.0000 0.50159  0.20521  0.40488  Biso   1.000  C
  C520     1.0000 0.86689  0.49658  0.32567  Biso   1.000  C
  C521     1.0000 0.71625  0.35689  0.03422  Biso   1.000  C
  C522     1.0000 0.99193  0.20958  0.16527  Biso   1.000  C
  C523     1.0000 0.14705  0.99495  0.23972  Biso   1.000  C
  C524     1.0000 0.29387  0.86011  0.52373  Biso   1.000  C
  C525     1.0000 0.00357  0.70493  0.39651  Biso   1.000  C
  C526     1.0000 0.64038  0.98898  0.30583  Biso   1.000  C
  C527     1.0000 0.79760  0.86404  0.02963  Biso   1.000  C
  C528     1.0000 0.51646  0.70375  0.15004  Biso   1.000  C
  C529     1.0000 0.80070  0.12594  0.03853  Biso   1.000  C
  C530     1.0000 0.01034  0.79499  0.16500  Biso   1.000  C
  C531     1.0000 0.13542  0.99506  0.82124  Biso   1.000  C
  C532     1.0000 0.29283  0.12331  0.52412  Biso   1.000  C
  C533     1.0000 0.50830  0.78754  0.38176  Biso   1.000  C
  C534     1.0000 0.63694  0.98306  0.72675  Biso   1.000  C
  C535     1.0000 0.71725  0.62747  0.02636  Biso   1.000  C
  C536     1.0000 0.49526  0.28895  0.16856  Biso   1.000  C
  C537     1.0000 0.37664  0.49044  0.81493  Biso   1.000  C
  C538     1.0000 0.21184  0.62430  0.52337  Biso   1.000  C
  C539     1.0000 0.98311  0.28859  0.39954  Biso   1.000  C
  C540     1.0000 0.87180  0.51444  0.73851  Biso   1.000  C
  C541     1.0000 0.22228  0.86385  0.03898  Biso   1.000  C
  C542     1.0000 0.00711  0.20603  0.89908  Biso   1.000  C
  C543     1.0000 0.88057  0.97717  0.22802  Biso   1.000  C
  C544     1.0000 0.71371  0.86233  0.49313  Biso   1.000  C
  C545     1.0000 0.49695  0.19194  0.67031  Biso   1.000  C
  C546     1.0000 0.37175  0.01058  0.32330  Biso   1.000  C
  C547     1.0000 0.30045  0.36087  0.01630  Biso   1.000  C
  C548     1.0000 0.51301  0.69236  0.87972  Biso   1.000  C
  C549     1.0000 0.63503  0.50379  0.24049  Biso   1.000  C
  C550     1.0000 0.78860  0.36029  0.52902  Biso   1.000  C
  C551     1.0000 0.00428  0.70733  0.66030  Biso   1.000  C
  C552     1.0000 0.13227  0.49290  0.31327  Biso   1.000  C
  C553     1.0000 0.00238  0.13193  0.82269  Biso   1.000  C
  C554     1.0000 0.80311  0.99476  0.15427  Biso   1.000  C
  C555     1.0000 0.14304  0.79126  0.03132  Biso   1.000  C
  C556     1.0000 0.49760  0.11379  0.74508  Biso   1.000  C
  C557     1.0000 0.29907  0.99825  0.39932  Biso   1.000  C
  C558     1.0000 0.64135  0.78589  0.51811  Biso   1.000  C
  C559     1.0000 0.48343  0.61351  0.81170  Biso   1.000  C
  C560     1.0000 0.71188  0.49368  0.16394  Biso   1.000  C
  C561     1.0000 0.37698  0.28605  0.02356  Biso   1.000  C
  C562     1.0000 0.01002  0.63194  0.73691  Biso   1.000  C
  C563     1.0000 0.20975  0.50184  0.38728  Biso   1.000  C
  C564     1.0000 0.86922  0.28403  0.53246  Biso   1.000  C
  C565     1.0000 0.02806  0.86814  0.24176  Biso   1.000  C
  C566     1.0000 0.21223  0.99884  0.89481  Biso   1.000  C
  C567     1.0000 0.87230  0.20741  0.04561  Biso   1.000  C
  C568     1.0000 0.50491  0.86791  0.31081  Biso   1.000  C
  C569     1.0000 0.71094  0.99862  0.65257  Biso   1.000  C
  C570     1.0000 0.37090  0.19920  0.52345  Biso   1.000  C
  C571     1.0000 0.49490  0.36722  0.24167  Biso   1.000  C
  C572     1.0000 0.29817  0.50092  0.88561  Biso   1.000  C
  C573     1.0000 0.64109  0.70707  0.02322  Biso   1.000  C
  C574     1.0000 0.97906  0.36682  0.32607  Biso   1.000  C
  C575     1.0000 0.79199  0.50415  0.66957  Biso   1.000  C
  C576     1.0000 0.13454  0.69913  0.51950  Biso   1.000  C
  C577     1.0000 0.29642  0.48711  0.12066  Biso   1.000  C
  C578     1.0000 0.10217  0.28342  0.53204  Biso   1.000  C
  C579     1.0000 0.51613  0.10638  0.32386  Biso   1.000  C
  C580     1.0000 0.79280  0.49413  0.43385  Biso   1.000  C
  C581     1.0000 0.60746  0.29101  0.06136  Biso   1.000  C
  C582     1.0000 0.98648  0.09963  0.23598  Biso   1.000  C
  C583     1.0000 0.21747  0.99066  0.12861  Biso   1.000  C
  C584     1.0000 0.40106  0.78548  0.50744  Biso   1.000  C
  C585     1.0000 0.01336  0.59674  0.31835  Biso   1.000  C
  C586     1.0000 0.71664  0.99514  0.41471  Biso   1.000  C
  C587     1.0000 0.91008  0.79509  0.04135  Biso   1.000  C
  C588     1.0000 0.50754  0.60170  0.23263  Biso   1.000  C
  C589     1.0000 0.71837  0.49371  0.93063  Biso   1.000  C
  C590     1.0000 0.89528  0.69924  0.52997  Biso   1.000  C
  C591     1.0000 0.50145  0.87755  0.72694  Biso   1.000  C
  C592     1.0000 0.21403  0.48488  0.62473  Biso   1.000  C
  C593     1.0000 0.40654  0.70095  0.02401  Biso   1.000  C
  C594     1.0000 0.99933  0.89131  0.81743  Biso   1.000  C
  C595     1.0000 0.79605  0.98031  0.92184  Biso   1.000  C
  C596     1.0000 0.60512  0.19977  0.53235  Biso   1.000  C
  C597     1.0000 0.98854  0.39694  0.73936  Biso   1.000  C
  C598     1.0000 0.29277  0.97833  0.63468  Biso   1.000  C
  C599     1.0000 0.10726  0.20659  0.04724  Biso   1.000  C
  C600     1.0000 0.51714  0.38193  0.82759  Biso   1.000  C
  C601     1.0000 0.21238  0.99697  0.92536  Biso   1.000  C
  C602     1.0000 0.90312  0.21103  0.04088  Biso   1.000  C
  C603     1.0000 0.02803  0.89988  0.24121  Biso   1.000  C
  C604     1.0000 0.71148  0.00177  0.62070  Biso   1.000  C
  C605     1.0000 0.40300  0.19646  0.52943  Biso   1.000  C
  C606     1.0000 0.50610  0.89871  0.31296  Biso   1.000  C
  C607     1.0000 0.29668  0.50209  0.91690  Biso   1.000  C
  C608     1.0000 0.60852  0.70645  0.02182  Biso   1.000  C
  C609     1.0000 0.49262  0.39836  0.23842  Biso   1.000  C
  C610     1.0000 0.79082  0.49895  0.63838  Biso   1.000  C
  C611     1.0000 0.10333  0.69831  0.51889  Biso   1.000  C
  C612     1.0000 0.98201  0.39778  0.32597  Biso   1.000  C
  C613     1.0000 0.80222  0.99853  0.12430  Biso   1.000  C
  C614     1.0000 0.11044  0.79387  0.02882  Biso   1.000  C
  C615     1.0000 0.99958  0.10007  0.82382  Biso   1.000  C
  C616     1.0000 0.29789  0.99612  0.43084  Biso   1.000  C
  C617     1.0000 0.61064  0.78747  0.52513  Biso   1.000  C
  C618     1.0000 0.50105  0.08232  0.74131  Biso   1.000  C
  C619     1.0000 0.71176  0.49264  0.13298  Biso   1.000  C
  C620     1.0000 0.40840  0.28632  0.02484  Biso   1.000  C
  C621     1.0000 0.48076  0.58253  0.81405  Biso   1.000  C
  C622     1.0000 0.21252  0.49671  0.41802  Biso   1.000  C
  C623     1.0000 0.90062  0.28649  0.53425  Biso   1.000  C
  C624     1.0000 0.01165  0.60101  0.73777  Biso   1.000  C
  C625     1.0000 0.00800  0.20776  0.93016  Biso   1.000  C
  C626     1.0000 0.91234  0.97883  0.22856  Biso   1.000  C
  C627     1.0000 0.22223  0.89565  0.03885  Biso   1.000  C
  C628     1.0000 0.49907  0.19253  0.63896  Biso   1.000  C
  C629     1.0000 0.40386  0.01132  0.32295  Biso   1.000  C
  C630     1.0000 0.71456  0.89343  0.49392  Biso   1.000  C
  C631     1.0000 0.51985  0.69286  0.90978  Biso   1.000  C
  C632     1.0000 0.60442  0.50319  0.24184  Biso   1.000  C
  C633     1.0000 0.30006  0.39140  0.01361  Biso   1.000  C
  C634     1.0000 0.99939  0.70549  0.62884  Biso   1.000  C
  C635     1.0000 0.10090  0.49082  0.31581  Biso   1.000  C
  C636     1.0000 0.78868  0.39201  0.52759  Biso   1.000  C
  C637     1.0000 0.00540  0.79739  0.13459  Biso   1.000  C
  C638     1.0000 0.10394  0.99014  0.82395  Biso   1.000  C
  C639     1.0000 0.80384  0.09507  0.03304  Biso   1.000  C
  C640     1.0000 0.50809  0.78577  0.41360  Biso   1.000  C
  C641     1.0000 0.60515  0.98087  0.72650  Biso   1.000  C
  C642     1.0000 0.29273  0.09207  0.52907  Biso   1.000  C
  C643     1.0000 0.50163  0.28858  0.13740  Biso   1.000  C
  C644     1.0000 0.40746  0.48342  0.81622  Biso   1.000  C
  C645     1.0000 0.71431  0.59673  0.02875  Biso   1.000  C
  C646     1.0000 0.98830  0.28800  0.43065  Biso   1.000  C
  C647     1.0000 0.90288  0.51170  0.73727  Biso   1.000  C
  C648     1.0000 0.21061  0.59337  0.52250  Biso   1.000  C
  C649     1.0000 0.00326  0.70263  0.42753  Biso   1.000  C
  C650     1.0000 0.40358  0.98540  0.73912  Biso   1.000  C
  C651     1.0000 0.71620  0.38800  0.02718  Biso   1.000  C
  C652     1.0000 0.51273  0.70176  0.11872  Biso   1.000  C
  C653     1.0000 0.90064  0.00088  0.81341  Biso   1.000  C
  C654     1.0000 0.21329  0.38766  0.52621  Biso   1.000  C
  C655     1.0000 0.50249  0.20360  0.43636  Biso   1.000  C
  C656     1.0000 0.10978  0.49796  0.73219  Biso   1.000  C
  C657     1.0000 0.79701  0.89479  0.02793  Biso   1.000  C
  C658     1.0000 0.99347  0.20883  0.13450  Biso   1.000  C
  C659     1.0000 0.60830  0.50840  0.82770  Biso   1.000  C
  C660     1.0000 0.29534  0.89166  0.52889  Biso   1.000  C
  C661     1.0000 0.00947  0.29007  0.63684  Biso   1.000  C
  C662     1.0000 0.60973  0.98979  0.30920  Biso   1.000  C
  C663     1.0000 0.29601  0.59622  0.02673  Biso   1.000  C
  C664     1.0000 0.51648  0.27638  0.93461  Biso   1.000  C
  C665     1.0000 0.11513  0.99834  0.24038  Biso   1.000  C
  C666     1.0000 0.78715  0.59349  0.53225  Biso   1.000  C
  C667     1.0000 0.50670  0.78215  0.61293  Biso   1.000  C
  C668     1.0000 0.89846  0.49909  0.32669  Biso   1.000  C
  C669     1.0000 0.21339  0.10058  0.03719  Biso   1.000  C
  C670     1.0000 0.01696  0.79278  0.93088  Biso   1.000  C
  C671     1.0000 0.39728  0.49180  0.23112  Biso   1.000  C
  C672     1.0000 0.71322  0.09596  0.51765  Biso   1.000  C
  C673     1.0000 0.20114  0.99936  0.83346  Biso   1.000  C
  C674     1.0000 0.80945  0.18701  0.04552  Biso   1.000  C
  C675     1.0000 0.02078  0.80620  0.22875  Biso   1.000  C
  C676     1.0000 0.69898  0.99161  0.71302  Biso   1.000  C
  C677     1.0000 0.30753  0.18645  0.51951  Biso   1.000  C
  C678     1.0000 0.50910  0.80488  0.32094  Biso   1.000  C
  C679     1.0000 0.31377  0.49814  0.82412  Biso   1.000  C
  C680     1.0000 0.70468  0.69298  0.02363  Biso   1.000  C
  C681     1.0000 0.49530  0.30230  0.23007  Biso   1.000  C
  C682     1.0000 0.80999  0.51289  0.73027  Biso   1.000  C
  C683     1.0000 0.19804  0.68746  0.52129  Biso   1.000  C
  C684     1.0000 0.98444  0.30494  0.33682  Biso   1.000  C
  C685     1.0000 0.81710  0.98216  0.21406  Biso   1.000  C
  C686     1.0000 0.20681  0.80199  0.03023  Biso   1.000  C
  C687     1.0000 0.00257  0.19359  0.83800  Biso   1.000  C
  C688     1.0000 0.31166  0.99831  0.33601  Biso   1.000  C
  C689     1.0000 0.70265  0.79951  0.50658  Biso   1.000  C
  C690     1.0000 0.49682  0.17870  0.73279  Biso   1.000  C
  C691     1.0000 0.69679  0.49635  0.22656  Biso   1.000  C
  C692     1.0000 0.31315  0.30063  0.02401  Biso   1.000  C
  C693     1.0000 0.49889  0.67680  0.81831  Biso   1.000  C
  C694     1.0000 0.19459  0.49606  0.32619  Biso   1.000  C
  C695     1.0000 0.80369  0.29635  0.52824  Biso   1.000  C
  C696     1.0000 0.00751  0.69371  0.72318  Biso   1.000  C
  C697     1.0000 0.70587  0.98698  0.32032  Biso   1.000  C
  C698     1.0000 0.31101  0.68944  0.02869  Biso   1.000  C
  C699     1.0000 0.99423  0.30187  0.73009  Biso   1.000  C
  C700     1.0000 0.21022  0.99039  0.22497  Biso   1.000  C
  C701     1.0000 0.80491  0.68877  0.51744  Biso   1.000  C
  C702     1.0000 0.51017  0.28702  0.84021  Biso   1.000  C
  C703     1.0000 0.80371  0.49340  0.33684  Biso   1.000  C
  C704     1.0000 0.20028  0.19325  0.04506  Biso   1.000  C
  C705     1.0000 0.50204  0.78324  0.70687  Biso   1.000  C
  C706     1.0000 0.30393  0.48678  0.21444  Biso   1.000  C
  C707     1.0000 0.69851  0.18707  0.52322  Biso   1.000  C
  C708     1.0000 0.00486  0.79929  0.83524  Biso   1.000  C
  C709     1.0000 0.30899  0.98477  0.72940  Biso   1.000  C
  C710     1.0000 0.70115  0.29735  0.05370  Biso   1.000  C
  C711     1.0000 0.01386  0.69448  0.33434  Biso   1.000  C
  C712     1.0000 0.80420  0.99181  0.82746  Biso   1.000  C
  C713     1.0000 0.19740  0.29365  0.52395  Biso   1.000  C
  C714     1.0000 0.51347  0.69413  0.21502  Biso   1.000  C
  C715     1.0000 0.20350  0.49345  0.71900  Biso   1.000  C
  C716     1.0000 0.81473  0.80286  0.03600  Biso   1.000  C
  C717     1.0000 0.50813  0.19598  0.34245  Biso   1.000  C
  C718     1.0000 0.70553  0.50536  0.84159  Biso   1.000  C
  C719     1.0000 0.30719  0.79766  0.51642  Biso   1.000  C
  C720     1.0000 0.98575  0.19310  0.22964  Biso   1.000  C
  C721     1.0000 0.52993  0.80613  0.29660  Biso   1.000  C
  C722     1.0000 0.31889  0.51480  0.79706  Biso   1.000  C
  C723     1.0000 0.77514  0.30055  0.54131  Biso   1.000  C
  C724     1.0000 0.99740  0.78459  0.23009  Biso   1.000  C
  C725     1.0000 0.78305  0.52970  0.72775  Biso   1.000  C
  C726     1.0000 0.28840  0.29825  0.00422  Biso   1.000  C
  C727     1.0000 0.96441  0.27952  0.33880  Biso   1.000  C
  C728     1.0000 0.22779  0.01645  0.83739  Biso   1.000  C
  C729     1.0000 0.73159  0.80330  0.51888  Biso   1.000  C
  C730     1.0000 0.48064  0.30550  0.25863  Biso   1.000  C
  C731     1.0000 0.72676  0.97744  0.70885  Biso   1.000  C
  C732     1.0000 0.23370  0.80525  0.01598  Biso   1.000  C
  C733     1.0000 0.48207  0.17464  0.76050  Biso   1.000  C
  C734     1.0000 0.69056  0.48267  0.25408  Biso   1.000  C
  C735     1.0000 0.19587  0.71096  0.49896  Biso   1.000  C
  C736     1.0000 0.98315  0.21854  0.84306  Biso   1.000  C
  C737     1.0000 0.22013  0.47818  0.32999  Biso   1.000  C
  C738     1.0000 0.73010  0.68804  0.04252  Biso   1.000  C
  C739     1.0000 0.02724  0.69170  0.74786  Biso   1.000  C
  C740     1.0000 0.78849  0.96801  0.20881  Biso   1.000  C
  C741     1.0000 0.28355  0.18326  0.50044  Biso   1.000  C
  C742     1.0000 0.50222  0.66929  0.78796  Biso   1.000  C
  C743     1.0000 0.31765  0.98059  0.30979  Biso   1.000  C
  C744     1.0000 0.81054  0.20972  0.06797  Biso   1.000  C
  C745     1.0000 0.03225  0.71947  0.34115  Biso   1.000  C
  C746     1.0000 0.28587  0.00561  0.72525  Biso   1.000  C
  C747     1.0000 0.73130  0.30188  0.06192  Biso   1.000  C
  C748     1.0000 0.53013  0.71988  0.21088  Biso   1.000  C
  C749     1.0000 0.80596  0.97442  0.80236  Biso   1.000  C
  C750     1.0000 0.22507  0.29705  0.53978  Biso   1.000  C
  C751     1.0000 0.52825  0.19647  0.31825  Biso   1.000  C
  C752     1.0000 0.22986  0.47411  0.71805  Biso   1.000  C
  C753     1.0000 0.78986  0.80341  0.01548  Biso   1.000  C
  C754     1.0000 0.99649  0.18781  0.25913  Biso   1.000  C
  C755     1.0000 0.70227  0.49173  0.81407  Biso   1.000  C
  C756     1.0000 0.27990  0.79804  0.53150  Biso   1.000  C
  C757     1.0000 0.98358  0.27296  0.72434  Biso   1.000  C
  C758     1.0000 0.70121  0.99940  0.29138  Biso   1.000  C
  C759     1.0000 0.28814  0.68922  0.04892  Biso   1.000  C
  C760     1.0000 0.52697  0.28728  0.81420  Biso   1.000  C
  C761     1.0000 0.23723  0.00652  0.22114  Biso   1.000  C
  C762     1.0000 0.80999  0.71401  0.49841  Biso   1.000  C
  C763     1.0000 0.48274  0.78628  0.73318  Biso   1.000  C
  C764     1.0000 0.77916  0.51278  0.34012  Biso   1.000  C
  C765     1.0000 0.22829  0.19236  0.06099  Biso   1.000  C
  C766     1.0000 0.98396  0.80192  0.81159  Biso   1.000  C
  C767     1.0000 0.30493  0.50486  0.24021  Biso   1.000  C
  C768     1.0000 0.69480  0.21200  0.50406  Biso   1.000  C
  C769     1.0000 0.49107  0.70708  0.82326  Biso   1.000  C
  C770     1.0000 0.81613  0.49856  0.75696  Biso   1.000  C
  C771     1.0000 0.69680  0.77171  0.49216  Biso   1.000  C
  C772     1.0000 0.98665  0.71789  0.72292  Biso   1.000  C
  C773     1.0000 0.28400  0.48752  0.82820  Biso   1.000  C
  C774     1.0000 0.20231  0.77671  0.04710  Biso   1.000  C
  C775     1.0000 0.01627  0.19091  0.80994  Biso   1.000  C
  C776     1.0000 0.69404  0.00961  0.73816  Biso   1.000  C
  C777     1.0000 0.80782  0.26951  0.51421  Biso   1.000  C
  C778     1.0000 0.51361  0.20521  0.72915  Biso   1.000  C
  C779     1.0000 0.19948  0.98010  0.80905  Biso   1.000  C
  C780     1.0000 0.31369  0.28157  0.04931  Biso   1.000  C
  C781     1.0000 0.51171  0.27584  0.22790  Biso   1.000  C
  C782     1.0000 0.19095  0.50929  0.29689  Biso   1.000  C
  C783     1.0000 0.31013  0.21418  0.53508  Biso   1.000  C
  C784     1.0000 0.00207  0.30878  0.31076  Biso   1.000  C
  C785     1.0000 0.72615  0.51028  0.22354  Biso   1.000  C
  C786     1.0000 0.78258  0.18606  0.02751  Biso   1.000  C
  C787     1.0000 0.04179  0.80609  0.25237  Biso   1.000  C
  C788     1.0000 0.28253  0.01134  0.33720  Biso   1.000  C
  C789     1.0000 0.22451  0.68738  0.53814  Biso   1.000  C
  C790     1.0000 0.49097  0.77988  0.32007  Biso   1.000  C
  C791     1.0000 0.82227  0.99287  0.24284  Biso   1.000  C
  C792     1.0000 0.70376  0.71778  0.00545  Biso   1.000  C
  C793     1.0000 0.48680  0.21908  0.34479  Biso   1.000  C
  C794     1.0000 0.27685  0.46838  0.21251  Biso   1.000  C
  C795     1.0000 0.19169  0.26675  0.50851  Biso   1.000  C
  C796     1.0000 0.97336  0.22105  0.22507  Biso   1.000  C
  C797     1.0000 0.80809  0.47658  0.30980  Biso   1.000  C
  C798     1.0000 0.69339  0.26577  0.04494  Biso   1.000  C
  C799     1.0000 0.99904  0.69307  0.30540  Biso   1.000  C
  C800     1.0000 0.20529  0.97330  0.25155  Biso   1.000  C
  C801     1.0000 0.31149  0.77230  0.49665  Biso   1.000  C
  C802     1.0000 0.49694  0.69141  0.24132  Biso   1.000  C
  C803     1.0000 0.73302  0.97330  0.32522  Biso   1.000  C
  C804     1.0000 0.81448  0.77751  0.05615  Biso   1.000  C
  C805     1.0000 0.51954  0.75624  0.70438  Biso   1.000  C
  C806     1.0000 0.73269  0.52224  0.84650  Biso   1.000  C
  C807     1.0000 0.77727  0.68692  0.53333  Biso   1.000  C
  C808     1.0000 0.02313  0.77288  0.83678  Biso   1.000  C
  C809     1.0000 0.20109  0.51304  0.74299  Biso   1.000  C
  C810     1.0000 0.31258  0.71268  0.00760  Biso   1.000  C
  C811     1.0000 0.00534  0.30702  0.75995  Biso   1.000  C
  C812     1.0000 0.77808  0.00968  0.82992  Biso   1.000  C
  C813     1.0000 0.72440  0.18564  0.54122  Biso   1.000  C
  C814     1.0000 0.48866  0.26381  0.84339  Biso   1.000  C
  C815     1.0000 0.31113  0.96883  0.75542  Biso   1.000  C
  C816     1.0000 0.19724  0.21924  0.02519  Biso   1.000  C
  C817     1.0000 0.98135  0.23996  0.82180  Biso   1.000  C
  C818     1.0000 0.76705  0.97147  0.22975  Biso   1.000  C
  C819     1.0000 0.25294  0.78235  0.01566  Biso   1.000  C
  C820     1.0000 0.48428  0.19516  0.78291  Biso   1.000  C
  C821     1.0000 0.29745  0.97793  0.28787  Biso   1.000  C
  C822     1.0000 0.75030  0.77990  0.51864  Biso   1.000  C
  C823     1.0000 0.49955  0.68888  0.76602  Biso   1.000  C
  C824     1.0000 0.71184  0.48115  0.27513  Biso   1.000  C
  C825     1.0000 0.26726  0.27855  0.01091  Biso   1.000  C
  C826     1.0000 0.02389  0.71120  0.76970  Biso   1.000  C
  C827     1.0000 0.24084  0.47587  0.30666  Biso   1.000  C
  C828     1.0000 0.75520  0.27858  0.54014  Biso   1.000  C
  C829     1.0000 0.99610  0.76497  0.25185  Biso   1.000  C
  C830     1.0000 0.24951  0.01412  0.81815  Biso   1.000  C
  C831     1.0000 0.79027  0.23111  0.06730  Biso   1.000  C
  C832     1.0000 0.53173  0.78615  0.27498  Biso   1.000  C
  C833     1.0000 0.74653  0.97687  0.73143  Biso   1.000  C
  C834     1.0000 0.26120  0.20373  0.50023  Biso   1.000  C
  C835     1.0000 0.48567  0.28616  0.28118  Biso   1.000  C
  C836     1.0000 0.29680  0.51554  0.77594  Biso   1.000  C
  C837     1.0000 0.75248  0.70719  0.04102  Biso   1.000  C
  C838     1.0000 0.96418  0.25852  0.31821  Biso   1.000  C
  C839     1.0000 0.76339  0.52987  0.74930  Biso   1.000  C
  C840     1.0000 0.21761  0.73269  0.49571  Biso   1.000  C
  C841     1.0000 0.22442  0.97706  0.79030  Biso   1.000  C
  C842     1.0000 0.76064  0.20732  0.02957  Biso   1.000  C
  C843     1.0000 0.04052  0.78488  0.27369  Biso   1.000  C
  C844     1.0000 0.71518  0.00845  0.75942  Biso   1.000  C
  C845     1.0000 0.29063  0.23572  0.52981  Biso   1.000  C
  C846     1.0000 0.49167  0.76025  0.29817  Biso   1.000  C
  C847     1.0000 0.26190  0.49030  0.80773  Biso   1.000  C
  C848     1.0000 0.72680  0.73833  0.00790  Biso   1.000  C
  C849     1.0000 0.51478  0.25561  0.24909  Biso   1.000  C
  C850     1.0000 0.79651  0.50077  0.78037  Biso   1.000  C
  C851     1.0000 0.24574  0.71003  0.53438  Biso   1.000  C
  C852     1.0000 0.00013  0.28659  0.28968  Biso   1.000  C
  C853     1.0000 0.79947  0.99260  0.26311  Biso   1.000  C
  C854     1.0000 0.22127  0.75300  0.04539  Biso   1.000  C
  C855     1.0000 0.01264  0.21212  0.78941  Biso   1.000  C
  C856     1.0000 0.26233  0.00924  0.31593  Biso   1.000  C
  C857     1.0000 0.71861  0.74987  0.49073  Biso   1.000  C
  C858     1.0000 0.51269  0.22528  0.75158  Biso   1.000  C
  C859     1.0000 0.74587  0.50980  0.24582  Biso   1.000  C
  C860     1.0000 0.29315  0.26038  0.05371  Biso   1.000  C
  C861     1.0000 0.49051  0.72672  0.79990  Biso   1.000  C
  C862     1.0000 0.21133  0.50542  0.27635  Biso   1.000  C
  C863     1.0000 0.78616  0.24972  0.51161  Biso   1.000  C
  C864     1.0000 0.98577  0.73799  0.74493  Biso   1.000  C
  C865     1.0000 0.72309  0.49621  0.79289  Biso   1.000  C
  C866     1.0000 0.78856  0.73513  0.49647  Biso   1.000  C
  C867     1.0000 0.48176  0.76441  0.75324  Biso   1.000  C
  C868     1.0000 0.25099  0.47961  0.73960  Biso   1.000  C
  C869     1.0000 0.26805  0.71152  0.04784  Biso   1.000  C
  C870     1.0000 0.98459  0.77996  0.79150  Biso   1.000  C
  C871     1.0000 0.78518  0.97436  0.78098  Biso   1.000  C
  C872     1.0000 0.71497  0.23405  0.50606  Biso   1.000  C
  C873     1.0000 0.98204  0.25249  0.74625  Biso   1.000  C
  C874     1.0000 0.26622  0.00959  0.74800  Biso   1.000  C
  C875     1.0000 0.24810  0.21429  0.05944  Biso   1.000  C
  C876     1.0000 0.52265  0.26606  0.79318  Biso   1.000  C
  C877     1.0000 0.28377  0.50358  0.26090  Biso   1.000  C
  C878     1.0000 0.24480  0.27425  0.53722  Biso   1.000  C
  C879     1.0000 0.52652  0.21726  0.29735  Biso   1.000  C
  C880     1.0000 0.75819  0.51196  0.31936  Biso   1.000  C
  C881     1.0000 0.75101  0.27797  0.06182  Biso   1.000  C
  C882     1.0000 0.99606  0.20955  0.27983  Biso   1.000  C
  C883     1.0000 0.25635  0.00527  0.24403  Biso   1.000  C
  C884     1.0000 0.25841  0.77784  0.52709  Biso   1.000  C
  C885     1.0000 0.03371  0.74150  0.31975  Biso   1.000  C
  C886     1.0000 0.72081  0.99561  0.26950  Biso   1.000  C
  C887     1.0000 0.77118  0.78070  0.01272  Biso   1.000  C
  C888     1.0000 0.52692  0.74259  0.22973  Biso   1.000  C
  C889     1.0000 0.75544  0.97168  0.30426  Biso   1.000  C
  C890     1.0000 0.29145  0.73384  0.00733  Biso   1.000  C
  C891     1.0000 0.00354  0.28604  0.78107  Biso   1.000  C
  C892     1.0000 0.22480  0.97485  0.27338  Biso   1.000  C
  C893     1.0000 0.75681  0.70934  0.52916  Biso   1.000  C
  C894     1.0000 0.48447  0.24256  0.82092  Biso   1.000  C
  C895     1.0000 0.78807  0.47869  0.28803  Biso   1.000  C
  C896     1.0000 0.21933  0.23895  0.02284  Biso   1.000  C
  C897     1.0000 0.51550  0.73428  0.72539  Biso   1.000  C
  C898     1.0000 0.25429  0.46974  0.23380  Biso   1.000  C
  C899     1.0000 0.74526  0.20750  0.53966  Biso   1.000  C
  C900     1.0000 0.02388  0.75349  0.81515  Biso   1.000  C
  C901     1.0000 0.29006  0.97334  0.77855  Biso   1.000  C
  C902     1.0000 0.71375  0.24427  0.04585  Biso   1.000  C
  C903     1.0000 0.00338  0.71527  0.28700  Biso   1.000  C
  C904     1.0000 0.75632  0.00945  0.80841  Biso   1.000  C
  C905     1.0000 0.21362  0.24584  0.50653  Biso   1.000  C
  C906     1.0000 0.49644  0.71306  0.26095  Biso   1.000  C
  C907     1.0000 0.22168  0.51601  0.76437  Biso   1.000  C
  C908     1.0000 0.79319  0.75606  0.05283  Biso   1.000  C
  C909     1.0000 0.48626  0.23947  0.32397  Biso   1.000  C
  C910     1.0000 0.75381  0.52377  0.82541  Biso   1.000  C
  C911     1.0000 0.29002  0.75108  0.49402  Biso   1.000  C
  C912     1.0000 0.97243  0.24148  0.24648  Biso   1.000  C
  C913     1.0000 0.76948  0.51625  0.77568  Biso   1.000  C
  C914     1.0000 0.74269  0.75490  0.50655  Biso   1.000  C
  C915     1.0000 0.49523  0.71751  0.77284  Biso   1.000  C
  C916     1.0000 0.26886  0.50415  0.78230  Biso   1.000  C
  C917     1.0000 0.24775  0.75667  0.02960  Biso   1.000  C
  C918     1.0000 0.00490  0.73461  0.76888  Biso   1.000  C
  C919     1.0000 0.74041  0.99195  0.75785  Biso   1.000  C
  C920     1.0000 0.76006  0.25390  0.52460  Biso   1.000  C
  C921     1.0000 0.99542  0.23644  0.79589  Biso   1.000  C
  C922     1.0000 0.24611  0.99662  0.79436  Biso   1.000  C
  C923     1.0000 0.26873  0.25905  0.03479  Biso   1.000  C
  C924     1.0000 0.49937  0.21974  0.77779  Biso   1.000  C
  C925     1.0000 0.23504  0.48798  0.27984  Biso   1.000  C
  C926     1.0000 0.26522  0.22949  0.51422  Biso   1.000  C
  C927     1.0000 0.50226  0.26039  0.27678  Biso   1.000  C
  C928     1.0000 0.73962  0.49462  0.27066  Biso   1.000  C
  C929     1.0000 0.76646  0.22991  0.04861  Biso   1.000  C
  C930     1.0000 0.98341  0.26050  0.29491  Biso   1.000  C
  C931     1.0000 0.27098  0.99305  0.29165  Biso   1.000  C
  C932     1.0000 0.24256  0.73040  0.51223  Biso   1.000  C
  C933     1.0000 0.01752  0.76478  0.27363  Biso   1.000  C
  C934     1.0000 0.77187  0.98358  0.25563  Biso   1.000  C
  C935     1.0000 0.75110  0.73387  0.02499  Biso   1.000  C
  C936     1.0000 0.51292  0.76115  0.27645  Biso   1.000  C
  C937     1.0000 0.74252  0.25027  0.05309  Biso   1.000  C
  C938     1.0000 0.01931  0.73953  0.29318  Biso   1.000  C
  C939     1.0000 0.26784  0.99331  0.77321  Biso   1.000  C
  C940     1.0000 0.24009  0.25007  0.52029  Biso   1.000  C
  C941     1.0000 0.51082  0.73879  0.25447  Biso   1.000  C
  C942     1.0000 0.76030  0.99265  0.78291  Biso   1.000  C
  C943     1.0000 0.77164  0.75760  0.03137  Biso   1.000  C
  C944     1.0000 0.50504  0.23827  0.29989  Biso   1.000  C
  C945     1.0000 0.24743  0.50090  0.75991  Biso   1.000  C
  C946     1.0000 0.26387  0.75407  0.50901  Biso   1.000  C
  C947     1.0000 0.98424  0.23670  0.27343  Biso   1.000  C
  C948     1.0000 0.74817  0.51171  0.79866  Biso   1.000  C
  C949     1.0000 0.26934  0.73327  0.02660  Biso   1.000  C
  C950     1.0000 0.99233  0.25937  0.77441  Biso   1.000  C
  C951     1.0000 0.74904  0.98454  0.27690  Biso   1.000  C
  C952     1.0000 0.76278  0.73200  0.51107  Biso   1.000  C
  C953     1.0000 0.50017  0.24486  0.79627  Biso   1.000  C
  C954     1.0000 0.24981  0.99051  0.26898  Biso   1.000  C
  C955     1.0000 0.24550  0.23720  0.04015  Biso   1.000  C
  C956     1.0000 0.49664  0.73860  0.74899  Biso   1.000  C
  C957     1.0000 0.76338  0.49535  0.29326  Biso   1.000  C
  C958     1.0000 0.73868  0.23110  0.52282  Biso   1.000  C
  C959     1.0000 0.00537  0.75715  0.79155  Biso   1.000  C
  C960     1.0000 0.25939  0.48534  0.25903  Biso   1.000  C
  Cu1      1.0000 0.00682  0.49662  0.68577  Biso   1.000  Cu
  Cu2      1.0000 0.65787  0.99371  0.51759  Biso   1.000  Cu
  Cu3      1.0000 0.50785  0.64427  0.01563  Biso   1.000  Cu
  Cu4      1.0000 0.50430  0.48463  0.87807  Biso   1.000  Cu
  Cu5      1.0000 0.16389  0.99677  0.02915  Biso   1.000  Cu
  Cu6      1.0000 0.00010  0.64774  0.52890  Biso   1.000  Cu
  Cu7      1.0000 0.50054  0.98395  0.67796  Biso   1.000  Cu
  Cu8      1.0000 0.84499  0.49137  0.53583  Biso   1.000  Cu
  Cu9      1.0000 0.00577  0.15311  0.03248  Biso   1.000  Cu
  Cu10     1.0000 0.00138  0.99553  0.87409  Biso   1.000  Cu
  Cu11     1.0000 0.34954  0.49355  0.01802  Biso   1.000  Cu
  Cu12     1.0000 0.50405  0.14129  0.53487  Biso   1.000  Cu
  Cu13     1.0000 0.00074  0.49706  0.37748  Biso   1.000  Cu
  Cu14     1.0000 0.34976  0.99073  0.53319  Biso   1.000  Cu
  Cu15     1.0000 0.51063  0.33807  0.03286  Biso   1.000  Cu
  Cu16     1.0000 0.49969  0.49755  0.18291  Biso   1.000  Cu
  Cu17     1.0000 0.85465  0.99452  0.02040  Biso   1.000  Cu
  Cu18     1.0000 0.00213  0.34153  0.53238  Biso   1.000  Cu
  Cu19     1.0000 0.50810  0.99890  0.36893  Biso   1.000  Cu
  Cu20     1.0000 0.15833  0.48992  0.52362  Biso   1.000  Cu
  Cu21     1.0000 0.01163  0.85001  0.03056  Biso   1.000  Cu
  Cu22     1.0000 0.01369  0.00145  0.18087  Biso   1.000  Cu
  Cu23     1.0000 0.65950  0.49443  0.02961  Biso   1.000  Cu
  Cu24     1.0000 0.50482  0.83796  0.51701  Biso   1.000  Cu
  Cu25     1.0000 0.21575  0.99929  0.02823  Biso   1.000  Cu
  Cu26     1.0000 0.00581  0.20754  0.03405  Biso   1.000  Cu
  Cu27     1.0000 0.01055  0.99954  0.23463  Biso   1.000  Cu
  Cu28     1.0000 0.71350  0.99517  0.51811  Biso   1.000  Cu
  Cu29     1.0000 0.50282  0.19672  0.53679  Biso   1.000  Cu
  Cu30     1.0000 0.50661  0.00508  0.31579  Biso   1.000  Cu
  Cu31     1.0000 0.29503  0.49118  0.01966  Biso   1.000  Cu
  Cu32     1.0000 0.50682  0.69801  0.01478  Biso   1.000  Cu
  Cu33     1.0000 0.49964  0.49828  0.23530  Biso   1.000  Cu
  Cu34     1.0000 0.79146  0.49122  0.53230  Biso   1.000  Cu
  Cu35     1.0000 0.99980  0.70086  0.52788  Biso   1.000  Cu
  Cu36     1.0000 0.99817  0.49484  0.32375  Biso   1.000  Cu
  Cu37     1.0000 0.80216  0.99743  0.02226  Biso   1.000  Cu
  Cu38     1.0000 0.01288  0.79604  0.03184  Biso   1.000  Cu
  Cu39     1.0000 0.00395  0.99652  0.82061  Biso   1.000  Cu
  Cu40     1.0000 0.29390  0.99118  0.53287  Biso   1.000  Cu
  Cu41     1.0000 0.50528  0.78450  0.51368  Biso   1.000  Cu
  Cu42     1.0000 0.50499  0.98200  0.73170  Biso   1.000  Cu
  Cu43     1.0000 0.71335  0.49319  0.03408  Biso   1.000  Cu
  Cu44     1.0000 0.50851  0.28577  0.03886  Biso   1.000  Cu
  Cu45     1.0000 0.50985  0.48247  0.82142  Biso   1.000  Cu
  Cu46     1.0000 0.21294  0.49011  0.52041  Biso   1.000  Cu
  Cu47     1.0000 0.00001  0.28794  0.53459  Biso   1.000  Cu
  Cu48     1.0000 0.00624  0.49757  0.73793  Biso   1.000  Cu
  H1       1.0000 0.23896  0.78080  0.53987  Biso   1.000  H
  H2       1.0000 0.53864  0.26748  0.77795  Biso   1.000  H
  H3       1.0000 0.73820  0.52472  0.32360  Biso   1.000  H
  H4       1.0000 0.75428  0.78422  0.99827  Biso   1.000  H
  H5       1.0000 0.97180  0.23125  0.74134  Biso   1.000  H
  H6       1.0000 0.28614  0.51628  0.28145  Biso   1.000  H
  H7       1.0000 0.26228  0.27356  0.55091  Biso   1.000  H
  H8       1.0000 0.96762  0.78361  0.77472  Biso   1.000  H
  H9       1.0000 0.71648  0.00798  0.24951  Biso   1.000  H
  H10      1.0000 0.77358  0.27923  0.06566  Biso   1.000  H
  H11      1.0000 0.46722  0.76981  0.77132  Biso   1.000  H
  H12      1.0000 0.27739  0.01479  0.24173  Biso   1.000  H
  H13      1.0000 0.71181  0.25451  0.49420  Biso   1.000  H
  H14      1.0000 0.53516  0.76397  0.22318  Biso   1.000  H
  H15      1.0000 0.26911  0.46414  0.74063  Biso   1.000  H
  H16      1.0000 0.26943  0.21101  0.07150  Biso   1.000  H
  H17      1.0000 0.04486  0.76182  0.32536  Biso   1.000  H
  H18      1.0000 0.72098  0.48536  0.77274  Biso   1.000  H
  H19      1.0000 0.79095  0.75338  0.48257  Biso   1.000  H
  H20      1.0000 0.00459  0.20630  0.30200  Biso   1.000  H
  H21      1.0000 0.24868  0.02569  0.74527  Biso   1.000  H
  H22      1.0000 0.25211  0.71053  0.06628  Biso   1.000  H
  H23      1.0000 0.54259  0.21969  0.28026  Biso   1.000  H
  H24      1.0000 0.78679  0.95549  0.76682  Biso   1.000  H
  H25      1.0000 0.26930  0.02576  0.82468  Biso   1.000  H
  H26      1.0000 0.79175  0.24886  0.08324  Biso   1.000  H
  H27      1.0000 0.97690  0.75093  0.25468  Biso   1.000  H
  H28      1.0000 0.76617  0.96315  0.72795  Biso   1.000  H
  H29      1.0000 0.24143  0.19928  0.48952  Biso   1.000  H
  H30      1.0000 0.54727  0.78861  0.25806  Biso   1.000  H
  H31      1.0000 0.29923  0.52389  0.75587  Biso   1.000  H
  H32      1.0000 0.77023  0.70401  0.05649  Biso   1.000  H
  H33      1.0000 0.47651  0.29014  0.30401  Biso   1.000  H
  H34      1.0000 0.74233  0.54090  0.74994  Biso   1.000  H
  H35      1.0000 0.21606  0.74846  0.47790  Biso   1.000  H
  H36      1.0000 0.94949  0.23987  0.32250  Biso   1.000  H
  H37      1.0000 0.74512  0.96391  0.22559  Biso   1.000  H
  H38      1.0000 0.27432  0.78776  0.00465  Biso   1.000  H
  H39      1.0000 0.96639  0.25809  0.82329  Biso   1.000  H
  H40      1.0000 0.30046  0.96001  0.27166  Biso   1.000  H
  H41      1.0000 0.77100  0.77983  0.52881  Biso   1.000  H
  H42      1.0000 0.47540  0.19010  0.80481  Biso   1.000  H
  H43      1.0000 0.70836  0.47239  0.29528  Biso   1.000  H
  H44      1.0000 0.24893  0.27766  0.99565  Biso   1.000  H
  H45      1.0000 0.50271  0.68172  0.74342  Biso   1.000  H
  H46      1.0000 0.26018  0.46261  0.30873  Biso   1.000  H
  H47      1.0000 0.73279  0.28385  0.54747  Biso   1.000  H
  H48      1.0000 0.04085  0.70750  0.78653  Biso   1.000  H
  H49      1.0000 0.20872  0.51524  0.25508  Biso   1.000  H
  H50      1.0000 0.29636  0.25665  0.53907  Biso   1.000  H
  H51      1.0000 0.52509  0.23524  0.24509  Biso   1.000  H
  H52      1.0000 0.76714  0.51878  0.24517  Biso   1.000  H
  H53      1.0000 0.74338  0.20707  0.01463  Biso   1.000  H
  H54      1.0000 0.01146  0.29198  0.26967  Biso   1.000  H
  H55      1.0000 0.24071  0.01801  0.31696  Biso   1.000  H
  H56      1.0000 0.26431  0.71048  0.54824  Biso   1.000  H
  H57      1.0000 0.05971  0.78238  0.28635  Biso   1.000  H
  H58      1.0000 0.80306  0.00160  0.28429  Biso   1.000  H
  H59      1.0000 0.72573  0.75705  0.99368  Biso   1.000  H
  H60      1.0000 0.47460  0.74343  0.29743  Biso   1.000  H
  H61      1.0000 0.80265  0.49084  0.80207  Biso   1.000  H
  H62      1.0000 0.71404  0.73047  0.47829  Biso   1.000  H
  H63      1.0000 0.48855  0.74938  0.80784  Biso   1.000  H
  H64      1.0000 0.24040  0.48097  0.81077  Biso   1.000  H
  H65      1.0000 0.21492  0.73224  0.05345  Biso   1.000  H
  H66      1.0000 0.97048  0.75653  0.74244  Biso   1.000  H
  H67      1.0000 0.71202  0.01977  0.77888  Biso   1.000  H
  H68      1.0000 0.79102  0.22983  0.49952  Biso   1.000  H
  H69      1.0000 0.02258  0.20870  0.76737  Biso   1.000  H
  H70      1.0000 0.22569  0.96240  0.77308  Biso   1.000  H
  H71      1.0000 0.29674  0.24515  0.07126  Biso   1.000  H
  H72      1.0000 0.52317  0.24485  0.74377  Biso   1.000  H
  H73      1.0000 0.77394  0.53543  0.82844  Biso   1.000  H
  H74      1.0000 0.73608  0.71070  0.54031  Biso   1.000  H
  H75      1.0000 0.52597  0.71522  0.72401  Biso   1.000  H
  H76      1.0000 0.22098  0.53229  0.78016  Biso   1.000  H
  H77      1.0000 0.29518  0.74971  0.99173  Biso   1.000  H
  H78      1.0000 0.03861  0.73560  0.81809  Biso   1.000  H
  H79      1.0000 0.73797  0.02386  0.81154  Biso   1.000  H
  H80      1.0000 0.76577  0.20795  0.54948  Biso   1.000  H
  H81      1.0000 0.01067  0.29383  0.80195  Biso   1.000  H
  H82      1.0000 0.28998  0.96215  0.79750  Biso   1.000  H
  H83      1.0000 0.21472  0.25609  0.00711  Biso   1.000  H
  H84      1.0000 0.46496  0.22923  0.82311  Biso   1.000  H
  H85      1.0000 0.23427  0.45545  0.23402  Biso   1.000  H
  H86      1.0000 0.21163  0.22701  0.49224  Biso   1.000  H
  H87      1.0000 0.46974  0.25516  0.32615  Biso   1.000  H
  H88      1.0000 0.79122  0.47081  0.26676  Biso   1.000  H
  H89      1.0000 0.70755  0.22323  0.04010  Biso   1.000  H
  H90      1.0000 0.96395  0.26305  0.24161  Biso   1.000  H
  H91      1.0000 0.21898  0.96635  0.29529  Biso   1.000  H
  H92      1.0000 0.29446  0.73341  0.48048  Biso   1.000  H
  H93      1.0000 0.99166  0.71386  0.26623  Biso   1.000  H
  H94      1.0000 0.77629  0.96236  0.30893  Biso   1.000  H
  H95      1.0000 0.79984  0.73681  0.06428  Biso   1.000  H
  H96      1.0000 0.48640  0.70895  0.28078  Biso   1.000  H
  H97      1.0000 0.86903  0.99715  0.93192  Biso   1.000  H
  H98      1.0000 0.91684  0.86760  0.02667  Biso   1.000  H
  H99      1.0000 0.01359  0.90408  0.89049  Biso   1.000  H
  H100     1.0000 0.36711  0.98506  0.62138  Biso   1.000  H
  H101     1.0000 0.41149  0.86119  0.51473  Biso   1.000  H
  H102     1.0000 0.49960  0.89413  0.65281  Biso   1.000  H
  H103     1.0000 0.64217  0.49939  0.94584  Biso   1.000  H
  H104     1.0000 0.59640  0.36327  0.04108  Biso   1.000  H
  H105     1.0000 0.52990  0.38863  0.90240  Biso   1.000  H
  H106     1.0000 0.14022  0.50026  0.61465  Biso   1.000  H
  H107     1.0000 0.09418  0.35862  0.53545  Biso   1.000  H
  H108     1.0000 0.99622  0.40683  0.66511  Biso   1.000  H
  H109     1.0000 0.14180  0.99647  0.12102  Biso   1.000  H
  H110     1.0000 0.09618  0.13113  0.03669  Biso   1.000  H
  H111     1.0000 0.99798  0.09338  0.16122  Biso   1.000  H
  H112     1.0000 0.64173  0.99315  0.42317  Biso   1.000  H
  H113     1.0000 0.59445  0.12423  0.53121  Biso   1.000  H
  H114     1.0000 0.51435  0.08964  0.39830  Biso   1.000  H
  H115     1.0000 0.37500  0.48103  0.11782  Biso   1.000  H
  H116     1.0000 0.41701  0.62638  0.02438  Biso   1.000  H
  H117     1.0000 0.50182  0.58385  0.15810  Biso   1.000  H
  H118     1.0000 0.86935  0.50051  0.44363  Biso   1.000  H
  H119     1.0000 0.90620  0.62467  0.53091  Biso   1.000  H
  H120     1.0000 0.00217  0.58715  0.39113  Biso   1.000  H
  H121     1.0000 0.09375  0.99398  0.89742  Biso   1.000  H
  H122     1.0000 0.87834  0.09412  0.01103  Biso   1.000  H
  H123     1.0000 0.02195  0.86968  0.12415  Biso   1.000  H
  H124     1.0000 0.59204  0.97820  0.65137  Biso   1.000  H
  H125     1.0000 0.36701  0.08096  0.53836  Biso   1.000  H
  H126     1.0000 0.50213  0.86016  0.42860  Biso   1.000  H
  H127     1.0000 0.41614  0.48714  0.89062  Biso   1.000  H
  H128     1.0000 0.63704  0.59339  0.03280  Biso   1.000  H
  H129     1.0000 0.50304  0.36586  0.12797  Biso   1.000  H
  H130     1.0000 0.91065  0.49264  0.66375  Biso   1.000  H
  H131     1.0000 0.13693  0.58054  0.51988  Biso   1.000  H
  H132     1.0000 0.00262  0.35902  0.44707  Biso   1.000  H
  H133     1.0000 0.92719  0.98961  0.15479  Biso   1.000  H
  H134     1.0000 0.14729  0.90685  0.03062  Biso   1.000  H
  H135     1.0000 0.02692  0.13234  0.93756  Biso   1.000  H
  H136     1.0000 0.41748  0.00782  0.39702  Biso   1.000  H
  H137     1.0000 0.64023  0.90230  0.51522  Biso   1.000  H
  H138     1.0000 0.49532  0.11856  0.62784  Biso   1.000  H
  H139     1.0000 0.59346  0.49869  0.16559  Biso   1.000  H
  H140     1.0000 0.37484  0.40133  0.00589  Biso   1.000  H
  H141     1.0000 0.50929  0.62181  0.92781  Biso   1.000  H
  H142     1.0000 0.09476  0.48825  0.39030  Biso   1.000  H
  H143     1.0000 0.86628  0.40111  0.52892  Biso   1.000  H
  H144     1.0000 0.00171  0.63040  0.62041  Biso   1.000  H
  H145     1.0000 0.59744  0.49204  0.90063  Biso   1.000  H
  H146     1.0000 0.86450  0.58084  0.52900  Biso   1.000  H
  H147     1.0000 0.50909  0.85887  0.60955  Biso   1.000  H
  H148     1.0000 0.10046  0.49649  0.65694  Biso   1.000  H
  H149     1.0000 0.37269  0.58311  0.02710  Biso   1.000  H
  H150     1.0000 0.01410  0.86872  0.93721  Biso   1.000  H
  H151     1.0000 0.90948  0.00237  0.88863  Biso   1.000  H
  H152     1.0000 0.63650  0.08413  0.52332  Biso   1.000  H
  H153     1.0000 0.99494  0.36412  0.62469  Biso   1.000  H
  H154     1.0000 0.40996  0.97638  0.66343  Biso   1.000  H
  H155     1.0000 0.13596  0.09177  0.03152  Biso   1.000  H
  H156     1.0000 0.52232  0.35149  0.94107  Biso   1.000  H
  H157     1.0000 0.40890  0.48804  0.15612  Biso   1.000  H
  H158     1.0000 0.13755  0.40098  0.52952  Biso   1.000  H
  H159     1.0000 0.50319  0.12645  0.43992  Biso   1.000  H
  H160     1.0000 0.91114  0.49296  0.40129  Biso   1.000  H
  H161     1.0000 0.64162  0.40385  0.03843  Biso   1.000  H
  H162     1.0000 0.00217  0.13453  0.12254  Biso   1.000  H
  H163     1.0000 0.10328  0.99862  0.16472  Biso   1.000  H
  H164     1.0000 0.37082  0.90155  0.52664  Biso   1.000  H
  H165     1.0000 0.99531  0.62655  0.43306  Biso   1.000  H
  H166     1.0000 0.60041  0.99312  0.38294  Biso   1.000  H
  H167     1.0000 0.87161  0.91056  0.02879  Biso   1.000  H
  H168     1.0000 0.50694  0.62687  0.11046  Biso   1.000  H
  H169     1.0000 0.01083  0.08665  0.89852  Biso   1.000  H
  H170     1.0000 0.87588  0.00277  0.10905  Biso   1.000  H
  H171     1.0000 0.10501  0.86902  0.03078  Biso   1.000  H
  H172     1.0000 0.50046  0.07842  0.66473  Biso   1.000  H
  H173     1.0000 0.37378  0.99929  0.44266  Biso   1.000  H
  H174     1.0000 0.60091  0.86169  0.52420  Biso   1.000  H
  H175     1.0000 0.50031  0.57767  0.88730  Biso   1.000  H
  H176     1.0000 0.63719  0.50017  0.12216  Biso   1.000  H
  H177     1.0000 0.42157  0.35989  0.01522  Biso   1.000  H
  H178     1.0000 0.00450  0.58791  0.66548  Biso   1.000  H
  H179     1.0000 0.13794  0.49031  0.43242  Biso   1.000  H
  H180     1.0000 0.90327  0.36362  0.52867  Biso   1.000  H
  H181     1.0000 0.02035  0.91065  0.16589  Biso   1.000  H
  H182     1.0000 0.13652  0.00482  0.93826  Biso   1.000  H
  H183     1.0000 0.91807  0.13990  0.01905  Biso   1.000  H
  H184     1.0000 0.51249  0.90640  0.38661  Biso   1.000  H
  H185     1.0000 0.63710  0.98734  0.60960  Biso   1.000  H
  H186     1.0000 0.40896  0.12102  0.53742  Biso   1.000  H
  H187     1.0000 0.49699  0.40619  0.16483  Biso   1.000  H
  H188     1.0000 0.37068  0.48880  0.93213  Biso   1.000  H
  H189     1.0000 0.60017  0.63011  0.03148  Biso   1.000  H
  H190     1.0000 0.98790  0.40757  0.40190  Biso   1.000  H
  H191     1.0000 0.86686  0.48987  0.62452  Biso   1.000  H
  H192     1.0000 0.09114  0.62464  0.52673  Biso   1.000  H
  H193     1.0000 0.27275  0.84982  0.52180  Biso   1.000  H
  H194     1.0000 0.51465  0.25544  0.89212  Biso   1.000  H
  H195     1.0000 0.85595  0.49819  0.30500  Biso   1.000  H
  H196     1.0000 0.77745  0.85203  0.02817  Biso   1.000  H
  H197     1.0000 0.01294  0.27231  0.68271  Biso   1.000  H
  H198     1.0000 0.35524  0.48872  0.25416  Biso   1.000  H
  H199     1.0000 0.23281  0.34606  0.52130  Biso   1.000  H
  H200     1.0000 0.01200  0.76838  0.89013  Biso   1.000  H
  H201     1.0000 0.64982  0.98577  0.28387  Biso   1.000  H
  H202     1.0000 0.73668  0.34412  0.03113  Biso   1.000  H
  H203     1.0000 0.50518  0.75530  0.65202  Biso   1.000  H
  H204     1.0000 0.15883  0.99256  0.26104  Biso   1.000  H
  H205     1.0000 0.73248  0.13893  0.51474  Biso   1.000  H
  H206     1.0000 0.51893  0.72512  0.15983  Biso   1.000  H
  H207     1.0000 0.15135  0.49199  0.75417  Biso   1.000  H
  H208     1.0000 0.23461  0.13997  0.04357  Biso   1.000  H
  H209     1.0000 0.00171  0.72619  0.38712  Biso   1.000  H
  H210     1.0000 0.65179  0.51966  0.80823  Biso   1.000  H
  H211     1.0000 0.76806  0.63629  0.52076  Biso   1.000  H
  H212     1.0000 0.99179  0.23110  0.17507  Biso   1.000  H
  H213     1.0000 0.36102  0.98223  0.76222  Biso   1.000  H
  H214     1.0000 0.27919  0.63981  0.02916  Biso   1.000  H
  H215     1.0000 0.50124  0.22561  0.39395  Biso   1.000  H
  H216     1.0000 0.85770  0.99397  0.79246  Biso   1.000  H
  H217     1.0000 0.22873  0.50418  0.37331  Biso   1.000  H
  H218     1.0000 0.36242  0.22059  0.51875  Biso   1.000  H
  H219     1.0000 0.49739  0.35643  0.26242  Biso   1.000  H
  H220     1.0000 0.73457  0.49275  0.17508  Biso   1.000  H
  H221     1.0000 0.85818  0.22601  0.05113  Biso   1.000  H
  H222     1.0000 0.97384  0.35524  0.30560  Biso   1.000  H
  H223     1.0000 0.27886  0.99799  0.38807  Biso   1.000  H
  H224     1.0000 0.14621  0.72079  0.52078  Biso   1.000  H
  H225     1.0000 0.02844  0.85960  0.26351  Biso   1.000  H
  H226     1.0000 0.78232  0.99506  0.16520  Biso   1.000  H
  H227     1.0000 0.65303  0.72786  0.01857  Biso   1.000  H
  H228     1.0000 0.50529  0.85729  0.28976  Biso   1.000  H
  H229     1.0000 0.77052  0.50716  0.67945  Biso   1.000  H
  H230     1.0000 0.65213  0.76497  0.51802  Biso   1.000  H
  H231     1.0000 0.47618  0.62414  0.79356  Biso   1.000  H
  H232     1.0000 0.27760  0.50519  0.87513  Biso   1.000  H
  H233     1.0000 0.15300  0.77088  0.02853  Biso   1.000  H
  H234     1.0000 0.01067  0.64423  0.75721  Biso   1.000  H
  H235     1.0000 0.72981  0.00291  0.66517  Biso   1.000  H
  H236     1.0000 0.85894  0.26313  0.53050  Biso   1.000  H
  H237     1.0000 0.00175  0.14153  0.80121  Biso   1.000  H
  H238     1.0000 0.23318  0.99529  0.88450  Biso   1.000  H
  H239     1.0000 0.36554  0.26378  0.02386  Biso   1.000  H
  H240     1.0000 0.49653  0.12123  0.76729  Biso   1.000  H
  H241     1.0000 0.73838  0.49239  0.88894  Biso   1.000  H
  H242     1.0000 0.85251  0.71875  0.52719  Biso   1.000  H
  H243     1.0000 0.50635  0.83267  0.74582  Biso   1.000  H
  H244     1.0000 0.23702  0.48013  0.66641  Biso   1.000  H
  H245     1.0000 0.36286  0.72317  0.02503  Biso   1.000  H
  H246     1.0000 0.00145  0.84746  0.79833  Biso   1.000  H
  H247     1.0000 0.77326  0.97800  0.87802  Biso   1.000  H
  H248     1.0000 0.64944  0.22257  0.52886  Biso   1.000  H
  H249     1.0000 0.97917  0.35642  0.76031  Biso   1.000  H
  H250     1.0000 0.26996  0.97861  0.67607  Biso   1.000  H
  H251     1.0000 0.15239  0.22620  0.05107  Biso   1.000  H
  H252     1.0000 0.51163  0.34129  0.80513  Biso   1.000  H
  H253     1.0000 0.27343  0.49203  0.16272  Biso   1.000  H
  H254     1.0000 0.14416  0.26195  0.52639  Biso   1.000  H
  H255     1.0000 0.51604  0.15149  0.30486  Biso   1.000  H
  H256     1.0000 0.76984  0.49410  0.39103  Biso   1.000  H
  H257     1.0000 0.64655  0.26842  0.06850  Biso   1.000  H
  H258     1.0000 0.97581  0.13678  0.25777  Biso   1.000  H
  H259     1.0000 0.24187  0.98940  0.16927  Biso   1.000  H
  H260     1.0000 0.35935  0.76433  0.50807  Biso   1.000  H
  H261     1.0000 0.02073  0.63899  0.29847  Biso   1.000  H
  H262     1.0000 0.73801  0.99568  0.37336  Biso   1.000  H
  H263     1.0000 0.86931  0.77234  0.04540  Biso   1.000  H
  H264     1.0000 0.51630  0.64427  0.25110  Biso   1.000  H
  H265     1.0000 0.00758  0.22503  0.88627  Biso   1.000  H
  H266     1.0000 0.86943  0.97292  0.24832  Biso   1.000  H
  H267     1.0000 0.24229  0.85051  0.04289  Biso   1.000  H
  H268     1.0000 0.49718  0.21181  0.68346  Biso   1.000  H
  H269     1.0000 0.36237  0.01213  0.30178  Biso   1.000  H
  H270     1.0000 0.73333  0.85260  0.48626  Biso   1.000  H
  H271     1.0000 0.51838  0.71054  0.86615  Biso   1.000  H
  H272     1.0000 0.64679  0.50577  0.26103  Biso   1.000  H
  H273     1.0000 0.27820  0.35076  0.01761  Biso   1.000  H
  H274     1.0000 0.00556  0.72750  0.67141  Biso   1.000  H
  H275     1.0000 0.14182  0.49215  0.29139  Biso   1.000  H
  H276     1.0000 0.76645  0.35010  0.53211  Biso   1.000  H
  H277     1.0000 0.01219  0.77320  0.17462  Biso   1.000  H
  H278     1.0000 0.14588  0.99456  0.80110  Biso   1.000  H
  H279     1.0000 0.77858  0.13261  0.04528  Biso   1.000  H
  H280     1.0000 0.51131  0.76612  0.37018  Biso   1.000  H
  H281     1.0000 0.64845  0.98675  0.74685  Biso   1.000  H
  H282     1.0000 0.27329  0.13339  0.52033  Biso   1.000  H
  H283     1.0000 0.49138  0.26893  0.18042  Biso   1.000  H
  H284     1.0000 0.36406  0.48748  0.79459  Biso   1.000  H
  H285     1.0000 0.73884  0.63752  0.02210  Biso   1.000  H
  H286     1.0000 0.98122  0.26844  0.38725  Biso   1.000  H
  H287     1.0000 0.86056  0.52362  0.75780  Biso   1.000  H
  H288     1.0000 0.23239  0.63464  0.52392  Biso   1.000  H
  H289     1.0000 0.09364  0.22567  0.05141  Biso   1.000  H
  H290     1.0000 0.98471  0.08969  0.25654  Biso   1.000  H
  H291     1.0000 0.23819  0.98989  0.11676  Biso   1.000  H
  H292     1.0000 0.59238  0.22043  0.53284  Biso   1.000  H
  H293     1.0000 0.51790  0.09787  0.30202  Biso   1.000  H
  H294     1.0000 0.73745  0.99723  0.42573  Biso   1.000  H
  H295     1.0000 0.41985  0.72051  0.02185  Biso   1.000  H
  H296     1.0000 0.50421  0.58915  0.25198  Biso   1.000  H
  H297     1.0000 0.27600  0.48820  0.10880  Biso   1.000  H
  H298     1.0000 0.90999  0.71752  0.53081  Biso   1.000  H
  H299     1.0000 0.01692  0.58493  0.29853  Biso   1.000  H
  H300     1.0000 0.77131  0.49124  0.44375  Biso   1.000  H
  H301     1.0000 0.92112  0.77472  0.04614  Biso   1.000  H
  H302     1.0000 0.99580  0.90119  0.79606  Biso   1.000  H
  H303     1.0000 0.77770  0.97487  0.93400  Biso   1.000  H
  H304     1.0000 0.41318  0.76518  0.50421  Biso   1.000  H
  H305     1.0000 0.50055  0.88749  0.74865  Biso   1.000  H
  H306     1.0000 0.27187  0.97698  0.62249  Biso   1.000  H
  H307     1.0000 0.59404  0.27419  0.06580  Biso   1.000  H
  H308     1.0000 0.51792  0.39445  0.80757  Biso   1.000  H
  H309     1.0000 0.74042  0.49464  0.94018  Biso   1.000  H
  H310     1.0000 0.09140  0.26282  0.53461  Biso   1.000  H
  H311     1.0000 0.98435  0.40510  0.76130  Biso   1.000  H
  H312     1.0000 0.23406  0.47605  0.61421  Biso   1.000  H
  H313     1.0000 0.23340  0.99022  0.93623  Biso   1.000  H
  H314     1.0000 0.91591  0.23104  0.04485  Biso   1.000  H
  H315     1.0000 0.02611  0.91352  0.25952  Biso   1.000  H
  H316     1.0000 0.73120  0.00787  0.61046  Biso   1.000  H
  H317     1.0000 0.41678  0.21516  0.52954  Biso   1.000  H
  H318     1.0000 0.50939  0.91202  0.29400  Biso   1.000  H
  H319     1.0000 0.27666  0.50429  0.92854  Biso   1.000  H
  H320     1.0000 0.59798  0.72640  0.01729  Biso   1.000  H
  H321     1.0000 0.49253  0.41267  0.25691  Biso   1.000  H
  H322     1.0000 0.76875  0.49833  0.62859  Biso   1.000  H
  H323     1.0000 0.09301  0.71950  0.51747  Biso   1.000  H
  H324     1.0000 0.97752  0.40967  0.30679  Biso   1.000  H
  H325     1.0000 0.77910  0.00229  0.11651  Biso   1.000  H
  H326     1.0000 0.09925  0.77407  0.02499  Biso   1.000  H
  H327     1.0000 0.99545  0.08727  0.80410  Biso   1.000  H
  H328     1.0000 0.27605  0.99507  0.44104  Biso   1.000  H
  H329     1.0000 0.59839  0.76756  0.52845  Biso   1.000  H
  H330     1.0000 0.50387  0.06786  0.75912  Biso   1.000  H
  H331     1.0000 0.73215  0.49307  0.12203  Biso   1.000  H
  H332     1.0000 0.41802  0.26548  0.02998  Biso   1.000  H
  H333     1.0000 0.47114  0.57093  0.79673  Biso   1.000  H
  H334     1.0000 0.23545  0.49635  0.42637  Biso   1.000  H
  H335     1.0000 0.91433  0.26661  0.53402  Biso   1.000  H
  H336     1.0000 0.01627  0.58835  0.75711  Biso   1.000  H
  H337     1.0000 0.00609  0.22815  0.94373  Biso   1.000  H
  H338     1.0000 0.92240  0.97468  0.25015  Biso   1.000  H
  H339     1.0000 0.24183  0.90625  0.04159  Biso   1.000  H
  H340     1.0000 0.50555  0.21081  0.62670  Biso   1.000  H
  H341     1.0000 0.41587  0.01220  0.30332  Biso   1.000  H
  H342     1.0000 0.73723  0.90397  0.48796  Biso   1.000  H
  H343     1.0000 0.52771  0.71254  0.92014  Biso   1.000  H
  H344     1.0000 0.59156  0.50250  0.26261  Biso   1.000  H
  H345     1.0000 0.27932  0.40244  0.01103  Biso   1.000  H
  H346     1.0000 0.99878  0.72729  0.61741  Biso   1.000  H
  H347     1.0000 0.08859  0.48567  0.29601  Biso   1.000  H
  H348     1.0000 0.76698  0.40275  0.52864  Biso   1.000  H
  H349     1.0000 0.99733  0.77793  0.12353  Biso   1.000  H
  H350     1.0000 0.09273  0.98452  0.80427  Biso   1.000  H
  H351     1.0000 0.78546  0.08104  0.03544  Biso   1.000  H
  H352     1.0000 0.50528  0.76397  0.42182  Biso   1.000  H
  H353     1.0000 0.59512  0.98159  0.74664  Biso   1.000  H
  H354     1.0000 0.27181  0.08098  0.52622  Biso   1.000  H
  H355     1.0000 0.50491  0.26770  0.12831  Biso   1.000  H
  H356     1.0000 0.42159  0.48209  0.79685  Biso   1.000  H
  H357     1.0000 0.73415  0.58386  0.02835  Biso   1.000  H
  H358     1.0000 0.98856  0.26675  0.44084  Biso   1.000  H
  H359     1.0000 0.91757  0.51625  0.75412  Biso   1.000  H
  H360     1.0000 0.23083  0.58203  0.52376  Biso   1.000  H
  H361     1.0000 0.00466  0.72097  0.44114  Biso   1.000  H
  H362     1.0000 0.41489  0.99144  0.75903  Biso   1.000  H
  H363     1.0000 0.73810  0.39576  0.02017  Biso   1.000  H
  H364     1.0000 0.51252  0.72221  0.10617  Biso   1.000  H
  H365     1.0000 0.91352  0.00373  0.79353  Biso   1.000  H
  H366     1.0000 0.23402  0.39786  0.52379  Biso   1.000  H
  H367     1.0000 0.50080  0.22343  0.44983  Biso   1.000  H
  H368     1.0000 0.09702  0.49544  0.75304  Biso   1.000  H
  H369     1.0000 0.77700  0.90500  0.02236  Biso   1.000  H
  H370     1.0000 0.99144  0.22831  0.12258  Biso   1.000  H
  H371     1.0000 0.59669  0.51250  0.80731  Biso   1.000  H
  H372     1.0000 0.27523  0.90227  0.53084  Biso   1.000  H
  H373     1.0000 0.01508  0.27060  0.62519  Biso   1.000  H
  H374     1.0000 0.59547  0.98851  0.29015  Biso   1.000  H
  H375     1.0000 0.27446  0.58695  0.02552  Biso   1.000  H
  H376     1.0000 0.52032  0.25580  0.94647  Biso   1.000  H
  H377     1.0000 0.10257  0.00117  0.26097  Biso   1.000  H
  H378     1.0000 0.76711  0.58238  0.53038  Biso   1.000  H
  H379     1.0000 0.50570  0.76363  0.59861  Biso   1.000  H
  H380     1.0000 0.91089  0.49950  0.30568  Biso   1.000  H
  H381     1.0000 0.23417  0.08820  0.03508  Biso   1.000  H
  H382     1.0000 0.01895  0.77309  0.94280  Biso   1.000  H
  H383     1.0000 0.40939  0.48984  0.25057  Biso   1.000  H
  H384     1.0000 0.73378  0.08429  0.51486  Biso   1.000  H
  H385     1.0000 0.22310  0.46550  0.34855  Biso   1.000  H
  H386     1.0000 0.28278  0.16501  0.48698  Biso   1.000  H
  H387     1.0000 0.46594  0.32432  0.26179  Biso   1.000  H
  H388     1.0000 0.66944  0.47234  0.25759  Biso   1.000  H
  H389     1.0000 0.82775  0.21228  0.08481  Biso   1.000  H
  H390     1.0000 0.94908  0.27670  0.35759  Biso   1.000  H
  H391     1.0000 0.33710  0.96749  0.31012  Biso   1.000  H
  H392     1.0000 0.17726  0.71122  0.48412  Biso   1.000  H
  H393     1.0000 0.98077  0.78639  0.21289  Biso   1.000  H
  H394     1.0000 0.78408  0.95753  0.18959  Biso   1.000  H
  H395     1.0000 0.73155  0.66961  0.05643  Biso   1.000  H
  H396     1.0000 0.54617  0.82230  0.29094  Biso   1.000  H
  H397     1.0000 0.77846  0.54278  0.70830  Biso   1.000  H
  H398     1.0000 0.73887  0.82367  0.52905  Biso   1.000  H
  H399     1.0000 0.50935  0.64890  0.78442  Biso   1.000  H
  H400     1.0000 0.33873  0.52439  0.79031  Biso   1.000  H
  H401     1.0000 0.23965  0.82493  0.00430  Biso   1.000  H
  H402     1.0000 0.04492  0.67503  0.75257  Biso   1.000  H
  H403     1.0000 0.73307  0.96494  0.69027  Biso   1.000  H
  H404     1.0000 0.76807  0.31870  0.55497  Biso   1.000  H
  H405     1.0000 0.97155  0.21932  0.86354  Biso   1.000  H
  H406     1.0000 0.23044  0.03250  0.85486  Biso   1.000  H
  H407     1.0000 0.28469  0.31242  0.98613  Biso   1.000  H
  H408     1.0000 0.46915  0.15519  0.76385  Biso   1.000  H
  H409     1.0000 0.27406  0.45298  0.19418  Biso   1.000  H
  H410     1.0000 0.17174  0.26369  0.49707  Biso   1.000  H
  H411     1.0000 0.47457  0.21800  0.36308  Biso   1.000  H
  H412     1.0000 0.82728  0.46496  0.30807  Biso   1.000  H
  H413     1.0000 0.67323  0.25939  0.03336  Biso   1.000  H
  H414     1.0000 0.96349  0.22564  0.20487  Biso   1.000  H
  H415     1.0000 0.18499  0.96034  0.25357  Biso   1.000  H
  H416     1.0000 0.33070  0.76701  0.48395  Biso   1.000  H
  H417     1.0000 0.98763  0.67370  0.29691  Biso   1.000  H
  H418     1.0000 0.73691  0.96412  0.34540  Biso   1.000  H
  H419     1.0000 0.83216  0.77561  0.07027  Biso   1.000  H
  H420     1.0000 0.48234  0.67431  0.24759  Biso   1.000  H
  H421     1.0000 0.73576  0.53615  0.86457  Biso   1.000  H
  H422     1.0000 0.77448  0.67227  0.55169  Biso   1.000  H
  H423     1.0000 0.53322  0.75026  0.68467  Biso   1.000  H
  H424     1.0000 0.18231  0.52629  0.74645  Biso   1.000  H
  H425     1.0000 0.33045  0.71346  0.99207  Biso   1.000  H
  H426     1.0000 0.03787  0.77009  0.85487  Biso   1.000  H
  H427     1.0000 0.77598  0.02728  0.84574  Biso   1.000  H
  H428     1.0000 0.72773  0.16647  0.55482  Biso   1.000  H
  H429     1.0000 0.01439  0.32757  0.76583  Biso   1.000  H
  H430     1.0000 0.32860  0.95010  0.75649  Biso   1.000  H
  H431     1.0000 0.17741  0.22339  0.01337  Biso   1.000  H
  H432     1.0000 0.47425  0.26349  0.86296  Biso   1.000  H
  H433     1.0000 0.28258  0.01806  0.70532  Biso   1.000  H
  H434     1.0000 0.74156  0.32351  0.06442  Biso   1.000  H
  H435     1.0000 0.04092  0.71979  0.36323  Biso   1.000  H
  H436     1.0000 0.82422  0.95923  0.80053  Biso   1.000  H
  H437     1.0000 0.22834  0.31539  0.55370  Biso   1.000  H
  H438     1.0000 0.54466  0.72267  0.19266  Biso   1.000  H
  H439     1.0000 0.23450  0.45655  0.70316  Biso   1.000  H
  H440     1.0000 0.78779  0.82178  0.99898  Biso   1.000  H
  H441     1.0000 0.54479  0.17898  0.31443  Biso   1.000  H
  H442     1.0000 0.68518  0.47616  0.80968  Biso   1.000  H
  H443     1.0000 0.27782  0.81616  0.54640  Biso   1.000  H
  H444     1.0000 0.00714  0.16822  0.26638  Biso   1.000  H
  H445     1.0000 0.68337  0.01320  0.28675  Biso   1.000  H
  H446     1.0000 0.28967  0.67305  0.06545  Biso   1.000  H
  H447     1.0000 0.97693  0.26602  0.70246  Biso   1.000  H
  H448     1.0000 0.24026  0.01904  0.20179  Biso   1.000  H
  H449     1.0000 0.83152  0.71702  0.48861  Biso   1.000  H
  H450     1.0000 0.54328  0.30359  0.80894  Biso   1.000  H
  H451     1.0000 0.77766  0.52834  0.35862  Biso   1.000  H
  H452     1.0000 0.23402  0.17233  0.07294  Biso   1.000  H
  H453     1.0000 0.47114  0.80607  0.73891  Biso   1.000  H
  H454     1.0000 0.32406  0.51768  0.24619  Biso   1.000  H
  H455     1.0000 0.67726  0.21300  0.48924  Biso   1.000  H
  H456     1.0000 0.96872  0.81862  0.80774  Biso   1.000  H
  H457     1.0000 0.67618  0.76675  0.48066  Biso   1.000  H
  H458     1.0000 0.48582  0.71708  0.84422  Biso   1.000  H
  H459     1.0000 0.83540  0.48433  0.75913  Biso   1.000  H
  H460     1.0000 0.18594  0.77571  0.06325  Biso   1.000  H
  H461     1.0000 0.97117  0.72323  0.70480  Biso   1.000  H
  H462     1.0000 0.28011  0.47218  0.84683  Biso   1.000  H
  H463     1.0000 0.82881  0.26737  0.50330  Biso   1.000  H
  H464     1.0000 0.03268  0.17403  0.80593  Biso   1.000  H
  H465     1.0000 0.67602  0.02523  0.74105  Biso   1.000  H
  H466     1.0000 0.33111  0.28235  0.06630  Biso   1.000  H
  H467     1.0000 0.52934  0.20858  0.71018  Biso   1.000  H
  H468     1.0000 0.18141  0.96533  0.80343  Biso   1.000  H
  H469     1.0000 0.33018  0.21798  0.54682  Biso   1.000  H
  H470     1.0000 0.52554  0.27529  0.20921  Biso   1.000  H
  H471     1.0000 0.17180  0.52406  0.28960  Biso   1.000  H
  H472     1.0000 0.77799  0.16914  0.01292  Biso   1.000  H
  H473     1.0000 0.01659  0.32776  0.30718  Biso   1.000  H
  H474     1.0000 0.73342  0.52258  0.20489  Biso   1.000  H
  H475     1.0000 0.22698  0.67151  0.55601  Biso   1.000  H
  H476     1.0000 0.05845  0.82278  0.25203  Biso   1.000  H
  H477     1.0000 0.27649  0.02303  0.35490  Biso   1.000  H
  H478     1.0000 0.68369  0.72539  0.99361  Biso   1.000  H
  H479     1.0000 0.47500  0.77415  0.33803  Biso   1.000  H
  H480     1.0000 0.84144  0.00464  0.25237  Biso   1.000  H
  N1       1.0000 0.67900  0.16811  0.52347  Biso   1.000  N
  N2       1.0000 0.51460  0.67487  0.19615  Biso   1.000  N
  N3       1.0000 0.18433  0.49229  0.69981  Biso   1.000  N
  N4       1.0000 0.18169  0.17383  0.04259  Biso   1.000  N
  N5       1.0000 0.01017  0.67307  0.35246  Biso   1.000  N
  N6       1.0000 0.68374  0.50425  0.85912  Biso   1.000  N
  N7       1.0000 0.82244  0.66770  0.52281  Biso   1.000  N
  N8       1.0000 0.98799  0.17473  0.20869  Biso   1.000  N
  N9       1.0000 0.32706  0.98115  0.70972  Biso   1.000  N
  N10      1.0000 0.33118  0.67027  0.02718  Biso   1.000  N
  N11      1.0000 0.50911  0.17624  0.36105  Biso   1.000  N
  N12      1.0000 0.82587  0.99154  0.84531  Biso   1.000  N
  N13      1.0000 0.32634  0.81776  0.51674  Biso   1.000  N
  N14      1.0000 0.51377  0.30626  0.85857  Biso   1.000  N
  N15      1.0000 0.82248  0.49402  0.35695  Biso   1.000  N
  N16      1.0000 0.83349  0.82295  0.03602  Biso   1.000  N
  N17      1.0000 0.99650  0.32186  0.71055  Biso   1.000  N
  N18      1.0000 0.32415  0.48714  0.19624  Biso   1.000  N
  N19      1.0000 0.17907  0.31408  0.52522  Biso   1.000  N
  N20      1.0000 0.00917  0.81911  0.85374  Biso   1.000  N
  N21      1.0000 0.68570  0.98960  0.33891  Biso   1.000  N
  N22      1.0000 0.68233  0.31782  0.04947  Biso   1.000  N
  N23      1.0000 0.50143  0.80450  0.68978  Biso   1.000  N
  N24      1.0000 0.19046  0.99155  0.20606  Biso   1.000  N
  N25      1.0000 0.82795  0.50762  0.70931  Biso   1.000  N
  N26      1.0000 0.68280  0.81869  0.50609  Biso   1.000  N
  N27      1.0000 0.50057  0.65855  0.83882  Biso   1.000  N
  N28      1.0000 0.33270  0.49721  0.84444  Biso   1.000  N
  N29      1.0000 0.18833  0.82311  0.03256  Biso   1.000  N
  N30      1.0000 0.00697  0.67464  0.70363  Biso   1.000  N
  N31      1.0000 0.67870  0.98683  0.69470  Biso   1.000  N
  N32      1.0000 0.82310  0.31521  0.53073  Biso   1.000  N
  N33      1.0000 0.00684  0.17414  0.85666  Biso   1.000  N
  N34      1.0000 0.17986  0.00194  0.85260  Biso   1.000  N
  N35      1.0000 0.33341  0.31842  0.02135  Biso   1.000  N
  N36      1.0000 0.49517  0.15893  0.71350  Biso   1.000  N
  N37      1.0000 0.17604  0.49729  0.34585  Biso   1.000  N
  N38      1.0000 0.32646  0.16721  0.52462  Biso   1.000  N
  N39      1.0000 0.49644  0.32201  0.21096  Biso   1.000  N
  N40      1.0000 0.67874  0.49735  0.20691  Biso   1.000  N
  N41      1.0000 0.83185  0.17051  0.04266  Biso   1.000  N
  N42      1.0000 0.98338  0.32265  0.35865  Biso   1.000  N
  N43      1.0000 0.32963  0.00200  0.35568  Biso   1.000  N
  N44      1.0000 0.17906  0.66747  0.52167  Biso   1.000  N
  N45      1.0000 0.01945  0.82567  0.20833  Biso   1.000  N
  N46      1.0000 0.83684  0.98392  0.19501  Biso   1.000  N
  N47      1.0000 0.68514  0.67317  0.02576  Biso   1.000  N
  N48      1.0000 0.50794  0.82286  0.34108  Biso   1.000  N
  O1       1.0000 0.34532  0.53480  0.02595  Biso   1.000  O
  O2       1.0000 0.00148  0.33919  0.57449  Biso   1.000  O
  O3       1.0000 0.55092  0.99501  0.36216  Biso   1.000  O
  O4       1.0000 0.84021  0.53272  0.53820  Biso   1.000  O
  O5       1.0000 0.51544  0.33130  0.99167  Biso   1.000  O
  O6       1.0000 0.05474  0.01063  0.18807  Biso   1.000  O
  O7       1.0000 0.16388  0.04003  0.03127  Biso   1.000  O
  O8       1.0000 0.50427  0.83754  0.55867  Biso   1.000  O
  O9       1.0000 0.95878  0.50290  0.37505  Biso   1.000  O
  O10      1.0000 0.66397  0.03514  0.52080  Biso   1.000  O
  O11      1.0000 0.01329  0.84792  0.98760  Biso   1.000  O
  O12      1.0000 0.45887  0.49213  0.18102  Biso   1.000  O
  O13      1.0000 0.66457  0.45233  0.02532  Biso   1.000  O
  O14      1.0000 0.99666  0.64909  0.48592  Biso   1.000  O
  O15      1.0000 0.45880  0.98563  0.68154  Biso   1.000  O
  O16      1.0000 0.16121  0.44819  0.52558  Biso   1.000  O
  O17      1.0000 0.50689  0.64632  0.05876  Biso   1.000  O
  O18      1.0000 0.95987  0.99702  0.86640  Biso   1.000  O
  O19      1.0000 0.85011  0.95381  0.02237  Biso   1.000  O
  O20      1.0000 0.50444  0.14770  0.49283  Biso   1.000  O
  O21      1.0000 0.04929  0.49320  0.68406  Biso   1.000  O
  O22      1.0000 0.34741  0.95014  0.52951  Biso   1.000  O
  O23      1.0000 0.00580  0.15601  0.07511  Biso   1.000  O
  O24      1.0000 0.54713  0.49464  0.87520  Biso   1.000  O
  O25      1.0000 0.97264  0.99850  0.18054  Biso   1.000  O
  O26      1.0000 0.17008  0.95613  0.02942  Biso   1.000  O
  O27      1.0000 0.00785  0.15519  0.98899  Biso   1.000  O
  O28      1.0000 0.46683  0.00166  0.36910  Biso   1.000  O
  O29      1.0000 0.66469  0.95165  0.51542  Biso   1.000  O
  O30      1.0000 0.50525  0.14400  0.57706  Biso   1.000  O
  O31      1.0000 0.54180  0.50066  0.18802  Biso   1.000  O
  O32      1.0000 0.34817  0.45195  0.00806  Biso   1.000  O
  O33      1.0000 0.50886  0.64671  0.97210  Biso   1.000  O
  O34      1.0000 0.04334  0.49284  0.36994  Biso   1.000  O
  O35      1.0000 0.84125  0.45028  0.53126  Biso   1.000  O
  O36      1.0000 0.00091  0.65248  0.57134  Biso   1.000  O
  O37      1.0000 0.04335  0.99594  0.87415  Biso   1.000  O
  O38      1.0000 0.85573  0.03659  0.01510  Biso   1.000  O
  O39      1.0000 0.00811  0.84767  0.07294  Biso   1.000  O
  O40      1.0000 0.54306  0.98434  0.67797  Biso   1.000  O
  O41      1.0000 0.34635  0.03380  0.53434  Biso   1.000  O
  O42      1.0000 0.50938  0.83689  0.47317  Biso   1.000  O
  O43      1.0000 0.46548  0.47326  0.87176  Biso   1.000  O
  O44      1.0000 0.65806  0.53651  0.03419  Biso   1.000  O
  O45      1.0000 0.50453  0.33782  0.07389  Biso   1.000  O
  O46      1.0000 0.96231  0.49728  0.68547  Biso   1.000  O
  O47      1.0000 0.15952  0.53228  0.51838  Biso   1.000  O
  O48      1.0000 0.99917  0.33973  0.49008  Biso   1.000  O
  O49      1.0000 0.02143  0.95908  0.18775  Biso   1.000  O
  O50      1.0000 0.16367  0.00091  0.98880  Biso   1.000  O
  O51      1.0000 0.96465  0.15948  0.03376  Biso   1.000  O
  O52      1.0000 0.50469  0.95722  0.36598  Biso   1.000  O
  O53      1.0000 0.66043  0.99130  0.55846  Biso   1.000  O
  O54      1.0000 0.45991  0.14264  0.53798  Biso   1.000  O
  O55      1.0000 0.49927  0.45527  0.18496  Biso   1.000  O
  O56      1.0000 0.34742  0.50116  0.97893  Biso   1.000  O
  O57      1.0000 0.55096  0.65066  0.02113  Biso   1.000  O
  O58      1.0000 0.99468  0.45460  0.37522  Biso   1.000  O
  O59      1.0000 0.84449  0.48729  0.57648  Biso   1.000  O
  O60      1.0000 0.04158  0.65165  0.52793  Biso   1.000  O
  O61      1.0000 0.00603  0.03794  0.87407  Biso   1.000  O
  O62      1.0000 0.85042  0.99625  0.06196  Biso   1.000  O
  O63      1.0000 0.05258  0.84848  0.03244  Biso   1.000  O
  O64      1.0000 0.50076  0.02490  0.68590  Biso   1.000  O
  O65      1.0000 0.34742  0.99531  0.49019  Biso   1.000  O
  O66      1.0000 0.54651  0.83681  0.52019  Biso   1.000  O
  O67      1.0000 0.49801  0.52727  0.86855  Biso   1.000  O
  O68      1.0000 0.65902  0.49205  0.07229  Biso   1.000  O
  O69      1.0000 0.47053  0.33550  0.02240  Biso   1.000  O
  O70      1.0000 0.01227  0.53887  0.68874  Biso   1.000  O
  O71      1.0000 0.16330  0.49064  0.47939  Biso   1.000  O
  O72      1.0000 0.95795  0.34189  0.53447  Biso   1.000  O
  O73      1.0000 0.00399  0.45710  0.69152  Biso   1.000  O
  O74      1.0000 0.66560  0.99251  0.47589  Biso   1.000  O
  O75      1.0000 0.46578  0.65090  0.01722  Biso   1.000  O
  O76      1.0000 0.51551  0.44332  0.87700  Biso   1.000  O
  O77      1.0000 0.16595  0.99649  0.06966  Biso   1.000  O
  O78      1.0000 0.95790  0.64635  0.53102  Biso   1.000  O
  O79      1.0000 0.50019  0.94277  0.67964  Biso   1.000  O
  O80      1.0000 0.84454  0.49688  0.49457  Biso   1.000  O
  O81      1.0000 0.04830  0.15660  0.03406  Biso   1.000  O
  O82      1.0000 0.00333  0.95411  0.86856  Biso   1.000  O
  O83      1.0000 0.34960  0.48577  0.05983  Biso   1.000  O
  O84      1.0000 0.54663  0.14476  0.53152  Biso   1.000  O
  O85      1.0000 0.00363  0.54095  0.37370  Biso   1.000  O
  O86      1.0000 0.34332  0.98628  0.57490  Biso   1.000  O
  O87      1.0000 0.55032  0.33776  0.03664  Biso   1.000  O
  O88      1.0000 0.49782  0.54004  0.18410  Biso   1.000  O
  O89      1.0000 0.85079  0.99322  0.97704  Biso   1.000  O
  O90      1.0000 0.04329  0.33605  0.52936  Biso   1.000  O
  O91      1.0000 0.50878  0.04003  0.36706  Biso   1.000  O
  O92      1.0000 0.16260  0.49227  0.56539  Biso   1.000  O
  O93      1.0000 0.96918  0.84456  0.02755  Biso   1.000  O
  O94      1.0000 0.00696  0.04283  0.18222  Biso   1.000  O
  O95      1.0000 0.66574  0.49904  0.98973  Biso   1.000  O
  O96      1.0000 0.46135  0.83746  0.51360  Biso   1.000  O
  O97      1.0000 0.46219  0.19152  0.53829  Biso   1.000  O
  O98      1.0000 0.50161  0.45680  0.23272  Biso   1.000  O
  O99      1.0000 0.21168  0.49223  0.47944  Biso   1.000  O
  O100     1.0000 0.96489  0.20752  0.03223  Biso   1.000  O
  O101     1.0000 0.99181  0.45346  0.32590  Biso   1.000  O
  O102     1.0000 0.70913  0.48955  0.07350  Biso   1.000  O
  O103     1.0000 0.04286  0.69967  0.52253  Biso   1.000  O
  O104     1.0000 0.02310  0.96115  0.23624  Biso   1.000  O
  O105     1.0000 0.29988  0.98932  0.48999  Biso   1.000  O
  O106     1.0000 0.54816  0.69811  0.01264  Biso   1.000  O
  O107     1.0000 0.51082  0.95885  0.31829  Biso   1.000  O
  O108     1.0000 0.80031  0.99987  0.06436  Biso   1.000  O
  O109     1.0000 0.54885  0.78942  0.51777  Biso   1.000  O
  O110     1.0000 0.49844  0.52216  0.81979  Biso   1.000  O
  O111     1.0000 0.79523  0.49125  0.57680  Biso   1.000  O
  O112     1.0000 0.05401  0.79999  0.03188  Biso   1.000  O
  O113     1.0000 0.00893  0.53930  0.73592  Biso   1.000  O
  O114     1.0000 0.29776  0.50075  0.97711  Biso   1.000  O
  O115     1.0000 0.95932  0.29457  0.54108  Biso   1.000  O
  O116     1.0000 0.00151  0.03765  0.82606  Biso   1.000  O
  O117     1.0000 0.70857  0.98705  0.56231  Biso   1.000  O
  O118     1.0000 0.46813  0.28796  0.03087  Biso   1.000  O
  O119     1.0000 0.50970  0.02424  0.73139  Biso   1.000  O
  O120     1.0000 0.21177  0.99494  0.98434  Biso   1.000  O
  O121     1.0000 0.04932  0.49296  0.73124  Biso   1.000  O
  O122     1.0000 0.71310  0.03592  0.52155  Biso   1.000  O
  O123     1.0000 0.50994  0.69279  0.05571  Biso   1.000  O
  O124     1.0000 0.54925  0.49311  0.82743  Biso   1.000  O
  O125     1.0000 0.21186  0.04121  0.02830  Biso   1.000  O
  O126     1.0000 0.99620  0.69597  0.48687  Biso   1.000  O
  O127     1.0000 0.46318  0.98392  0.73025  Biso   1.000  O
  O128     1.0000 0.78997  0.53407  0.53553  Biso   1.000  O
  O129     1.0000 0.00267  0.20475  0.07449  Biso   1.000  O
  O130     1.0000 0.96282  0.00097  0.81817  Biso   1.000  O
  O131     1.0000 0.29707  0.53446  0.02503  Biso   1.000  O
  O132     1.0000 0.50072  0.19648  0.49384  Biso   1.000  O
  O133     1.0000 0.95703  0.50221  0.32655  Biso   1.000  O
  O134     1.0000 0.29806  0.94956  0.53032  Biso   1.000  O
  O135     1.0000 0.51164  0.28313  0.99580  Biso   1.000  O
  O136     1.0000 0.45792  0.49621  0.23042  Biso   1.000  O
  O137     1.0000 0.80148  0.95600  0.02300  Biso   1.000  O
  O138     1.0000 0.00728  0.29088  0.57579  Biso   1.000  O
  O139     1.0000 0.55028  0.00473  0.31513  Biso   1.000  O
  O140     1.0000 0.21113  0.44664  0.52260  Biso   1.000  O
  O141     1.0000 0.01773  0.80028  0.99028  Biso   1.000  O
  O142     1.0000 0.05171  0.00819  0.23622  Biso   1.000  O
  O143     1.0000 0.71264  0.45194  0.03221  Biso   1.000  O
  O144     1.0000 0.50435  0.78916  0.55418  Biso   1.000  O
  O145     1.0000 0.54320  0.49878  0.23713  Biso   1.000  O
  O146     1.0000 0.20839  0.53307  0.51461  Biso   1.000  O
  O147     1.0000 0.50300  0.19132  0.58026  Biso   1.000  O
  O148     1.0000 0.04078  0.48699  0.32267  Biso   1.000  O
  O149     1.0000 0.70740  0.53591  0.03782  Biso   1.000  O
  O150     1.0000 0.00856  0.20418  0.99082  Biso   1.000  O
  O151     1.0000 0.96966  0.99218  0.22922  Biso   1.000  O
  O152     1.0000 0.29657  0.03124  0.53605  Biso   1.000  O
  O153     1.0000 0.00379  0.70000  0.56719  Biso   1.000  O
  O154     1.0000 0.46399  0.00337  0.32217  Biso   1.000  O
  O155     1.0000 0.80722  0.03971  0.01827  Biso   1.000  O
  O156     1.0000 0.50544  0.69504  0.97152  Biso   1.000  O
  O157     1.0000 0.46917  0.47704  0.82338  Biso   1.000  O
  O158     1.0000 0.79219  0.44920  0.53397  Biso   1.000  O
  O159     1.0000 0.50698  0.78797  0.47310  Biso   1.000  O
  O160     1.0000 0.96309  0.50017  0.73333  Biso   1.000  O
  O161     1.0000 0.29757  0.45145  0.00847  Biso   1.000  O
  O162     1.0000 0.01076  0.80009  0.07397  Biso   1.000  O
  O163     1.0000 0.04465  0.99409  0.82559  Biso   1.000  O
  O164     1.0000 0.71188  0.95380  0.51033  Biso   1.000  O
  O165     1.0000 0.99813  0.29091  0.49142  Biso   1.000  O
  O166     1.0000 0.54722  0.98057  0.72612  Biso   1.000  O
  O167     1.0000 0.21875  0.95798  0.03152  Biso   1.000  O
  O168     1.0000 0.50280  0.29048  0.07961  Biso   1.000  O
  O169     1.0000 0.00014  0.03889  0.23090  Biso   1.000  O
  O170     1.0000 0.21555  0.99578  0.06984  Biso   1.000  O
  O171     1.0000 0.04767  0.20389  0.03826  Biso   1.000  O
  O172     1.0000 0.50911  0.04685  0.31971  Biso   1.000  O
  O173     1.0000 0.71415  0.99979  0.47659  Biso   1.000  O
  O174     1.0000 0.54501  0.19398  0.53565  Biso   1.000  O
  O175     1.0000 0.49984  0.54004  0.23286  Biso   1.000  O
  O176     1.0000 0.30120  0.48476  0.05953  Biso   1.000  O
  O177     1.0000 0.46389  0.69876  0.01456  Biso   1.000  O
  O178     1.0000 0.00774  0.53581  0.32509  Biso   1.000  O
  O179     1.0000 0.79566  0.48983  0.49118  Biso   1.000  O
  O180     1.0000 0.95785  0.69424  0.53276  Biso   1.000  O
  O181     1.0000 0.00371  0.95367  0.82075  Biso   1.000  O
  O182     1.0000 0.80309  0.99680  0.98206  Biso   1.000  O
  O183     1.0000 0.97003  0.79576  0.03116  Biso   1.000  O
  O184     1.0000 0.50076  0.94068  0.72772  Biso   1.000  O
  O185     1.0000 0.29365  0.98635  0.57507  Biso   1.000  O
  O186     1.0000 0.46227  0.78925  0.51080  Biso   1.000  O
  O187     1.0000 0.51860  0.44082  0.82877  Biso   1.000  O
  O188     1.0000 0.71508  0.49902  0.99395  Biso   1.000  O
  O189     1.0000 0.55176  0.28938  0.04625  Biso   1.000  O
  O190     1.0000 0.00126  0.45635  0.74102  Biso   1.000  O
  O191     1.0000 0.21238  0.49288  0.56554  Biso   1.000  O
  O192     1.0000 0.04163  0.28925  0.53293  Biso   1.000  O
