data_image0
_cell_length_a       46.9911
_cell_length_b       46.6328
_cell_length_c       46.5974
_cell_angle_alpha    90
_cell_angle_beta     90
_cell_angle_gamma    90

_symmetry_space_group_name_H-M    "P 1"
_symmetry_int_tables_number       1

loop_
  _symmetry_equiv_pos_as_xyz
  'x, y, z'

loop_
  _atom_site_label
  _atom_site_occupancy
  _atom_site_fract_x
  _atom_site_fract_y
  _atom_site_fract_z
  _atom_site_thermal_displace_type
  _atom_site_B_iso_or_equiv
  _atom_site_type_symbol
  C1       1.0000 0.56262  0.96905  0.32562  Biso   1.000  C
  C2       1.0000 0.33752  0.53725  0.00903  Biso   1.000  C
  C3       1.0000 0.02470  0.29626  0.55816  Biso   1.000  C
  C4       1.0000 0.06851  0.00052  0.18490  Biso   1.000  C
  C5       1.0000 0.83463  0.52521  0.50001  Biso   1.000  C
  C6       1.0000 0.52259  0.30359  0.94029  Biso   1.000  C
  C7       1.0000 0.96383  0.48986  0.32004  Biso   1.000  C
  C8       1.0000 0.19981  0.03492  0.00304  Biso   1.000  C
  C9       1.0000 0.51728  0.79893  0.55878  Biso   1.000  C
  C10      1.0000 0.46736  0.47423  0.18736  Biso   1.000  C
  C11      1.0000 0.69651  0.02974  0.50013  Biso   1.000  C
  C12      1.0000 0.01444  0.80536  0.95064  Biso   1.000  C
  C13      1.0000 0.46477  0.98076  0.68141  Biso   1.000  C
  C14      1.0000 0.69933  0.43040  0.98988  Biso   1.000  C
  C15      1.0000 0.01369  0.65997  0.44745  Biso   1.000  C
  C16      1.0000 0.96353  0.98253  0.81833  Biso   1.000  C
  C17      1.0000 0.19997  0.43159  0.50969  Biso   1.000  C
  C18      1.0000 0.51693  0.66508  0.06510  Biso   1.000  C
  C19      1.0000 0.07046  0.47858  0.68566  Biso   1.000  C
  C20      1.0000 0.84181  0.93298  0.99005  Biso   1.000  C
  C21      1.0000 0.52687  0.16053  0.44438  Biso   1.000  C
  C22      1.0000 0.56874  0.49150  0.81519  Biso   1.000  C
  C23      1.0000 0.33630  0.93246  0.48913  Biso   1.000  C
  C24      1.0000 0.02321  0.16493  0.05778  Biso   1.000  C
  C25      1.0000 0.33483  0.03483  0.51702  Biso   1.000  C
  C26      1.0000 0.51885  0.29543  0.04766  Biso   1.000  C
  C27      1.0000 0.07306  0.47631  0.32326  Biso   1.000  C
  C28      1.0000 0.83663  0.03963  0.01194  Biso   1.000  C
  C29      1.0000 0.02055  0.29864  0.45001  Biso   1.000  C
  C30      1.0000 0.57524  0.47807  0.17627  Biso   1.000  C
  C31      1.0000 0.19818  0.54073  0.50686  Biso   1.000  C
  C32      1.0000 0.02443  0.80600  0.05886  Biso   1.000  C
  C33      1.0000 0.45590  0.98856  0.32413  Biso   1.000  C
  C34      1.0000 0.70010  0.54117  0.99156  Biso   1.000  C
  C35      1.0000 0.50558  0.80197  0.45077  Biso   1.000  C
  C36      1.0000 0.95998  0.97991  0.18375  Biso   1.000  C
  C37      1.0000 0.69855  0.91971  0.48719  Biso   1.000  C
  C38      1.0000 0.52466  0.66217  0.95461  Biso   1.000  C
  C39      1.0000 0.96037  0.48489  0.68370  Biso   1.000  C
  C40      1.0000 0.19591  0.92719  0.01409  Biso   1.000  C
  C41      1.0000 0.01288  0.65743  0.55865  Biso   1.000  C
  C42      1.0000 0.46164  0.47633  0.82111  Biso   1.000  C
  C43      1.0000 0.84255  0.41838  0.50356  Biso   1.000  C
  C44      1.0000 0.01397  0.16270  0.94840  Biso   1.000  C
  C45      1.0000 0.57053  0.98951  0.67747  Biso   1.000  C
  C46      1.0000 0.33539  0.42748  0.00617  Biso   1.000  C
  C47      1.0000 0.51321  0.16303  0.55244  Biso   1.000  C
  C48      1.0000 0.07357  0.98748  0.82082  Biso   1.000  C
  C49      1.0000 0.01322  0.03729  0.81951  Biso   1.000  C
  C50      1.0000 0.83910  0.97653  0.05435  Biso   1.000  C
  C51      1.0000 0.07153  0.79988  0.00219  Biso   1.000  C
  C52      1.0000 0.51273  0.03738  0.67974  Biso   1.000  C
  C53      1.0000 0.33148  0.99807  0.45455  Biso   1.000  C
  C54      1.0000 0.56678  0.80070  0.50008  Biso   1.000  C
  C55      1.0000 0.50936  0.53913  0.82265  Biso   1.000  C
  C56      1.0000 0.70448  0.47992  0.04653  Biso   1.000  C
  C57      1.0000 0.46445  0.30447  0.99086  Biso   1.000  C
  C58      1.0000 0.01844  0.53704  0.68597  Biso   1.000  C
  C59      1.0000 0.19895  0.48566  0.45417  Biso   1.000  C
  C60      1.0000 0.97024  0.29352  0.50923  Biso   1.000  C
  C61      1.0000 0.02386  0.93512  0.18338  Biso   1.000  C
  C62      1.0000 0.19509  0.97397  0.95171  Biso   1.000  C
  C63      1.0000 0.96606  0.16506  0.00905  Biso   1.000  C
  C64      1.0000 0.50179  0.92895  0.32394  Biso   1.000  C
  C65      1.0000 0.69775  0.96648  0.55018  Biso   1.000  C
  C66      1.0000 0.46605  0.16066  0.49445  Biso   1.000  C
  C67      1.0000 0.52288  0.42255  0.17706  Biso   1.000  C
  C68      1.0000 0.33484  0.48349  0.95341  Biso   1.000  C
  C69      1.0000 0.57382  0.66228  0.01274  Biso   1.000  C
  C70      1.0000 0.01301  0.42862  0.32791  Biso   1.000  C
  C71      1.0000 0.83524  0.47294  0.55308  Biso   1.000  C
  C72      1.0000 0.06880  0.66242  0.50349  Biso   1.000  C
  C73      1.0000 0.02796  0.53859  0.32133  Biso   1.000  C
  C74      1.0000 0.33558  0.97022  0.56080  Biso   1.000  C
  C75      1.0000 0.57506  0.29924  0.99909  Biso   1.000  C
  C76      1.0000 0.52201  0.53256  0.18203  Biso   1.000  C
  C77      1.0000 0.83593  0.99552  0.94424  Biso   1.000  C
  C78      1.0000 0.07670  0.29587  0.50188  Biso   1.000  C
  C79      1.0000 0.52118  0.03561  0.32099  Biso   1.000  C
  C80      1.0000 0.19954  0.48429  0.56308  Biso   1.000  C
  C81      1.0000 0.96450  0.80828  0.00230  Biso   1.000  C
  C82      1.0000 0.00505  0.04108  0.18470  Biso   1.000  C
  C83      1.0000 0.69932  0.48259  0.93424  Biso   1.000  C
  C84      1.0000 0.45754  0.79739  0.50699  Biso   1.000  C
  C85      1.0000 0.01493  0.42856  0.68011  Biso   1.000  C
  C86      1.0000 0.69509  0.97981  0.44131  Biso   1.000  C
  C87      1.0000 0.46556  0.66097  0.00671  Biso   1.000  C
  C88      1.0000 0.52015  0.43192  0.81782  Biso   1.000  C
  C89      1.0000 0.19861  0.98479  0.06212  Biso   1.000  C
  C90      1.0000 0.95729  0.65650  0.50194  Biso   1.000  C
  C91      1.0000 0.52209  0.92973  0.68479  Biso   1.000  C
  C92      1.0000 0.83740  0.46689  0.44467  Biso   1.000  C
  C93      1.0000 0.07627  0.16504  0.99800  Biso   1.000  C
  C94      1.0000 0.01583  0.92844  0.81915  Biso   1.000  C
  C95      1.0000 0.33469  0.48075  0.06357  Biso   1.000  C
  C96      1.0000 0.57263  0.15952  0.50546  Biso   1.000  C
  C97      1.0000 0.69740  0.06094  0.49397  Biso   1.000  C
  C98      1.0000 0.51521  0.66567  0.09798  Biso   1.000  C
  C99      1.0000 0.10310  0.47463  0.68738  Biso   1.000  C
  C100     1.0000 0.20017  0.06717  0.00109  Biso   1.000  C
  C101     1.0000 0.01339  0.66156  0.41596  Biso   1.000  C
  C102     1.0000 0.60053  0.49650  0.81298  Biso   1.000  C
  C103     1.0000 0.83397  0.55791  0.49912  Biso   1.000  C
  C104     1.0000 0.02574  0.16404  0.08965  Biso   1.000  C
  C105     1.0000 0.43365  0.97574  0.68357  Biso   1.000  C
  C106     1.0000 0.33650  0.56864  0.00751  Biso   1.000  C
  C107     1.0000 0.52997  0.16058  0.41287  Biso   1.000  C
  C108     1.0000 0.93161  0.98483  0.81879  Biso   1.000  C
  C109     1.0000 0.33627  0.89950  0.48441  Biso   1.000  C
  C110     1.0000 0.52753  0.30402  0.90909  Biso   1.000  C
  C111     1.0000 0.93242  0.48990  0.31966  Biso   1.000  C
  C112     1.0000 0.84009  0.89999  0.98868  Biso   1.000  C
  C113     1.0000 0.02339  0.29738  0.59088  Biso   1.000  C
  C114     1.0000 0.43544  0.46984  0.18722  Biso   1.000  C
  C115     1.0000 0.20269  0.39896  0.50743  Biso   1.000  C
  C116     1.0000 0.00976  0.80649  0.91715  Biso   1.000  C
  C117     1.0000 0.59517  0.96447  0.32322  Biso   1.000  C
  C118     1.0000 0.70261  0.39899  0.98870  Biso   1.000  C
  C119     1.0000 0.51385  0.80032  0.59088  Biso   1.000  C
  C120     1.0000 0.10095  0.00420  0.18547  Biso   1.000  C
  C121     1.0000 0.84052  0.97979  0.08548  Biso   1.000  C
  C122     1.0000 0.10301  0.79994  0.00676  Biso   1.000  C
  C123     1.0000 0.01545  0.06914  0.81950  Biso   1.000  C
  C124     1.0000 0.32954  0.99579  0.42244  Biso   1.000  C
  C125     1.0000 0.59857  0.79840  0.49547  Biso   1.000  C
  C126     1.0000 0.50530  0.06883  0.67918  Biso   1.000  C
  C127     1.0000 0.70346  0.47149  0.07774  Biso   1.000  C
  C128     1.0000 0.43241  0.30664  0.98744  Biso   1.000  C
  C129     1.0000 0.50912  0.57045  0.82162  Biso   1.000  C
  C130     1.0000 0.19543  0.48170  0.42155  Biso   1.000  C
  C131     1.0000 0.93798  0.29124  0.51030  Biso   1.000  C
  C132     1.0000 0.01762  0.56851  0.68584  Biso   1.000  C
  C133     1.0000 0.19552  0.97054  0.92065  Biso   1.000  C
  C134     1.0000 0.93293  0.16343  0.00906  Biso   1.000  C
  C135     1.0000 0.02559  0.90278  0.18322  Biso   1.000  C
  C136     1.0000 0.69920  0.96948  0.58208  Biso   1.000  C
  C137     1.0000 0.43402  0.15839  0.49467  Biso   1.000  C
  C138     1.0000 0.50019  0.89767  0.32399  Biso   1.000  C
  C139     1.0000 0.33541  0.48576  0.92190  Biso   1.000  C
  C140     1.0000 0.60561  0.66250  0.01068  Biso   1.000  C
  C141     1.0000 0.52466  0.38942  0.17580  Biso   1.000  C
  C142     1.0000 0.83301  0.47674  0.58575  Biso   1.000  C
  C143     1.0000 0.09969  0.66350  0.49889  Biso   1.000  C
  C144     1.0000 0.01320  0.39654  0.32776  Biso   1.000  C
  C145     1.0000 0.33445  0.48052  0.09635  Biso   1.000  C
  C146     1.0000 0.11060  0.29788  0.49929  Biso   1.000  C
  C147     1.0000 0.52471  0.06685  0.31983  Biso   1.000  C
  C148     1.0000 0.83664  0.46779  0.41143  Biso   1.000  C
  C149     1.0000 0.60749  0.30134  0.00150  Biso   1.000  C
  C150     1.0000 0.00496  0.07284  0.18436  Biso   1.000  C
  C151     1.0000 0.19834  0.99031  0.09484  Biso   1.000  C
  C152     1.0000 0.42459  0.79801  0.50080  Biso   1.000  C
  C153     1.0000 0.02859  0.57073  0.32222  Biso   1.000  C
  C154     1.0000 0.69366  0.98396  0.41009  Biso   1.000  C
  C155     1.0000 0.93441  0.80746  0.99277  Biso   1.000  C
  C156     1.0000 0.52228  0.56387  0.18352  Biso   1.000  C
  C157     1.0000 0.69889  0.48207  0.90304  Biso   1.000  C
  C158     1.0000 0.92434  0.65558  0.50454  Biso   1.000  C
  C159     1.0000 0.51993  0.89693  0.68466  Biso   1.000  C
  C160     1.0000 0.19810  0.48318  0.59630  Biso   1.000  C
  C161     1.0000 0.43333  0.66053  0.00723  Biso   1.000  C
  C162     1.0000 0.00534  0.89869  0.81888  Biso   1.000  C
  C163     1.0000 0.83585  0.99204  0.91224  Biso   1.000  C
  C164     1.0000 0.60383  0.15872  0.50357  Biso   1.000  C
  C165     1.0000 0.01616  0.39613  0.68266  Biso   1.000  C
  C166     1.0000 0.33720  0.96969  0.59251  Biso   1.000  C
  C167     1.0000 0.10781  0.16283  0.99360  Biso   1.000  C
  C168     1.0000 0.52562  0.40065  0.81693  Biso   1.000  C
  C169     1.0000 0.02931  0.80503  0.09107  Biso   1.000  C
  C170     1.0000 0.10587  0.99109  0.82366  Biso   1.000  C
  C171     1.0000 0.83738  0.07125  0.02102  Biso   1.000  C
  C172     1.0000 0.50576  0.80185  0.41900  Biso   1.000  C
  C173     1.0000 0.60247  0.99257  0.67821  Biso   1.000  C
  C174     1.0000 0.33424  0.06690  0.51777  Biso   1.000  C
  C175     1.0000 0.51692  0.29454  0.07982  Biso   1.000  C
  C176     1.0000 0.42966  0.47694  0.82440  Biso   1.000  C
  C177     1.0000 0.70112  0.57251  0.98951  Biso   1.000  C
  C178     1.0000 0.01951  0.29869  0.41727  Biso   1.000  C
  C179     1.0000 0.92789  0.48766  0.68098  Biso   1.000  C
  C180     1.0000 0.19676  0.57285  0.50173  Biso   1.000  C
  C181     1.0000 0.01127  0.16358  0.91561  Biso   1.000  C
  C182     1.0000 0.92906  0.97689  0.18433  Biso   1.000  C
  C183     1.0000 0.19572  0.89540  0.01909  Biso   1.000  C
  C184     1.0000 0.50700  0.16348  0.58294  Biso   1.000  C
  C185     1.0000 0.42384  0.99023  0.32528  Biso   1.000  C
  C186     1.0000 0.69975  0.88761  0.48631  Biso   1.000  C
  C187     1.0000 0.52625  0.66065  0.92236  Biso   1.000  C
  C188     1.0000 0.60757  0.47443  0.17470  Biso   1.000  C
  C189     1.0000 0.33524  0.39617  0.99981  Biso   1.000  C
  C190     1.0000 0.01194  0.65835  0.59005  Biso   1.000  C
  C191     1.0000 0.10490  0.47339  0.32485  Biso   1.000  C
  C192     1.0000 0.84267  0.38548  0.50439  Biso   1.000  C
  C193     1.0000 0.86260  0.99063  0.89728  Biso   1.000  C
  C194     1.0000 0.91909  0.83538  0.99127  Biso   1.000  C
  C195     1.0000 0.00346  0.88286  0.84632  Biso   1.000  C
  C196     1.0000 0.36521  0.96977  0.60806  Biso   1.000  C
  C197     1.0000 0.40972  0.82614  0.49901  Biso   1.000  C
  C198     1.0000 0.51605  0.88097  0.65730  Biso   1.000  C
  C199     1.0000 0.67098  0.48401  0.88776  Biso   1.000  C
  C200     1.0000 0.62255  0.32903  0.99737  Biso   1.000  C
  C201     1.0000 0.52924  0.38363  0.84287  Biso   1.000  C
  C202     1.0000 0.17164  0.48204  0.61203  Biso   1.000  C
  C203     1.0000 0.12556  0.32589  0.50066  Biso   1.000  C
  C204     1.0000 0.02132  0.37868  0.65677  Biso   1.000  C
  C205     1.0000 0.17053  0.99160  0.10966  Biso   1.000  C
  C206     1.0000 0.12318  0.13513  0.99601  Biso   1.000  C
  C207     1.0000 0.00929  0.08855  0.15631  Biso   1.000  C
  C208     1.0000 0.66593  0.97986  0.39604  Biso   1.000  C
  C209     1.0000 0.61914  0.13124  0.49935  Biso   1.000  C
  C210     1.0000 0.52878  0.08221  0.34588  Biso   1.000  C
  C211     1.0000 0.36265  0.47623  0.11135  Biso   1.000  C
  C212     1.0000 0.41651  0.63455  0.00350  Biso   1.000  C
  C213     1.0000 0.51730  0.58072  0.15792  Biso   1.000  C
  C214     1.0000 0.86349  0.47465  0.39628  Biso   1.000  C
  C215     1.0000 0.90985  0.62748  0.50673  Biso   1.000  C
  C216     1.0000 0.02533  0.58456  0.34966  Biso   1.000  C
  C217     1.0000 0.12036  0.98929  0.85227  Biso   1.000  C
  C218     1.0000 0.86512  0.08747  0.02078  Biso   1.000  C
  C219     1.0000 0.02840  0.83253  0.10627  Biso   1.000  C
  C220     1.0000 0.61984  0.98922  0.65060  Biso   1.000  C
  C221     1.0000 0.36114  0.08187  0.51415  Biso   1.000  C
  C222     1.0000 0.50343  0.82806  0.40353  Biso   1.000  C
  C223     1.0000 0.41481  0.47856  0.85229  Biso   1.000  C
  C224     1.0000 0.67537  0.58844  0.99153  Biso   1.000  C
  C225     1.0000 0.51742  0.32049  0.09647  Biso   1.000  C
  C226     1.0000 0.91259  0.48136  0.65418  Biso   1.000  C
  C227     1.0000 0.16922  0.58820  0.49902  Biso   1.000  C
  C228     1.0000 0.01259  0.32534  0.40298  Biso   1.000  C
  C229     1.0000 0.91429  0.97924  0.15703  Biso   1.000  C
  C230     1.0000 0.17002  0.87711  0.01846  Biso   1.000  C
  C231     1.0000 0.01133  0.13631  0.89808  Biso   1.000  C
  C232     1.0000 0.40628  0.98935  0.35237  Biso   1.000  C
  C233     1.0000 0.67252  0.87307  0.49065  Biso   1.000  C
  C234     1.0000 0.50439  0.13654  0.59902  Biso   1.000  C
  C235     1.0000 0.62481  0.47671  0.14795  Biso   1.000  C
  C236     1.0000 0.36244  0.38185  0.99866  Biso   1.000  C
  C237     1.0000 0.52195  0.63417  0.90450  Biso   1.000  C
  C238     1.0000 0.11935  0.47617  0.35158  Biso   1.000  C
  C239     1.0000 0.86985  0.36942  0.50633  Biso   1.000  C
  C240     1.0000 0.01150  0.63119  0.60649  Biso   1.000  C
  C241     1.0000 0.61861  0.49311  0.83938  Biso   1.000  C
  C242     1.0000 0.86052  0.57451  0.50412  Biso   1.000  C
  C243     1.0000 0.51143  0.82758  0.60615  Biso   1.000  C
  C244     1.0000 0.12005  0.47561  0.66162  Biso   1.000  C
  C245     1.0000 0.36239  0.58616  0.00328  Biso   1.000  C
  C246     1.0000 0.00912  0.83345  0.90080  Biso   1.000  C
  C247     1.0000 0.91461  0.98408  0.84589  Biso   1.000  C
  C248     1.0000 0.67090  0.07701  0.49467  Biso   1.000  C
  C249     1.0000 0.02810  0.32471  0.60728  Biso   1.000  C
  C250     1.0000 0.41628  0.97390  0.65762  Biso   1.000  C
  C251     1.0000 0.17433  0.08294  0.99844  Biso   1.000  C
  C252     1.0000 0.52590  0.33192  0.89308  Biso   1.000  C
  C253     1.0000 0.41843  0.47210  0.16011  Biso   1.000  C
  C254     1.0000 0.17659  0.38088  0.50776  Biso   1.000  C
  C255     1.0000 0.53051  0.13370  0.39656  Biso   1.000  C
  C256     1.0000 0.91727  0.48547  0.34654  Biso   1.000  C
  C257     1.0000 0.67472  0.38267  0.99063  Biso   1.000  C
  C258     1.0000 0.01967  0.13799  0.10529  Biso   1.000  C
  C259     1.0000 0.11772  0.99771  0.15946  Biso   1.000  C
  C260     1.0000 0.36163  0.88141  0.48800  Biso   1.000  C
  C261     1.0000 0.01764  0.63490  0.40070  Biso   1.000  C
  C262     1.0000 0.61271  0.96875  0.34878  Biso   1.000  C
  C263     1.0000 0.86716  0.88457  0.98884  Biso   1.000  C
  C264     1.0000 0.51533  0.63610  0.11103  Biso   1.000  C
  C265     1.0000 0.01347  0.08430  0.84787  Biso   1.000  C
  C266     1.0000 0.86683  0.97977  0.10189  Biso   1.000  C
  C267     1.0000 0.11896  0.82651  0.00971  Biso   1.000  C
  C268     1.0000 0.50396  0.08347  0.65099  Biso   1.000  C
  C269     1.0000 0.35517  0.99480  0.40394  Biso   1.000  C
  C270     1.0000 0.61636  0.82391  0.49597  Biso   1.000  C
  C271     1.0000 0.51297  0.58545  0.85036  Biso   1.000  C
  C272     1.0000 0.67681  0.47209  0.09574  Biso   1.000  C
  C273     1.0000 0.41619  0.33310  0.98995  Biso   1.000  C
  C274     1.0000 0.01869  0.58347  0.65832  Biso   1.000  C
  C275     1.0000 0.16889  0.48190  0.40480  Biso   1.000  C
  C276     1.0000 0.92291  0.31883  0.50866  Biso   1.000  C
  C277     1.0000 0.02883  0.88553  0.15711  Biso   1.000  C
  C278     1.0000 0.16976  0.97617  0.90472  Biso   1.000  C
  C279     1.0000 0.91758  0.13726  0.01517  Biso   1.000  C
  C280     1.0000 0.50306  0.88233  0.35160  Biso   1.000  C
  C281     1.0000 0.67120  0.97343  0.59842  Biso   1.000  C
  C282     1.0000 0.41780  0.13194  0.50177  Biso   1.000  C
  C283     1.0000 0.51997  0.37472  0.14847  Biso   1.000  C
  C284     1.0000 0.36309  0.48235  0.90631  Biso   1.000  C
  C285     1.0000 0.62175  0.63631  0.00564  Biso   1.000  C
  C286     1.0000 0.01288  0.37918  0.35500  Biso   1.000  C
  C287     1.0000 0.85977  0.47713  0.60046  Biso   1.000  C
  C288     1.0000 0.11664  0.63748  0.49689  Biso   1.000  C
  C289     1.0000 0.35929  0.85035  0.49008  Biso   1.000  C
  C290     1.0000 0.52811  0.33031  0.86238  Biso   1.000  C
  C291     1.0000 0.88674  0.48131  0.34439  Biso   1.000  C
  C292     1.0000 0.86662  0.85416  0.98669  Biso   1.000  C
  C293     1.0000 0.02167  0.32437  0.63768  Biso   1.000  C
  C294     1.0000 0.38675  0.47042  0.16187  Biso   1.000  C
  C295     1.0000 0.17932  0.34981  0.50401  Biso   1.000  C
  C296     1.0000 0.01127  0.83200  0.86990  Biso   1.000  C
  C297     1.0000 0.64339  0.97376  0.34503  Biso   1.000  C
  C298     1.0000 0.67478  0.35204  0.99592  Biso   1.000  C
  C299     1.0000 0.51084  0.82689  0.63740  Biso   1.000  C
  C300     1.0000 0.14958  0.00194  0.16133  Biso   1.000  C
  C301     1.0000 0.67299  0.10936  0.49454  Biso   1.000  C
  C302     1.0000 0.51994  0.63450  0.14250  Biso   1.000  C
  C303     1.0000 0.15138  0.47356  0.66312  Biso   1.000  C
  C304     1.0000 0.17663  0.11420  0.99693  Biso   1.000  C
  C305     1.0000 0.01944  0.63618  0.36931  Biso   1.000  C
  C306     1.0000 0.64957  0.49209  0.83695  Biso   1.000  C
  C307     1.0000 0.85813  0.60507  0.49994  Biso   1.000  C
  C308     1.0000 0.01963  0.13927  0.13659  Biso   1.000  C
  C309     1.0000 0.38558  0.97112  0.65902  Biso   1.000  C
  C310     1.0000 0.36280  0.61621  0.00641  Biso   1.000  C
  C311     1.0000 0.52902  0.13383  0.36457  Biso   1.000  C
  C312     1.0000 0.88346  0.98166  0.84576  Biso   1.000  C
  C313     1.0000 0.17145  0.47815  0.37354  Biso   1.000  C
  C314     1.0000 0.38506  0.13157  0.50182  Biso   1.000  C
  C315     1.0000 0.51965  0.34202  0.14903  Biso   1.000  C
  C316     1.0000 0.67794  0.47220  0.12711  Biso   1.000  C
  C317     1.0000 0.88608  0.14008  0.01463  Biso   1.000  C
  C318     1.0000 0.01421  0.34728  0.35186  Biso   1.000  C
  C319     1.0000 0.35418  0.99623  0.37322  Biso   1.000  C
  C320     1.0000 0.14791  0.64003  0.49730  Biso   1.000  C
  C321     1.0000 0.02630  0.85250  0.15838  Biso   1.000  C
  C322     1.0000 0.86302  0.98013  0.13359  Biso   1.000  C
  C323     1.0000 0.65299  0.63954  0.00222  Biso   1.000  C
  C324     1.0000 0.50442  0.85072  0.35087  Biso   1.000  C
  C325     1.0000 0.85962  0.48167  0.63219  Biso   1.000  C
  C326     1.0000 0.64701  0.82134  0.49319  Biso   1.000  C
  C327     1.0000 0.51524  0.61761  0.85068  Biso   1.000  C
  C328     1.0000 0.36397  0.48173  0.87482  Biso   1.000  C
  C329     1.0000 0.15099  0.82553  0.01262  Biso   1.000  C
  C330     1.0000 0.01299  0.61428  0.65911  Biso   1.000  C
  C331     1.0000 0.67253  0.98157  0.62950  Biso   1.000  C
  C332     1.0000 0.89137  0.31767  0.50690  Biso   1.000  C
  C333     1.0000 0.01098  0.11575  0.84598  Biso   1.000  C
  C334     1.0000 0.17252  0.98126  0.87298  Biso   1.000  C
  C335     1.0000 0.38456  0.33135  0.98697  Biso   1.000  C
  C336     1.0000 0.50661  0.11410  0.65232  Biso   1.000  C
  C337     1.0000 0.67116  0.48943  0.85722  Biso   1.000  C
  C338     1.0000 0.87863  0.62766  0.50160  Biso   1.000  C
  C339     1.0000 0.51216  0.84902  0.65914  Biso   1.000  C
  C340     1.0000 0.17363  0.47562  0.64242  Biso   1.000  C
  C341     1.0000 0.38448  0.63752  0.00432  Biso   1.000  C
  C342     1.0000 0.00870  0.85260  0.84740  Biso   1.000  C
  C343     1.0000 0.86122  0.98380  0.86710  Biso   1.000  C
  C344     1.0000 0.65123  0.13131  0.49580  Biso   1.000  C
  C345     1.0000 0.02094  0.34700  0.65796  Biso   1.000  C
  C346     1.0000 0.36367  0.96847  0.63872  Biso   1.000  C
  C347     1.0000 0.15512  0.13580  0.99434  Biso   1.000  C
  C348     1.0000 0.52842  0.35234  0.84147  Biso   1.000  C
  C349     1.0000 0.36348  0.47213  0.14255  Biso   1.000  C
  C350     1.0000 0.15831  0.32711  0.50244  Biso   1.000  C
  C351     1.0000 0.52929  0.11329  0.34364  Biso   1.000  C
  C352     1.0000 0.86457  0.47591  0.36546  Biso   1.000  C
  C353     1.0000 0.65409  0.33057  0.99869  Biso   1.000  C
  C354     1.0000 0.01612  0.11798  0.15784  Biso   1.000  C
  C355     1.0000 0.17243  0.99741  0.14090  Biso   1.000  C
  C356     1.0000 0.37862  0.82738  0.49384  Biso   1.000  C
  C357     1.0000 0.02295  0.61540  0.34703  Biso   1.000  C
  C358     1.0000 0.66699  0.97805  0.36504  Biso   1.000  C
  C359     1.0000 0.88843  0.83315  0.98898  Biso   1.000  C
  C360     1.0000 0.52047  0.61160  0.16223  Biso   1.000  C
  C361     1.0000 0.00939  0.13733  0.86785  Biso   1.000  C
  C362     1.0000 0.88279  0.97947  0.15619  Biso   1.000  C
  C363     1.0000 0.17275  0.84631  0.01654  Biso   1.000  C
  C364     1.0000 0.50788  0.13566  0.63122  Biso   1.000  C
  C365     1.0000 0.37609  0.99460  0.35185  Biso   1.000  C
  C366     1.0000 0.67035  0.84154  0.49130  Biso   1.000  C
  C367     1.0000 0.52017  0.63663  0.87332  Biso   1.000  C
  C368     1.0000 0.65585  0.47112  0.14861  Biso   1.000  C
  C369     1.0000 0.36202  0.35134  0.99051  Biso   1.000  C
  C370     1.0000 0.01282  0.63502  0.63771  Biso   1.000  C
  C371     1.0000 0.15094  0.47708  0.35065  Biso   1.000  C
  C372     1.0000 0.86963  0.33802  0.50628  Biso   1.000  C
  C373     1.0000 0.02633  0.83049  0.13731  Biso   1.000  C
  C374     1.0000 0.15157  0.98616  0.85153  Biso   1.000  C
  C375     1.0000 0.86444  0.11927  0.01712  Biso   1.000  C
  C376     1.0000 0.50345  0.82815  0.37249  Biso   1.000  C
  C377     1.0000 0.65089  0.98677  0.65032  Biso   1.000  C
  C378     1.0000 0.36132  0.11170  0.50708  Biso   1.000  C
  C379     1.0000 0.52023  0.32059  0.12718  Biso   1.000  C
  C380     1.0000 0.38423  0.48136  0.85225  Biso   1.000  C
  C381     1.0000 0.67546  0.61915  0.99629  Biso   1.000  C
  C382     1.0000 0.01427  0.32395  0.37238  Biso   1.000  C
  C383     1.0000 0.88080  0.48514  0.65381  Biso   1.000  C
  C384     1.0000 0.16995  0.62002  0.49931  Biso   1.000  C
  C385     1.0000 0.20312  0.12846  0.99143  Biso   1.000  C
  C386     1.0000 0.02546  0.16698  0.15257  Biso   1.000  C
  C387     1.0000 0.16450  0.00945  0.18829  Biso   1.000  C
  C388     1.0000 0.69920  0.12495  0.49491  Biso   1.000  C
  C389     1.0000 0.53022  0.16209  0.34956  Biso   1.000  C
  C390     1.0000 0.65681  0.97191  0.31679  Biso   1.000  C
  C391     1.0000 0.33716  0.63216  0.01162  Biso   1.000  C
  C392     1.0000 0.52217  0.65987  0.16078  Biso   1.000  C
  C393     1.0000 0.37209  0.46423  0.18859  Biso   1.000  C
  C394     1.0000 0.83070  0.61976  0.49702  Biso   1.000  C
  C395     1.0000 0.01996  0.66302  0.35389  Biso   1.000  C
  C396     1.0000 0.87170  0.48047  0.31710  Biso   1.000  C
  C397     1.0000 0.83990  0.83894  0.98460  Biso   1.000  C
  C398     1.0000 0.01230  0.80432  0.85436  Biso   1.000  C
  C399     1.0000 0.86777  0.97930  0.81963  Biso   1.000  C
  C400     1.0000 0.33164  0.83602  0.48922  Biso   1.000  C
  C401     1.0000 0.51092  0.80063  0.65425  Biso   1.000  C
  C402     1.0000 0.36931  0.97240  0.68597  Biso   1.000  C
  C403     1.0000 0.70189  0.33663  0.99937  Biso   1.000  C
  C404     1.0000 0.52942  0.30409  0.84571  Biso   1.000  C
  C405     1.0000 0.66449  0.49693  0.80944  Biso   1.000  C
  C406     1.0000 0.20703  0.33576  0.50412  Biso   1.000  C
  C407     1.0000 0.01456  0.29883  0.65376  Biso   1.000  C
  C408     1.0000 0.16631  0.47183  0.68975  Biso   1.000  C
  C409     1.0000 0.16770  0.98851  0.82491  Biso   1.000  C
  C410     1.0000 0.83768  0.13427  0.01366  Biso   1.000  C
  C411     1.0000 0.02557  0.80370  0.15260  Biso   1.000  C
  C412     1.0000 0.66583  0.98928  0.67641  Biso   1.000  C
  C413     1.0000 0.33504  0.12734  0.50257  Biso   1.000  C
  C414     1.0000 0.50458  0.80116  0.35717  Biso   1.000  C
  C415     1.0000 0.36863  0.48082  0.82458  Biso   1.000  C
  C416     1.0000 0.70212  0.63606  0.99602  Biso   1.000  C
  C417     1.0000 0.52388  0.29400  0.14300  Biso   1.000  C
  C418     1.0000 0.86476  0.49343  0.67859  Biso   1.000  C
  C419     1.0000 0.19539  0.63732  0.50126  Biso   1.000  C
  C420     1.0000 0.01605  0.29873  0.35472  Biso   1.000  C
  C421     1.0000 0.86656  0.97694  0.18230  Biso   1.000  C
  C422     1.0000 0.19932  0.83168  0.01707  Biso   1.000  C
  C423     1.0000 0.00799  0.16382  0.85234  Biso   1.000  C
  C424     1.0000 0.36047  0.99798  0.32605  Biso   1.000  C
  C425     1.0000 0.69593  0.82455  0.48729  Biso   1.000  C
  C426     1.0000 0.51020  0.16307  0.64687  Biso   1.000  C
  C427     1.0000 0.67176  0.46770  0.17546  Biso   1.000  C
  C428     1.0000 0.33516  0.33470  0.98733  Biso   1.000  C
  C429     1.0000 0.52261  0.66432  0.85892  Biso   1.000  C
  C430     1.0000 0.16834  0.47221  0.32561  Biso   1.000  C
  C431     1.0000 0.84288  0.32107  0.50378  Biso   1.000  C
  C432     1.0000 0.00999  0.66275  0.65293  Biso   1.000  C
  C433     1.0000 0.01049  0.13102  0.81935  Biso   1.000  C
  C434     1.0000 0.83450  0.97770  0.14842  Biso   1.000  C
  C435     1.0000 0.16628  0.79842  0.01311  Biso   1.000  C
  C436     1.0000 0.50877  0.13011  0.67860  Biso   1.000  C
  C437     1.0000 0.32756  0.99985  0.35908  Biso   1.000  C
  C438     1.0000 0.66153  0.79356  0.48952  Biso   1.000  C
  C439     1.0000 0.51526  0.63363  0.82428  Biso   1.000  C
  C440     1.0000 0.70407  0.47008  0.14264  Biso   1.000  C
  C441     1.0000 0.37086  0.30339  0.98259  Biso   1.000  C
  C442     1.0000 0.01090  0.63086  0.68502  Biso   1.000  C
  C443     1.0000 0.19969  0.47565  0.35893  Biso   1.000  C
  C444     1.0000 0.87618  0.29020  0.50646  Biso   1.000  C
  C445     1.0000 0.02272  0.83622  0.18488  Biso   1.000  C
  C446     1.0000 0.19978  0.97996  0.85772  Biso   1.000  C
  C447     1.0000 0.87101  0.16672  0.01041  Biso   1.000  C
  C448     1.0000 0.50353  0.83474  0.32411  Biso   1.000  C
  C449     1.0000 0.69878  0.98219  0.64443  Biso   1.000  C
  C450     1.0000 0.37035  0.15778  0.49440  Biso   1.000  C
  C451     1.0000 0.52316  0.32633  0.17614  Biso   1.000  C
  C452     1.0000 0.33653  0.48384  0.85909  Biso   1.000  C
  C453     1.0000 0.66849  0.66665  0.00387  Biso   1.000  C
  C454     1.0000 0.01546  0.33201  0.32384  Biso   1.000  C
  C455     1.0000 0.83291  0.48991  0.64757  Biso   1.000  C
  C456     1.0000 0.16104  0.66739  0.49762  Biso   1.000  C
  C457     1.0000 0.02286  0.63174  0.32085  Biso   1.000  C
  C458     1.0000 0.33746  0.96714  0.65473  Biso   1.000  C
  C459     1.0000 0.66978  0.30380  0.00108  Biso   1.000  C
  C460     1.0000 0.52349  0.62551  0.18962  Biso   1.000  C
  C461     1.0000 0.83514  0.98294  0.84986  Biso   1.000  C
  C462     1.0000 0.17443  0.30098  0.50257  Biso   1.000  C
  C463     1.0000 0.52991  0.12948  0.31709  Biso   1.000  C
  C464     1.0000 0.19964  0.47354  0.65826  Biso   1.000  C
  C465     1.0000 0.87353  0.80542  0.98685  Biso   1.000  C
  C466     1.0000 0.01794  0.13435  0.18487  Biso   1.000  C
  C467     1.0000 0.69874  0.49228  0.84084  Biso   1.000  C
  C468     1.0000 0.36202  0.80143  0.49485  Biso   1.000  C
  C469     1.0000 0.01527  0.33276  0.68417  Biso   1.000  C
  C470     1.0000 0.69265  0.97901  0.34746  Biso   1.000  C
  C471     1.0000 0.37034  0.66414  0.00729  Biso   1.000  C
  C472     1.0000 0.52857  0.33799  0.81433  Biso   1.000  C
  C473     1.0000 0.19861  0.00264  0.15620  Biso   1.000  C
  C474     1.0000 0.86138  0.65319  0.49742  Biso   1.000  C
  C475     1.0000 0.51270  0.83493  0.68572  Biso   1.000  C
  C476     1.0000 0.83690  0.47304  0.34770  Biso   1.000  C
  C477     1.0000 0.17007  0.16336  0.99087  Biso   1.000  C
  C478     1.0000 0.00757  0.83574  0.82114  Biso   1.000  C
  C479     1.0000 0.33654  0.46996  0.15837  Biso   1.000  C
  C480     1.0000 0.66839  0.15883  0.49448  Biso   1.000  C
  C481     1.0000 0.37581  0.77275  0.50052  Biso   1.000  C
  C482     1.0000 0.52627  0.35372  0.78774  Biso   1.000  C
  C483     1.0000 0.80841  0.46797  0.36221  Biso   1.000  C
  C484     1.0000 0.88836  0.77910  0.98572  Biso   1.000  C
  C485     1.0000 0.01084  0.34888  0.71154  Biso   1.000  C
  C486     1.0000 0.31008  0.47220  0.14296  Biso   1.000  C
  C487     1.0000 0.15986  0.27342  0.50279  Biso   1.000  C
  C488     1.0000 0.00327  0.84965  0.79330  Biso   1.000  C
  C489     1.0000 0.72127  0.98437  0.36261  Biso   1.000  C
  C490     1.0000 0.65614  0.27566  0.00301  Biso   1.000  C
  C491     1.0000 0.51710  0.85214  0.71326  Biso   1.000  C
  C492     1.0000 0.22528  0.99894  0.14084  Biso   1.000  C
  C493     1.0000 0.65365  0.18671  0.49902  Biso   1.000  C
  C494     1.0000 0.52724  0.60872  0.21553  Biso   1.000  C
  C495     1.0000 0.22614  0.47648  0.64281  Biso   1.000  C
  C496     1.0000 0.15499  0.19101  0.98887  Biso   1.000  C
  C497     1.0000 0.02778  0.61771  0.29345  Biso   1.000  C
  C498     1.0000 0.72698  0.48845  0.85614  Biso   1.000  C
  C499     1.0000 0.87775  0.68142  0.50006  Biso   1.000  C
  C500     1.0000 0.01337  0.11972  0.21179  Biso   1.000  C
  C501     1.0000 0.31129  0.96586  0.63971  Biso   1.000  C
  C502     1.0000 0.38721  0.69189  0.01028  Biso   1.000  C
  C503     1.0000 0.52501  0.11272  0.29171  Biso   1.000  C
  C504     1.0000 0.80846  0.98470  0.86684  Biso   1.000  C
  C505     1.0000 0.64596  0.50355  0.78407  Biso   1.000  C
  C506     1.0000 0.80334  0.60295  0.49263  Biso   1.000  C
  C507     1.0000 0.51275  0.77382  0.63836  Biso   1.000  C
  C508     1.0000 0.14870  0.46820  0.71634  Biso   1.000  C
  C509     1.0000 0.30991  0.61702  0.01593  Biso   1.000  C
  C510     1.0000 0.01086  0.77816  0.87068  Biso   1.000  C
  C511     1.0000 0.88377  0.98023  0.79287  Biso   1.000  C
  C512     1.0000 0.72582  0.10731  0.49449  Biso   1.000  C
  C513     1.0000 0.01623  0.27137  0.63702  Biso   1.000  C
  C514     1.0000 0.38669  0.97673  0.71190  Biso   1.000  C
  C515     1.0000 0.23120  0.11176  0.99335  Biso   1.000  C
  C516     1.0000 0.53163  0.27719  0.86127  Biso   1.000  C
  C517     1.0000 0.38898  0.45774  0.21531  Biso   1.000  C
  C518     1.0000 0.23328  0.35231  0.50465  Biso   1.000  C
  C519     1.0000 0.53078  0.18946  0.36673  Biso   1.000  C
  C520     1.0000 0.88707  0.48903  0.29071  Biso   1.000  C
  C521     1.0000 0.73001  0.35163  0.99591  Biso   1.000  C
  C522     1.0000 0.03347  0.19228  0.13708  Biso   1.000  C
  C523     1.0000 0.14691  0.01499  0.21365  Biso   1.000  C
  C524     1.0000 0.30463  0.85277  0.48770  Biso   1.000  C
  C525     1.0000 0.01287  0.68946  0.36967  Biso   1.000  C
  C526     1.0000 0.63894  0.96334  0.29205  Biso   1.000  C
  C527     1.0000 0.81228  0.85455  0.98300  Biso   1.000  C
  C528     1.0000 0.52044  0.68807  0.14709  Biso   1.000  C
  C529     1.0000 0.81086  0.11725  0.01805  Biso   1.000  C
  C530     1.0000 0.02851  0.77631  0.13840  Biso   1.000  C
  C531     1.0000 0.15380  0.99290  0.79722  Biso   1.000  C
  C532     1.0000 0.30690  0.11134  0.50811  Biso   1.000  C
  C533     1.0000 0.50555  0.77388  0.37304  Biso   1.000  C
  C534     1.0000 0.65013  0.99219  0.70442  Biso   1.000  C
  C535     1.0000 0.72870  0.62011  0.98941  Biso   1.000  C
  C536     1.0000 0.52246  0.26656  0.12710  Biso   1.000  C
  C537     1.0000 0.38279  0.47858  0.79631  Biso   1.000  C
  C538     1.0000 0.22295  0.62218  0.50325  Biso   1.000  C
  C539     1.0000 0.01961  0.27167  0.36907  Biso   1.000  C
  C540     1.0000 0.88087  0.49988  0.70571  Biso   1.000  C
  C541     1.0000 0.22546  0.84925  0.02225  Biso   1.000  C
  C542     1.0000 0.00898  0.19061  0.86928  Biso   1.000  C
  C543     1.0000 0.88115  0.97747  0.21067  Biso   1.000  C
  C544     1.0000 0.72502  0.83883  0.48009  Biso   1.000  C
  C545     1.0000 0.50960  0.18909  0.62987  Biso   1.000  C
  C546     1.0000 0.37547  0.99665  0.29825  Biso   1.000  C
  C547     1.0000 0.30855  0.35101  0.99065  Biso   1.000  C
  C548     1.0000 0.52736  0.69091  0.87574  Biso   1.000  C
  C549     1.0000 0.65317  0.46527  0.20145  Biso   1.000  C
  C550     1.0000 0.81656  0.33869  0.50036  Biso   1.000  C
  C551     1.0000 0.01000  0.68938  0.63533  Biso   1.000  C
  C552     1.0000 0.15317  0.46916  0.29852  Biso   1.000  C
  C553     1.0000 0.01246  0.11394  0.79215  Biso   1.000  C
  C554     1.0000 0.80853  0.97703  0.13050  Biso   1.000  C
  C555     1.0000 0.14868  0.77123  0.01058  Biso   1.000  C
  C556     1.0000 0.50753  0.11564  0.70626  Biso   1.000  C
  C557     1.0000 0.30077  0.99826  0.37713  Biso   1.000  C
  C558     1.0000 0.64277  0.76773  0.49115  Biso   1.000  C
  C559     1.0000 0.51096  0.61762  0.79727  Biso   1.000  C
  C560     1.0000 0.73080  0.46834  0.12503  Biso   1.000  C
  C561     1.0000 0.38683  0.27639  0.97742  Biso   1.000  C
  C562     1.0000 0.01059  0.61507  0.71258  Biso   1.000  C
  C563     1.0000 0.22600  0.47836  0.37488  Biso   1.000  C
  C564     1.0000 0.89084  0.26295  0.51107  Biso   1.000  C
  C565     1.0000 0.01847  0.85436  0.20995  Biso   1.000  C
  C566     1.0000 0.22476  0.97130  0.87371  Biso   1.000  C
  C567     1.0000 0.88660  0.19264  0.00343  Biso   1.000  C
  C568     1.0000 0.49761  0.84991  0.29674  Biso   1.000  C
  C569     1.0000 0.72578  0.97995  0.62777  Biso   1.000  C
  C570     1.0000 0.38711  0.18387  0.48767  Biso   1.000  C
  C571     1.0000 0.52800  0.34237  0.20349  Biso   1.000  C
  C572     1.0000 0.30961  0.48817  0.87484  Biso   1.000  C
  C573     1.0000 0.65282  0.69368  0.00739  Biso   1.000  C
  C574     1.0000 0.01510  0.35027  0.29701  Biso   1.000  C
  C575     1.0000 0.80554  0.48897  0.63127  Biso   1.000  C
  C576     1.0000 0.14413  0.69317  0.49840  Biso   1.000  C
  C577     1.0000 0.30827  0.47948  0.11292  Biso   1.000  C
  C578     1.0000 0.12746  0.27295  0.50101  Biso   1.000  C
  C579     1.0000 0.52238  0.08133  0.29230  Biso   1.000  C
  C580     1.0000 0.81015  0.46500  0.39448  Biso   1.000  C
  C581     1.0000 0.62530  0.27479  0.00456  Biso   1.000  C
  C582     1.0000 0.00959  0.08818  0.21132  Biso   1.000  C
  C583     1.0000 0.22563  0.99206  0.10912  Biso   1.000  C
  C584     1.0000 0.40737  0.77217  0.50178  Biso   1.000  C
  C585     1.0000 0.03217  0.58720  0.29464  Biso   1.000  C
  C586     1.0000 0.72125  0.98856  0.39369  Biso   1.000  C
  C587     1.0000 0.91982  0.77924  0.98916  Biso   1.000  C
  C588     1.0000 0.52453  0.57772  0.21211  Biso   1.000  C
  C589     1.0000 0.72485  0.48293  0.88635  Biso   1.000  C
  C590     1.0000 0.90847  0.68162  0.50296  Biso   1.000  C
  C591     1.0000 0.52080  0.88312  0.71229  Biso   1.000  C
  C592     1.0000 0.22528  0.48087  0.61205  Biso   1.000  C
  C593     1.0000 0.41908  0.68871  0.00961  Biso   1.000  C
  C594     1.0000 0.00232  0.88092  0.79287  Biso   1.000  C
  C595     1.0000 0.80859  0.99107  0.89760  Biso   1.000  C
  C596     1.0000 0.62084  0.18624  0.50259  Biso   1.000  C
  C597     1.0000 0.01149  0.38103  0.71020  Biso   1.000  C
  C598     1.0000 0.31052  0.96691  0.60815  Biso   1.000  C
  C599     1.0000 0.12278  0.18967  0.98798  Biso   1.000  C
  C600     1.0000 0.52662  0.38528  0.78836  Biso   1.000  C
  C601     1.0000 0.22287  0.96637  0.90419  Biso   1.000  C
  C602     1.0000 0.91751  0.19056  0.00364  Biso   1.000  C
  C603     1.0000 0.02182  0.88692  0.21066  Biso   1.000  C
  C604     1.0000 0.72666  0.97490  0.59715  Biso   1.000  C
  C605     1.0000 0.41798  0.18388  0.48846  Biso   1.000  C
  C606     1.0000 0.49915  0.88031  0.29746  Biso   1.000  C
  C607     1.0000 0.30868  0.48881  0.90596  Biso   1.000  C
  C608     1.0000 0.62166  0.69084  0.01139  Biso   1.000  C
  C609     1.0000 0.52837  0.37346  0.20315  Biso   1.000  C
  C610     1.0000 0.80597  0.48091  0.60084  Biso   1.000  C
  C611     1.0000 0.11314  0.69171  0.50118  Biso   1.000  C
  C612     1.0000 0.01352  0.38179  0.29924  Biso   1.000  C
  C613     1.0000 0.81367  0.97968  0.10014  Biso   1.000  C
  C614     1.0000 0.11804  0.77222  0.00591  Biso   1.000  C
  C615     1.0000 0.01495  0.08300  0.79206  Biso   1.000  C
  C616     1.0000 0.30080  0.99766  0.40901  Biso   1.000  C
  C617     1.0000 0.61145  0.76965  0.49462  Biso   1.000  C
  C618     1.0000 0.50588  0.08429  0.70671  Biso   1.000  C
  C619     1.0000 0.72910  0.46772  0.09462  Biso   1.000  C
  C620     1.0000 0.41788  0.27943  0.98044  Biso   1.000  C
  C621     1.0000 0.50873  0.58619  0.79494  Biso   1.000  C
  C622     1.0000 0.22315  0.48145  0.40543  Biso   1.000  C
  C623     1.0000 0.92188  0.26415  0.51333  Biso   1.000  C
  C624     1.0000 0.01392  0.58304  0.71294  Biso   1.000  C
  C625     1.0000 0.00943  0.19005  0.90047  Biso   1.000  C
  C626     1.0000 0.91280  0.97577  0.21052  Biso   1.000  C
  C627     1.0000 0.22354  0.87996  0.02362  Biso   1.000  C
  C628     1.0000 0.50865  0.19066  0.59841  Biso   1.000  C
  C629     1.0000 0.40753  0.99347  0.29693  Biso   1.000  C
  C630     1.0000 0.72697  0.87088  0.48104  Biso   1.000  C
  C631     1.0000 0.53065  0.68793  0.90666  Biso   1.000  C
  C632     1.0000 0.62116  0.46778  0.20171  Biso   1.000  C
  C633     1.0000 0.30821  0.38203  0.99546  Biso   1.000  C
  C634     1.0000 0.01241  0.68699  0.60403  Biso   1.000  C
  C635     1.0000 0.12188  0.46895  0.29833  Biso   1.000  C
  C636     1.0000 0.81571  0.36938  0.50071  Biso   1.000  C
  C637     1.0000 0.03171  0.77815  0.10749  Biso   1.000  C
  C638     1.0000 0.12326  0.99274  0.79666  Biso   1.000  C
  C639     1.0000 0.81129  0.08769  0.02197  Biso   1.000  C
  C640     1.0000 0.50531  0.77340  0.40380  Biso   1.000  C
  C641     1.0000 0.61848  0.99399  0.70605  Biso   1.000  C
  C642     1.0000 0.30590  0.08132  0.51562  Biso   1.000  C
  C643     1.0000 0.51951  0.26668  0.09599  Biso   1.000  C
  C644     1.0000 0.41455  0.47736  0.79663  Biso   1.000  C
  C645     1.0000 0.72792  0.58947  0.98966  Biso   1.000  C
  C646     1.0000 0.02246  0.27209  0.39985  Biso   1.000  C
  C647     1.0000 0.91213  0.49804  0.70685  Biso   1.000  C
  C648     1.0000 0.22364  0.59048  0.50201  Biso   1.000  C
  C649     1.0000 0.00897  0.68934  0.40093  Biso   1.000  C
  C650     1.0000 0.41737  0.97727  0.71064  Biso   1.000  C
  C651     1.0000 0.73051  0.38232  0.98914  Biso   1.000  C
  C652     1.0000 0.51579  0.69155  0.11692  Biso   1.000  C
  C653     1.0000 0.91530  0.98528  0.79175  Biso   1.000  C
  C654     1.0000 0.23063  0.38444  0.50548  Biso   1.000  C
  C655     1.0000 0.53109  0.18829  0.39819  Biso   1.000  C
  C656     1.0000 0.11684  0.46843  0.71402  Biso   1.000  C
  C657     1.0000 0.81200  0.88686  0.98592  Biso   1.000  C
  C658     1.0000 0.03466  0.19004  0.10628  Biso   1.000  C
  C659     1.0000 0.61438  0.50060  0.78583  Biso   1.000  C
  C660     1.0000 0.30722  0.88401  0.48522  Biso   1.000  C
  C661     1.0000 0.01963  0.27138  0.60547  Biso   1.000  C
  C662     1.0000 0.60860  0.95982  0.29529  Biso   1.000  C
  C663     1.0000 0.31013  0.58436  0.01137  Biso   1.000  C
  C664     1.0000 0.52790  0.27719  0.89360  Biso   1.000  C
  C665     1.0000 0.11638  0.01332  0.21096  Biso   1.000  C
  C666     1.0000 0.80680  0.57216  0.49441  Biso   1.000  C
  C667     1.0000 0.51368  0.77407  0.60729  Biso   1.000  C
  C668     1.0000 0.91776  0.49386  0.29200  Biso   1.000  C
  C669     1.0000 0.22903  0.08130  0.00043  Biso   1.000  C
  C670     1.0000 0.00976  0.77883  0.90156  Biso   1.000  C
  C671     1.0000 0.42015  0.46282  0.21430  Biso   1.000  C
  C672     1.0000 0.72553  0.07549  0.49383  Biso   1.000  C
  C673     1.0000 0.21545  0.98256  0.81127  Biso   1.000  C
  C674     1.0000 0.82487  0.18138  0.00989  Biso   1.000  C
  C675     1.0000 0.02173  0.79087  0.20095  Biso   1.000  C
  C676     1.0000 0.71259  0.98775  0.69102  Biso   1.000  C
  C677     1.0000 0.32477  0.17449  0.49487  Biso   1.000  C
  C678     1.0000 0.50808  0.78602  0.31331  Biso   1.000  C
  C679     1.0000 0.31998  0.48369  0.81393  Biso   1.000  C
  C680     1.0000 0.71439  0.68313  0.99516  Biso   1.000  C
  C681     1.0000 0.52476  0.28025  0.19034  Biso   1.000  C
  C682     1.0000 0.81942  0.50191  0.69284  Biso   1.000  C
  C683     1.0000 0.20777  0.68381  0.50054  Biso   1.000  C
  C684     1.0000 0.02308  0.28769  0.30772  Biso   1.000  C
  C685     1.0000 0.81950  0.97458  0.19484  Biso   1.000  C
  C686     1.0000 0.21395  0.78670  0.01878  Biso   1.000  C
  C687     1.0000 0.00759  0.17730  0.80564  Biso   1.000  C
  C688     1.0000 0.31398  0.00681  0.31329  Biso   1.000  C
  C689     1.0000 0.70984  0.77795  0.48691  Biso   1.000  C
  C690     1.0000 0.51411  0.17724  0.69222  Biso   1.000  C
  C691     1.0000 0.71936  0.46645  0.18830  Biso   1.000  C
  C692     1.0000 0.32510  0.28683  0.98291  Biso   1.000  C
  C693     1.0000 0.51820  0.68019  0.81183  Biso   1.000  C
  C694     1.0000 0.21669  0.47182  0.31213  Biso   1.000  C
  C695     1.0000 0.82970  0.27454  0.50210  Biso   1.000  C
  C696     1.0000 0.00750  0.67678  0.69967  Biso   1.000  C
  C697     1.0000 0.70398  0.97050  0.29989  Biso   1.000  C
  C698     1.0000 0.32528  0.68094  0.01537  Biso   1.000  C
  C699     1.0000 0.00824  0.28779  0.70180  Biso   1.000  C
  C700     1.0000 0.21108  0.01284  0.20370  Biso   1.000  C
  C701     1.0000 0.81383  0.66551  0.49321  Biso   1.000  C
  C702     1.0000 0.53096  0.29021  0.79943  Biso   1.000  C
  C703     1.0000 0.82697  0.47564  0.29834  Biso   1.000  C
  C704     1.0000 0.21866  0.17527  0.98890  Biso   1.000  C
  C705     1.0000 0.51170  0.78861  0.70253  Biso   1.000  C
  C706     1.0000 0.32541  0.46114  0.20568  Biso   1.000  C
  C707     1.0000 0.71712  0.16966  0.49338  Biso   1.000  C
  C708     1.0000 0.01005  0.78767  0.80822  Biso   1.000  C
  C709     1.0000 0.32260  0.97352  0.69981  Biso   1.000  C
  C710     1.0000 0.71629  0.29014  0.00117  Biso   1.000  C
  C711     1.0000 0.02263  0.67976  0.30887  Biso   1.000  C
  C712     1.0000 0.82185  0.98188  0.80300  Biso   1.000  C
  C713     1.0000 0.22105  0.28984  0.50487  Biso   1.000  C
  C714     1.0000 0.52511  0.67201  0.20716  Biso   1.000  C
  C715     1.0000 0.21129  0.47007  0.70564  Biso   1.000  C
  C716     1.0000 0.82655  0.79015  0.98496  Biso   1.000  C
  C717     1.0000 0.52691  0.17457  0.30267  Biso   1.000  C
  C718     1.0000 0.71164  0.50209  0.79653  Biso   1.000  C
  C719     1.0000 0.31644  0.78957  0.49345  Biso   1.000  C
  C720     1.0000 0.02490  0.18028  0.19884  Biso   1.000  C
  C721     1.0000 0.52998  0.78753  0.29100  Biso   1.000  C
  C722     1.0000 0.32276  0.49899  0.78414  Biso   1.000  C
  C723     1.0000 0.79904  0.27867  0.51000  Biso   1.000  C
  C724     1.0000 0.00785  0.76339  0.19793  Biso   1.000  C
  C725     1.0000 0.79556  0.52189  0.68488  Biso   1.000  C
  C726     1.0000 0.29784  0.28957  0.96958  Biso   1.000  C
  C727     1.0000 0.00905  0.25978  0.30798  Biso   1.000  C
  C728     1.0000 0.24432  0.99384  0.81432  Biso   1.000  C
  C729     1.0000 0.73774  0.78293  0.50259  Biso   1.000  C
  C730     1.0000 0.50915  0.28497  0.21829  Biso   1.000  C
  C731     1.0000 0.73546  0.96571  0.69029  Biso   1.000  C
  C732     1.0000 0.24224  0.79246  0.00670  Biso   1.000  C
  C733     1.0000 0.49547  0.17721  0.71827  Biso   1.000  C
  C734     1.0000 0.71758  0.44901  0.21640  Biso   1.000  C
  C735     1.0000 0.20544  0.70939  0.48170  Biso   1.000  C
  C736     1.0000 0.99119  0.20421  0.81255  Biso   1.000  C
  C737     1.0000 0.24065  0.45221  0.31803  Biso   1.000  C
  C738     1.0000 0.74310  0.67878  0.00628  Biso   1.000  C
  C739     1.0000 0.02599  0.67371  0.72522  Biso   1.000  C
  C740     1.0000 0.82190  0.95701  0.22031  Biso   1.000  C
  C741     1.0000 0.29646  0.17295  0.48009  Biso   1.000  C
  C742     1.0000 0.49592  0.67958  0.79021  Biso   1.000  C
  C743     1.0000 0.31592  0.99446  0.28411  Biso   1.000  C
  C744     1.0000 0.82841  0.20960  0.02219  Biso   1.000  C
  C745     1.0000 0.03846  0.70608  0.31468  Biso   1.000  C
  C746     1.0000 0.29603  0.95666  0.69995  Biso   1.000  C
  C747     1.0000 0.74007  0.29160  0.02207  Biso   1.000  C
  C748     1.0000 0.54348  0.69915  0.20594  Biso   1.000  C
  C749     1.0000 0.82418  0.96388  0.77666  Biso   1.000  C
  C750     1.0000 0.24796  0.28953  0.52219  Biso   1.000  C
  C751     1.0000 0.54178  0.17085  0.27443  Biso   1.000  C
  C752     1.0000 0.23952  0.45579  0.70271  Biso   1.000  C
  C753     1.0000 0.80099  0.79232  0.96639  Biso   1.000  C
  C754     1.0000 0.03814  0.17486  0.22641  Biso   1.000  C
  C755     1.0000 0.70823  0.49160  0.76621  Biso   1.000  C
  C756     1.0000 0.28855  0.79429  0.50530  Biso   1.000  C
  C757     1.0000 0.98892  0.26286  0.69649  Biso   1.000  C
  C758     1.0000 0.69732  0.97844  0.26972  Biso   1.000  C
  C759     1.0000 0.30087  0.67800  0.03409  Biso   1.000  C
  C760     1.0000 0.54626  0.29151  0.77233  Biso   1.000  C
  C761     1.0000 0.23728  0.02858  0.19908  Biso   1.000  C
  C762     1.0000 0.82082  0.69048  0.47706  Biso   1.000  C
  C763     1.0000 0.52947  0.79343  0.72740  Biso   1.000  C
  C764     1.0000 0.79746  0.48863  0.30140  Biso   1.000  C
  C765     1.0000 0.24386  0.17525  0.00778  Biso   1.000  C
  C766     1.0000 0.98822  0.78738  0.78441  Biso   1.000  C
  C767     1.0000 0.33184  0.47599  0.23368  Biso   1.000  C
  C768     1.0000 0.71629  0.19582  0.47617  Biso   1.000  C
  C769     1.0000 0.53782  0.70623  0.81108  Biso   1.000  C
  C770     1.0000 0.81999  0.49063  0.72185  Biso   1.000  C
  C771     1.0000 0.70432  0.75010  0.47141  Biso   1.000  C
  C772     1.0000 0.98831  0.70289  0.69779  Biso   1.000  C
  C773     1.0000 0.29393  0.46563  0.81703  Biso   1.000  C
  C774     1.0000 0.20879  0.75792  0.03107  Biso   1.000  C
  C775     1.0000 0.02198  0.17644  0.77626  Biso   1.000  C
  C776     1.0000 0.71335  0.00999  0.71481  Biso   1.000  C
  C777     1.0000 0.83737  0.24571  0.49097  Biso   1.000  C
  C778     1.0000 0.53365  0.20077  0.68928  Biso   1.000  C
  C779     1.0000 0.20888  0.97328  0.78214  Biso   1.000  C
  C780     1.0000 0.33163  0.25971  0.99830  Biso   1.000  C
  C781     1.0000 0.54106  0.25278  0.18918  Biso   1.000  C
  C782     1.0000 0.21499  0.48623  0.28358  Biso   1.000  C
  C783     1.0000 0.33104  0.20212  0.50927  Biso   1.000  C
  C784     1.0000 0.04119  0.29470  0.28248  Biso   1.000  C
  C785     1.0000 0.74649  0.48360  0.18393  Biso   1.000  C
  C786     1.0000 0.79766  0.17667  0.99447  Biso   1.000  C
  C787     1.0000 0.03381  0.79470  0.22894  Biso   1.000  C
  C788     1.0000 0.28932  0.02618  0.31948  Biso   1.000  C
  C789     1.0000 0.23520  0.68021  0.51612  Biso   1.000  C
  C790     1.0000 0.49083  0.76014  0.31496  Biso   1.000  C
  C791     1.0000 0.79151  0.98977  0.19261  Biso   1.000  C
  C792     1.0000 0.70833  0.71006  0.98183  Biso   1.000  C
  C793     1.0000 0.50778  0.20009  0.30581  Biso   1.000  C
  C794     1.0000 0.29849  0.44463  0.20265  Biso   1.000  C
  C795     1.0000 0.21895  0.26629  0.48436  Biso   1.000  C
  C796     1.0000 0.01513  0.20910  0.19155  Biso   1.000  C
  C797     1.0000 0.83442  0.46094  0.27105  Biso   1.000  C
  C798     1.0000 0.71526  0.26533  0.98212  Biso   1.000  C
  C799     1.0000 0.00760  0.67589  0.28124  Biso   1.000  C
  C800     1.0000 0.20538  0.00249  0.23301  Biso   1.000  C
  C801     1.0000 0.32090  0.76311  0.47690  Biso   1.000  C
  C802     1.0000 0.50786  0.66765  0.23370  Biso   1.000  C
  C803     1.0000 0.73328  0.95997  0.30640  Biso   1.000  C
  C804     1.0000 0.82930  0.76389  0.00244  Biso   1.000  C
  C805     1.0000 0.49295  0.76274  0.70112  Biso   1.000  C
  C806     1.0000 0.73892  0.51809  0.80288  Biso   1.000  C
  C807     1.0000 0.78525  0.66404  0.50698  Biso   1.000  C
  C808     1.0000 0.03160  0.76458  0.80688  Biso   1.000  C
  C809     1.0000 0.20517  0.48793  0.73173  Biso   1.000  C
  C810     1.0000 0.32745  0.70638  0.99840  Biso   1.000  C
  C811     1.0000 0.02542  0.28916  0.72802  Biso   1.000  C
  C812     1.0000 0.79721  1.00000  0.80507  Biso   1.000  C
  C813     1.0000 0.74286  0.16405  0.51043  Biso   1.000  C
  C814     1.0000 0.51371  0.26415  0.80441  Biso   1.000  C
  C815     1.0000 0.32516  0.99599  0.72253  Biso   1.000  C
  C816     1.0000 0.21911  0.19814  0.96782  Biso   1.000  C
  C817     1.0000 0.98804  0.22545  0.79152  Biso   1.000  C
  C818     1.0000 0.79760  0.95425  0.23981  Biso   1.000  C
  C819     1.0000 0.26276  0.77191  0.00436  Biso   1.000  C
  C820     1.0000 0.49915  0.19923  0.73916  Biso   1.000  C
  C821     1.0000 0.29651  0.00165  0.26316  Biso   1.000  C
  C822     1.0000 0.75832  0.76125  0.50072  Biso   1.000  C
  C823     1.0000 0.49266  0.70169  0.77028  Biso   1.000  C
  C824     1.0000 0.73947  0.45255  0.23711  Biso   1.000  C
  C825     1.0000 0.27848  0.26610  0.96969  Biso   1.000  C
  C826     1.0000 0.02464  0.69472  0.74887  Biso   1.000  C
  C827     1.0000 0.26145  0.44887  0.29539  Biso   1.000  C
  C828     1.0000 0.77968  0.25760  0.50612  Biso   1.000  C
  C829     1.0000 0.00706  0.74222  0.21920  Biso   1.000  C
  C830     1.0000 0.26336  0.99468  0.79162  Biso   1.000  C
  C831     1.0000 0.80770  0.23083  0.01965  Biso   1.000  C
  C832     1.0000 0.53336  0.76455  0.27213  Biso   1.000  C
  C833     1.0000 0.75637  0.96367  0.71132  Biso   1.000  C
  C834     1.0000 0.27784  0.19675  0.48096  Biso   1.000  C
  C835     1.0000 0.50709  0.26400  0.23857  Biso   1.000  C
  C836     1.0000 0.30140  0.49767  0.76258  Biso   1.000  C
  C837     1.0000 0.76529  0.69775  0.00008  Biso   1.000  C
  C838     1.0000 0.01307  0.23969  0.28608  Biso   1.000  C
  C839     1.0000 0.77582  0.53058  0.70455  Biso   1.000  C
  C840     1.0000 0.22575  0.73067  0.48018  Biso   1.000  C
  C841     1.0000 0.22902  0.97130  0.75994  Biso   1.000  C
  C842     1.0000 0.77642  0.19808  0.99372  Biso   1.000  C
  C843     1.0000 0.03333  0.77430  0.25102  Biso   1.000  C
  C844     1.0000 0.73674  0.00811  0.73336  Biso   1.000  C
  C845     1.0000 0.31219  0.22518  0.50820  Biso   1.000  C
  C846     1.0000 0.49544  0.73747  0.29523  Biso   1.000  C
  C847     1.0000 0.27154  0.46708  0.79611  Biso   1.000  C
  C848     1.0000 0.73082  0.72872  0.97663  Biso   1.000  C
  C849     1.0000 0.53933  0.23295  0.21022  Biso   1.000  C
  C850     1.0000 0.79865  0.49944  0.74141  Biso   1.000  C
  C851     1.0000 0.25581  0.70093  0.51310  Biso   1.000  C
  C852     1.0000 0.04417  0.27355  0.26004  Biso   1.000  C
  C853     1.0000 0.76934  0.98963  0.21432  Biso   1.000  C
  C854     1.0000 0.23167  0.73851  0.03031  Biso   1.000  C
  C855     1.0000 0.01906  0.20016  0.75734  Biso   1.000  C
  C856     1.0000 0.26826  0.03070  0.29814  Biso   1.000  C
  C857     1.0000 0.72484  0.72884  0.47284  Biso   1.000  C
  C858     1.0000 0.53749  0.22311  0.70991  Biso   1.000  C
  C859     1.0000 0.76713  0.48499  0.20592  Biso   1.000  C
  C860     1.0000 0.31156  0.23671  0.99850  Biso   1.000  C
  C861     1.0000 0.53332  0.72755  0.78915  Biso   1.000  C
  C862     1.0000 0.23550  0.48135  0.26238  Biso   1.000  C
  C863     1.0000 0.81782  0.22318  0.48897  Biso   1.000  C
  C864     1.0000 0.98928  0.72239  0.72219  Biso   1.000  C
  C865     1.0000 0.72811  0.50170  0.74571  Biso   1.000  C
  C866     1.0000 0.80107  0.71394  0.47736  Biso   1.000  C
  C867     1.0000 0.52931  0.77231  0.74876  Biso   1.000  C
  C868     1.0000 0.26060  0.46343  0.72309  Biso   1.000  C
  C869     1.0000 0.28072  0.70069  0.03838  Biso   1.000  C
  C870     1.0000 0.98646  0.76338  0.76636  Biso   1.000  C
  C871     1.0000 0.80473  0.96682  0.75240  Biso   1.000  C
  C872     1.0000 0.74120  0.21243  0.47455  Biso   1.000  C
  C873     1.0000 0.98843  0.24175  0.71664  Biso   1.000  C
  C874     1.0000 0.27469  0.96148  0.72098  Biso   1.000  C
  C875     1.0000 0.26471  0.19678  0.00707  Biso   1.000  C
  C876     1.0000 0.54187  0.27009  0.75272  Biso   1.000  C
  C877     1.0000 0.30807  0.47868  0.25322  Biso   1.000  C
  C878     1.0000 0.26995  0.26887  0.51722  Biso   1.000  C
  C879     1.0000 0.54021  0.19189  0.25280  Biso   1.000  C
  C880     1.0000 0.77724  0.48635  0.27984  Biso   1.000  C
  C881     1.0000 0.76101  0.27036  0.02345  Biso   1.000  C
  C882     1.0000 0.04021  0.19679  0.24637  Biso   1.000  C
  C883     1.0000 0.25804  0.03081  0.22146  Biso   1.000  C
  C884     1.0000 0.26709  0.77459  0.50592  Biso   1.000  C
  C885     1.0000 0.03824  0.72749  0.29381  Biso   1.000  C
  C886     1.0000 0.72025  0.97552  0.24971  Biso   1.000  C
  C887     1.0000 0.78009  0.77007  0.96694  Biso   1.000  C
  C888     1.0000 0.53924  0.71892  0.22734  Biso   1.000  C
  C889     1.0000 0.75459  0.95802  0.28458  Biso   1.000  C
  C890     1.0000 0.30706  0.72753  0.00116  Biso   1.000  C
  C891     1.0000 0.02126  0.26778  0.74895  Biso   1.000  C
  C892     1.0000 0.22581  0.00528  0.25407  Biso   1.000  C
  C893     1.0000 0.76520  0.68592  0.50437  Biso   1.000  C
  C894     1.0000 0.51141  0.24263  0.78330  Biso   1.000  C
  C895     1.0000 0.81320  0.46047  0.24987  Biso   1.000  C
  C896     1.0000 0.24103  0.21757  0.96647  Biso   1.000  C
  C897     1.0000 0.49210  0.74384  0.72368  Biso   1.000  C
  C898     1.0000 0.27682  0.44790  0.22428  Biso   1.000  C
  C899     1.0000 0.76602  0.18326  0.51035  Biso   1.000  C
  C900     1.0000 0.03058  0.74474  0.78426  Biso   1.000  C
  C901     1.0000 0.30530  0.99758  0.74507  Biso   1.000  C
  C902     1.0000 0.73733  0.24547  0.98395  Biso   1.000  C
  C903     1.0000 0.00710  0.69817  0.26072  Biso   1.000  C
  C904     1.0000 0.77845  0.00018  0.78240  Biso   1.000  C
  C905     1.0000 0.23947  0.24523  0.48117  Biso   1.000  C
  C906     1.0000 0.50498  0.68926  0.25324  Biso   1.000  C
  C907     1.0000 0.22734  0.49322  0.75155  Biso   1.000  C
  C908     1.0000 0.80741  0.74251  0.00202  Biso   1.000  C
  C909     1.0000 0.50444  0.21791  0.28291  Biso   1.000  C
  C910     1.0000 0.75867  0.52463  0.78121  Biso   1.000  C
  C911     1.0000 0.29916  0.74353  0.47828  Biso   1.000  C
  C912     1.0000 0.01803  0.22974  0.21224  Biso   1.000  C
  C913     1.0000 0.77771  0.51894  0.73196  Biso   1.000  C
  C914     1.0000 0.75179  0.73404  0.48727  Biso   1.000  C
  C915     1.0000 0.51212  0.72463  0.76943  Biso   1.000  C
  C916     1.0000 0.27618  0.48319  0.77040  Biso   1.000  C
  C917     1.0000 0.25744  0.74460  0.01688  Biso   1.000  C
  C918     1.0000 0.00659  0.71831  0.74510  Biso   1.000  C
  C919     1.0000 0.75753  0.98663  0.73252  Biso   1.000  C
  C920     1.0000 0.78947  0.22985  0.49553  Biso   1.000  C
  C921     1.0000 0.99966  0.22189  0.76462  Biso   1.000  C
  C922     1.0000 0.25731  0.98269  0.76492  Biso   1.000  C
  C923     1.0000 0.28424  0.24073  0.98596  Biso   1.000  C
  C924     1.0000 0.52111  0.22150  0.73526  Biso   1.000  C
  C925     1.0000 0.25882  0.46451  0.26931  Biso   1.000  C
  C926     1.0000 0.28626  0.22327  0.49374  Biso   1.000  C
  C927     1.0000 0.51992  0.23739  0.23430  Biso   1.000  C
  C928     1.0000 0.76351  0.47135  0.23262  Biso   1.000  C
  C929     1.0000 0.78103  0.22408  0.00748  Biso   1.000  C
  C930     1.0000 0.03168  0.24580  0.26373  Biso   1.000  C
  C931     1.0000 0.27335  0.02010  0.26996  Biso   1.000  C
  C932     1.0000 0.25105  0.72511  0.49485  Biso   1.000  C
  C933     1.0000 0.02063  0.74720  0.24611  Biso   1.000  C
  C934     1.0000 0.77216  0.97037  0.23728  Biso   1.000  C
  C935     1.0000 0.76001  0.72357  0.98475  Biso   1.000  C
  C936     1.0000 0.51728  0.73863  0.27480  Biso   1.000  C
  C937     1.0000 0.75993  0.24786  0.00464  Biso   1.000  C
  C938     1.0000 0.02250  0.72360  0.26718  Biso   1.000  C
  C939     1.0000 0.28020  0.98037  0.74416  Biso   1.000  C
  C940     1.0000 0.26319  0.24608  0.49821  Biso   1.000  C
  C941     1.0000 0.51887  0.71707  0.25017  Biso   1.000  C
  C942     1.0000 0.78215  0.98563  0.75597  Biso   1.000  C
  C943     1.0000 0.78238  0.74632  0.98482  Biso   1.000  C
  C944     1.0000 0.52283  0.21660  0.25805  Biso   1.000  C
  C945     1.0000 0.25450  0.48123  0.74748  Biso   1.000  C
  C946     1.0000 0.27367  0.74898  0.49224  Biso   1.000  C
  C947     1.0000 0.03095  0.22516  0.23855  Biso   1.000  C
  C948     1.0000 0.75206  0.51897  0.75239  Biso   1.000  C
  C949     1.0000 0.28395  0.72522  0.02056  Biso   1.000  C
  C950     1.0000 0.00096  0.24586  0.74285  Biso   1.000  C
  C951     1.0000 0.74822  0.96689  0.25646  Biso   1.000  C
  C952     1.0000 0.77408  0.71053  0.48914  Biso   1.000  C
  C953     1.0000 0.52339  0.24658  0.75654  Biso   1.000  C
  C954     1.0000 0.25107  0.02062  0.24908  Biso   1.000  C
  C955     1.0000 0.26274  0.21739  0.98628  Biso   1.000  C
  C956     1.0000 0.51113  0.74829  0.74731  Biso   1.000  C
  C957     1.0000 0.78616  0.47230  0.25490  Biso   1.000  C
  C958     1.0000 0.76493  0.20689  0.49258  Biso   1.000  C
  C959     1.0000 0.00759  0.74153  0.76579  Biso   1.000  C
  C960     1.0000 0.28267  0.46267  0.24868  Biso   1.000  C
  Cu1      1.0000 0.01680  0.48336  0.65706  Biso   1.000  Cu
  Cu2      1.0000 0.66973  0.97448  0.49878  Biso   1.000  Cu
  Cu3      1.0000 0.51941  0.63551  0.01024  Biso   1.000  Cu
  Cu4      1.0000 0.51745  0.48464  0.84713  Biso   1.000  Cu
  Cu5      1.0000 0.17222  0.98049  0.00728  Biso   1.000  Cu
  Cu6      1.0000 0.01294  0.63235  0.50239  Biso   1.000  Cu
  Cu7      1.0000 0.51805  0.98317  0.65340  Biso   1.000  Cu
  Cu8      1.0000 0.86532  0.47257  0.50223  Biso   1.000  Cu
  Cu9      1.0000 0.01957  0.13799  0.00146  Biso   1.000  Cu
  Cu10     1.0000 0.01777  0.98359  0.84687  Biso   1.000  Cu
  Cu11     1.0000 0.36155  0.48098  0.00747  Biso   1.000  Cu
  Cu12     1.0000 0.51884  0.13406  0.49897  Biso   1.000  Cu
  Cu13     1.0000 0.01816  0.48472  0.35025  Biso   1.000  Cu
  Cu14     1.0000 0.36165  0.98471  0.50547  Biso   1.000  Cu
  Cu15     1.0000 0.52134  0.32935  0.99533  Biso   1.000  Cu
  Cu16     1.0000 0.52048  0.47781  0.15349  Biso   1.000  Cu
  Cu17     1.0000 0.86592  0.98769  0.99806  Biso   1.000  Cu
  Cu18     1.0000 0.02150  0.32187  0.50534  Biso   1.000  Cu
  Cu19     1.0000 0.50815  0.98263  0.35014  Biso   1.000  Cu
  Cu20     1.0000 0.17194  0.48589  0.51004  Biso   1.000  Cu
  Cu21     1.0000 0.02077  0.83363  0.00354  Biso   1.000  Cu
  Cu22     1.0000 0.01522  0.98873  0.15783  Biso   1.000  Cu
  Cu23     1.0000 0.67537  0.48375  0.99080  Biso   1.000  Cu
  Cu24     1.0000 0.51381  0.82679  0.50477  Biso   1.000  Cu
  Cu25     1.0000 0.22437  0.98104  0.00630  Biso   1.000  Cu
  Cu26     1.0000 0.02082  0.19042  0.00217  Biso   1.000  Cu
  Cu27     1.0000 0.01387  0.98901  0.21175  Biso   1.000  Cu
  Cu28     1.0000 0.72352  0.97431  0.49790  Biso   1.000  Cu
  Cu29     1.0000 0.51903  0.18972  0.49893  Biso   1.000  Cu
  Cu30     1.0000 0.50980  0.98154  0.29659  Biso   1.000  Cu
  Cu31     1.0000 0.30770  0.48298  0.00859  Biso   1.000  Cu
  Cu32     1.0000 0.52004  0.69049  0.00970  Biso   1.000  Cu
  Cu33     1.0000 0.52243  0.47737  0.20772  Biso   1.000  Cu
  Cu34     1.0000 0.81130  0.46851  0.49823  Biso   1.000  Cu
  Cu35     1.0000 0.01193  0.68633  0.50357  Biso   1.000  Cu
  Cu36     1.0000 0.01985  0.48153  0.29670  Biso   1.000  Cu
  Cu37     1.0000 0.81253  0.98476  0.00100  Biso   1.000  Cu
  Cu38     1.0000 0.01752  0.77942  0.00349  Biso   1.000  Cu
  Cu39     1.0000 0.01973  0.98317  0.79318  Biso   1.000  Cu
  Cu40     1.0000 0.30628  0.98152  0.50907  Biso   1.000  Cu
  Cu41     1.0000 0.51384  0.77261  0.50563  Biso   1.000  Cu
  Cu42     1.0000 0.51914  0.98463  0.70777  Biso   1.000  Cu
  Cu43     1.0000 0.73023  0.48381  0.98994  Biso   1.000  Cu
  Cu44     1.0000 0.51912  0.27429  0.99353  Biso   1.000  Cu
  Cu45     1.0000 0.51257  0.48501  0.79302  Biso   1.000  Cu
  Cu46     1.0000 0.22561  0.48672  0.50704  Biso   1.000  Cu
  Cu47     1.0000 0.02388  0.26884  0.50357  Biso   1.000  Cu
  Cu48     1.0000 0.01411  0.48410  0.70888  Biso   1.000  Cu
  H1       1.0000 0.24720  0.77744  0.51704  Biso   1.000  H
  H2       1.0000 0.55348  0.26940  0.73104  Biso   1.000  H
  H3       1.0000 0.75676  0.49779  0.28074  Biso   1.000  H
  H4       1.0000 0.76292  0.77394  0.95182  Biso   1.000  H
  H5       1.0000 0.97495  0.22180  0.71296  Biso   1.000  H
  H6       1.0000 0.31213  0.49151  0.27329  Biso   1.000  H
  H7       1.0000 0.28874  0.26910  0.53083  Biso   1.000  H
  H8       1.0000 0.96736  0.76269  0.75129  Biso   1.000  H
  H9       1.0000 0.71386  0.98159  0.22698  Biso   1.000  H
  H10      1.0000 0.77747  0.26983  0.04045  Biso   1.000  H
  H11      1.0000 0.54409  0.77504  0.76684  Biso   1.000  H
  H12      1.0000 0.27830  0.04185  0.21903  Biso   1.000  H
  H13      1.0000 0.74199  0.23021  0.45854  Biso   1.000  H
  H14      1.0000 0.55180  0.73932  0.22484  Biso   1.000  H
  H15      1.0000 0.28307  0.45539  0.72230  Biso   1.000  H
  H16      1.0000 0.28153  0.19449  0.02434  Biso   1.000  H
  H17      1.0000 0.04507  0.74688  0.30161  Biso   1.000  H
  H18      1.0000 0.72315  0.49426  0.72473  Biso   1.000  H
  H19      1.0000 0.80744  0.73462  0.46844  Biso   1.000  H
  H20      1.0000 0.04978  0.19281  0.26779  Biso   1.000  H
  H21      1.0000 0.25495  0.94732  0.72053  Biso   1.000  H
  H22      1.0000 0.26426  0.69986  0.05555  Biso   1.000  H
  H23      1.0000 0.55340  0.18936  0.23401  Biso   1.000  H
  H24      1.0000 0.80760  0.95167  0.73463  Biso   1.000  H
  H25      1.0000 0.28436  0.00544  0.79602  Biso   1.000  H
  H26      1.0000 0.81584  0.25360  0.02617  Biso   1.000  H
  H27      1.0000 0.99694  0.72172  0.21376  Biso   1.000  H
  H28      1.0000 0.77068  0.94419  0.71105  Biso   1.000  H
  H29      1.0000 0.25744  0.19583  0.46902  Biso   1.000  H
  H30      1.0000 0.54978  0.76578  0.25452  Biso   1.000  H
  H31      1.0000 0.30299  0.50971  0.74097  Biso   1.000  H
  H32      1.0000 0.78756  0.68961  0.00599  Biso   1.000  H
  H33      1.0000 0.49050  0.26900  0.25565  Biso   1.000  H
  H34      1.0000 0.75751  0.54378  0.69674  Biso   1.000  H
  H35      1.0000 0.21910  0.75097  0.47004  Biso   1.000  H
  H36      1.0000 0.00066  0.21810  0.28815  Biso   1.000  H
  H37      1.0000 0.79841  0.93905  0.25746  Biso   1.000  H
  H38      1.0000 0.28340  0.77660  0.99306  Biso   1.000  H
  H39      1.0000 0.97437  0.24467  0.79577  Biso   1.000  H
  H40      1.0000 0.29966  0.99280  0.24229  Biso   1.000  H
  H41      1.0000 0.77891  0.76476  0.51249  Biso   1.000  H
  H42      1.0000 0.48615  0.19804  0.75801  Biso   1.000  H
  H43      1.0000 0.73395  0.44385  0.25946  Biso   1.000  H
  H44      1.0000 0.25818  0.26909  0.96129  Biso   1.000  H
  H45      1.0000 0.47397  0.70103  0.75514  Biso   1.000  H
  H46      1.0000 0.28141  0.43665  0.29950  Biso   1.000  H
  H47      1.0000 0.75728  0.26045  0.51336  Biso   1.000  H
  H48      1.0000 0.03353  0.69099  0.76930  Biso   1.000  H
  H49      1.0000 0.23661  0.48884  0.24059  Biso   1.000  H
  H50      1.0000 0.32079  0.24422  0.51873  Biso   1.000  H
  H51      1.0000 0.55176  0.21339  0.20573  Biso   1.000  H
  H52      1.0000 0.78585  0.49981  0.20342  Biso   1.000  H
  H53      1.0000 0.75725  0.19232  0.98009  Biso   1.000  H
  H54      1.0000 0.05575  0.27714  0.24043  Biso   1.000  H
  H55      1.0000 0.25005  0.04478  0.30344  Biso   1.000  H
  H56      1.0000 0.27737  0.70089  0.52198  Biso   1.000  H
  H57      1.0000 0.04218  0.78168  0.27196  Biso   1.000  H
  H58      1.0000 0.74994  0.00318  0.20982  Biso   1.000  H
  H59      1.0000 0.72671  0.75042  0.96774  Biso   1.000  H
  H60      1.0000 0.47869  0.72052  0.29675  Biso   1.000  H
  H61      1.0000 0.79930  0.49351  0.76417  Biso   1.000  H
  H62      1.0000 0.72038  0.70790  0.46440  Biso   1.000  H
  H63      1.0000 0.54717  0.74628  0.78986  Biso   1.000  H
  H64      1.0000 0.25031  0.45710  0.79898  Biso   1.000  H
  H65      1.0000 0.22936  0.71728  0.03892  Biso   1.000  H
  H66      1.0000 0.97646  0.74172  0.72025  Biso   1.000  H
  H67      1.0000 0.73707  0.02358  0.75131  Biso   1.000  H
  H68      1.0000 0.82499  0.20189  0.48291  Biso   1.000  H
  H69      1.0000 0.02873  0.20001  0.73540  Biso   1.000  H
  H70      1.0000 0.22115  0.96325  0.73852  Biso   1.000  H
  H71      1.0000 0.31783  0.21665  0.00745  Biso   1.000  H
  H72      1.0000 0.55409  0.23830  0.70569  Biso   1.000  H
  H73      1.0000 0.77898  0.53531  0.78615  Biso   1.000  H
  H74      1.0000 0.74483  0.68508  0.51413  Biso   1.000  H
  H75      1.0000 0.47786  0.72609  0.71903  Biso   1.000  H
  H76      1.0000 0.22109  0.50754  0.77046  Biso   1.000  H
  H77      1.0000 0.31059  0.74559  0.98738  Biso   1.000  H
  H78      1.0000 0.04809  0.72967  0.78210  Biso   1.000  H
  H79      1.0000 0.76058  0.01636  0.78546  Biso   1.000  H
  H80      1.0000 0.78559  0.17960  0.52229  Biso   1.000  H
  H81      1.0000 0.02894  0.26904  0.77026  Biso   1.000  H
  H82      1.0000 0.30711  0.01457  0.76082  Biso   1.000  H
  H83      1.0000 0.24067  0.23320  0.94862  Biso   1.000  H
  H84      1.0000 0.50006  0.22312  0.79103  Biso   1.000  H
  H85      1.0000 0.25637  0.43970  0.22093  Biso   1.000  H
  H86      1.0000 0.23827  0.22884  0.46489  Biso   1.000  H
  H87      1.0000 0.48868  0.23448  0.28235  Biso   1.000  H
  H88      1.0000 0.81851  0.45169  0.22779  Biso   1.000  H
  H89      1.0000 0.73820  0.22625  0.97105  Biso   1.000  H
  H90      1.0000 0.01336  0.25133  0.20496  Biso   1.000  H
  H91      1.0000 0.21809  0.99481  0.27557  Biso   1.000  H
  H92      1.0000 0.30074  0.72174  0.46658  Biso   1.000  H
  H93      1.0000 0.99417  0.69281  0.24047  Biso   1.000  H
  H94      1.0000 0.77716  0.95316  0.28836  Biso   1.000  H
  H95      1.0000 0.80840  0.72471  0.01777  Biso   1.000  H
  H96      1.0000 0.49063  0.68489  0.27123  Biso   1.000  H
  H97      1.0000 0.88223  0.99622  0.90844  Biso   1.000  H
  H98      1.0000 0.93217  0.85603  0.99463  Biso   1.000  H
  H99      1.0000 0.99953  0.89431  0.86677  Biso   1.000  H
  H100     1.0000 0.38587  0.97039  0.59508  Biso   1.000  H
  H101     1.0000 0.42162  0.84654  0.49624  Biso   1.000  H
  H102     1.0000 0.51861  0.89047  0.63554  Biso   1.000  H
  H103     1.0000 0.65161  0.48189  0.90077  Biso   1.000  H
  H104     1.0000 0.61179  0.34990  0.99160  Biso   1.000  H
  H105     1.0000 0.52855  0.39297  0.86473  Biso   1.000  H
  H106     1.0000 0.15120  0.48762  0.60318  Biso   1.000  H
  H107     1.0000 0.11377  0.34549  0.49963  Biso   1.000  H
  H108     1.0000 0.02576  0.39012  0.63642  Biso   1.000  H
  H109     1.0000 0.14852  0.98896  0.10057  Biso   1.000  H
  H110     1.0000 0.11181  0.11580  0.99998  Biso   1.000  H
  H111     1.0000 0.00812  0.07758  0.13508  Biso   1.000  H
  H112     1.0000 0.64496  0.97866  0.40769  Biso   1.000  H
  H113     1.0000 0.60686  0.11240  0.50392  Biso   1.000  H
  H114     1.0000 0.52963  0.07146  0.36701  Biso   1.000  H
  H115     1.0000 0.38486  0.47515  0.10008  Biso   1.000  H
  H116     1.0000 0.42726  0.61431  0.00700  Biso   1.000  H
  H117     1.0000 0.51753  0.57184  0.13562  Biso   1.000  H
  H118     1.0000 0.88488  0.47695  0.40638  Biso   1.000  H
  H119     1.0000 0.92318  0.60805  0.50967  Biso   1.000  H
  H120     1.0000 0.02724  0.57243  0.36891  Biso   1.000  H
  H121     1.0000 0.10799  0.98852  0.87201  Biso   1.000  H
  H122     1.0000 0.88608  0.07834  0.02298  Biso   1.000  H
  H123     1.0000 0.02872  0.85448  0.09844  Biso   1.000  H
  H124     1.0000 0.60780  0.98814  0.63035  Biso   1.000  H
  H125     1.0000 0.38313  0.07269  0.51575  Biso   1.000  H
  H126     1.0000 0.50215  0.85028  0.41345  Biso   1.000  H
  H127     1.0000 0.42569  0.47801  0.87300  Biso   1.000  H
  H128     1.0000 0.65403  0.57735  0.99095  Biso   1.000  H
  H129     1.0000 0.51276  0.34059  0.08648  Biso   1.000  H
  H130     1.0000 0.92510  0.47716  0.63496  Biso   1.000  H
  H131     1.0000 0.15004  0.57564  0.49732  Biso   1.000  H
  H132     1.0000 0.01006  0.34407  0.41660  Biso   1.000  H
  H133     1.0000 0.92701  0.97637  0.13765  Biso   1.000  H
  H134     1.0000 0.14923  0.88759  0.01854  Biso   1.000  H
  H135     1.0000 0.01403  0.11535  0.90822  Biso   1.000  H
  H136     1.0000 0.41640  0.98685  0.37259  Biso   1.000  H
  H137     1.0000 0.65124  0.88544  0.49066  Biso   1.000  H
  H138     1.0000 0.49633  0.11708  0.58766  Biso   1.000  H
  H139     1.0000 0.61280  0.48346  0.12893  Biso   1.000  H
  H140     1.0000 0.38389  0.38877  0.00819  Biso   1.000  H
  H141     1.0000 0.51377  0.61465  0.91487  Biso   1.000  H
  H142     1.0000 0.10859  0.47789  0.37137  Biso   1.000  H
  H143     1.0000 0.89040  0.37991  0.51261  Biso   1.000  H
  H144     1.0000 0.00957  0.61005  0.59540  Biso   1.000  H
  H145     1.0000 0.60836  0.48906  0.85957  Biso   1.000  H
  H146     1.0000 0.88049  0.56262  0.50986  Biso   1.000  H
  H147     1.0000 0.51348  0.84855  0.59263  Biso   1.000  H
  H148     1.0000 0.11098  0.47663  0.64076  Biso   1.000  H
  H149     1.0000 0.38305  0.57521  0.99782  Biso   1.000  H
  H150     1.0000 0.00762  0.85367  0.91186  Biso   1.000  H
  H151     1.0000 0.92671  0.98204  0.86561  Biso   1.000  H
  H152     1.0000 0.64995  0.06535  0.49900  Biso   1.000  H
  H153     1.0000 0.03324  0.34532  0.59520  Biso   1.000  H
  H154     1.0000 0.42712  0.97494  0.63614  Biso   1.000  H
  H155     1.0000 0.15438  0.07102  0.99857  Biso   1.000  H
  H156     1.0000 0.52236  0.35278  0.90401  Biso   1.000  H
  H157     1.0000 0.43180  0.47618  0.14145  Biso   1.000  H
  H158     1.0000 0.15529  0.39121  0.50901  Biso   1.000  H
  H159     1.0000 0.52735  0.11342  0.40765  Biso   1.000  H
  H160     1.0000 0.92923  0.48774  0.36718  Biso   1.000  H
  H161     1.0000 0.65524  0.39675  0.98837  Biso   1.000  H
  H162     1.0000 0.01160  0.11932  0.09127  Biso   1.000  H
  H163     1.0000 0.11035  0.99339  0.13724  Biso   1.000  H
  H164     1.0000 0.38244  0.89088  0.48912  Biso   1.000  H
  H165     1.0000 0.02084  0.61569  0.41356  Biso   1.000  H
  H166     1.0000 0.60305  0.96854  0.37043  Biso   1.000  H
  H167     1.0000 0.88739  0.89664  0.99191  Biso   1.000  H
  H168     1.0000 0.51164  0.61754  0.09849  Biso   1.000  H
  H169     1.0000 0.01637  0.07440  0.86854  Biso   1.000  H
  H170     1.0000 0.88747  0.98110  0.08879  Biso   1.000  H
  H171     1.0000 0.10771  0.84767  0.00890  Biso   1.000  H
  H172     1.0000 0.50276  0.07273  0.63030  Biso   1.000  H
  H173     1.0000 0.37488  0.99505  0.41425  Biso   1.000  H
  H174     1.0000 0.60445  0.84438  0.49719  Biso   1.000  H
  H175     1.0000 0.51229  0.57423  0.87183  Biso   1.000  H
  H176     1.0000 0.65749  0.47440  0.08396  Biso   1.000  H
  H177     1.0000 0.42788  0.35346  0.99429  Biso   1.000  H
  H178     1.0000 0.02020  0.57171  0.63816  Biso   1.000  H
  H179     1.0000 0.14719  0.48723  0.41472  Biso   1.000  H
  H180     1.0000 0.93474  0.33942  0.50616  Biso   1.000  H
  H181     1.0000 0.03631  0.89553  0.13583  Biso   1.000  H
  H182     1.0000 0.14905  0.97690  0.91576  Biso   1.000  H
  H183     1.0000 0.92571  0.11566  0.01938  Biso   1.000  H
  H184     1.0000 0.50550  0.89362  0.37321  Biso   1.000  H
  H185     1.0000 0.65226  0.97076  0.58483  Biso   1.000  H
  H186     1.0000 0.43054  0.11365  0.50638  Biso   1.000  H
  H187     1.0000 0.51669  0.38317  0.12785  Biso   1.000  H
  H188     1.0000 0.38454  0.48143  0.91713  Biso   1.000  H
  H189     1.0000 0.61194  0.61349  0.00287  Biso   1.000  H
  H190     1.0000 0.01016  0.38878  0.37570  Biso   1.000  H
  H191     1.0000 0.88020  0.47602  0.58917  Biso   1.000  H
  H192     1.0000 0.10733  0.61694  0.49147  Biso   1.000  H
  H193     1.0000 0.28268  0.84556  0.49077  Biso   1.000  H
  H194     1.0000 0.53280  0.25564  0.85244  Biso   1.000  H
  H195     1.0000 0.87567  0.49181  0.26985  Biso   1.000  H
  H196     1.0000 0.79016  0.84457  0.98312  Biso   1.000  H
  H197     1.0000 0.01578  0.25090  0.64893  Biso   1.000  H
  H198     1.0000 0.38011  0.44972  0.23547  Biso   1.000  H
  H199     1.0000 0.25592  0.34370  0.50503  Biso   1.000  H
  H200     1.0000 0.01180  0.75697  0.86127  Biso   1.000  H
  H201     1.0000 0.64544  0.95853  0.26948  Biso   1.000  H
  H202     1.0000 0.75126  0.34149  0.99814  Biso   1.000  H
  H203     1.0000 0.51580  0.75397  0.64973  Biso   1.000  H
  H204     1.0000 0.15629  0.02060  0.23390  Biso   1.000  H
  H205     1.0000 0.74607  0.11718  0.49387  Biso   1.000  H
  H206     1.0000 0.52405  0.70884  0.15942  Biso   1.000  H
  H207     1.0000 0.15884  0.46326  0.73676  Biso   1.000  H
  H208     1.0000 0.25309  0.12168  0.98835  Biso   1.000  H
  H209     1.0000 0.00936  0.70819  0.35678  Biso   1.000  H
  H210     1.0000 0.65657  0.51018  0.76490  Biso   1.000  H
  H211     1.0000 0.78160  0.61287  0.48866  Biso   1.000  H
  H212     1.0000 0.03769  0.21280  0.14720  Biso   1.000  H
  H213     1.0000 0.37750  0.97893  0.73309  Biso   1.000  H
  H214     1.0000 0.28809  0.62784  0.01821  Biso   1.000  H
  H215     1.0000 0.53285  0.21053  0.35471  Biso   1.000  H
  H216     1.0000 0.87102  0.98268  0.77395  Biso   1.000  H
  H217     1.0000 0.24705  0.47944  0.36534  Biso   1.000  H
  H218     1.0000 0.37642  0.20450  0.48143  Biso   1.000  H
  H219     1.0000 0.53217  0.33232  0.22495  Biso   1.000  H
  H220     1.0000 0.75233  0.46518  0.13349  Biso   1.000  H
  H221     1.0000 0.87364  0.21062  0.99539  Biso   1.000  H
  H222     1.0000 0.01836  0.34189  0.27572  Biso   1.000  H
  H223     1.0000 0.27946  0.99723  0.36826  Biso   1.000  H
  H224     1.0000 0.15325  0.71313  0.49932  Biso   1.000  H
  H225     1.0000 0.01252  0.84327  0.23122  Biso   1.000  H
  H226     1.0000 0.78630  0.97735  0.14170  Biso   1.000  H
  H227     1.0000 0.66271  0.71386  0.01125  Biso   1.000  H
  H228     1.0000 0.49858  0.83822  0.27578  Biso   1.000  H
  H229     1.0000 0.78463  0.49240  0.64069  Biso   1.000  H
  H230     1.0000 0.65248  0.74660  0.49033  Biso   1.000  H
  H231     1.0000 0.51049  0.62790  0.77635  Biso   1.000  H
  H232     1.0000 0.28930  0.49411  0.86525  Biso   1.000  H
  H233     1.0000 0.15527  0.74833  0.00742  Biso   1.000  H
  H234     1.0000 0.00882  0.62450  0.73332  Biso   1.000  H
  H235     1.0000 0.74596  0.98471  0.63805  Biso   1.000  H
  H236     1.0000 0.88164  0.24172  0.51565  Biso   1.000  H
  H237     1.0000 0.01206  0.12462  0.77109  Biso   1.000  H
  H238     1.0000 0.24465  0.96726  0.86197  Biso   1.000  H
  H239     1.0000 0.37893  0.25483  0.97320  Biso   1.000  H
  H240     1.0000 0.50916  0.12632  0.72726  Biso   1.000  H
  H241     1.0000 0.74854  0.48694  0.84671  Biso   1.000  H
  H242     1.0000 0.86672  0.70255  0.49873  Biso   1.000  H
  H243     1.0000 0.51690  0.84132  0.73491  Biso   1.000  H
  H244     1.0000 0.24629  0.47525  0.65519  Biso   1.000  H
  H245     1.0000 0.37610  0.71295  0.01493  Biso   1.000  H
  H246     1.0000 0.00123  0.83786  0.77228  Biso   1.000  H
  H247     1.0000 0.78839  0.98426  0.85464  Biso   1.000  H
  H248     1.0000 0.66502  0.20613  0.50183  Biso   1.000  H
  H249     1.0000 0.00516  0.33731  0.73169  Biso   1.000  H
  H250     1.0000 0.29087  0.96285  0.65060  Biso   1.000  H
  H251     1.0000 0.16592  0.21108  0.98750  Biso   1.000  H
  H252     1.0000 0.52640  0.34196  0.76652  Biso   1.000  H
  H253     1.0000 0.29112  0.46877  0.15637  Biso   1.000  H
  H254     1.0000 0.17306  0.25476  0.50651  Biso   1.000  H
  H255     1.0000 0.52111  0.12256  0.27105  Biso   1.000  H
  H256     1.0000 0.78817  0.46372  0.35271  Biso   1.000  H
  H257     1.0000 0.66858  0.25498  0.00525  Biso   1.000  H
  H258     1.0000 0.01066  0.13373  0.23147  Biso   1.000  H
  H259     1.0000 0.24407  0.00550  0.15383  Biso   1.000  H
  H260     1.0000 0.36338  0.75266  0.50113  Biso   1.000  H
  H261     1.0000 0.03120  0.62956  0.27275  Biso   1.000  H
  H262     1.0000 0.74164  0.98672  0.35125  Biso   1.000  H
  H263     1.0000 0.87807  0.75788  0.98174  Biso   1.000  H
  H264     1.0000 0.53434  0.61583  0.23766  Biso   1.000  H
  H265     1.0000 0.00963  0.21083  0.85798  Biso   1.000  H
  H266     1.0000 0.86860  0.97621  0.22958  Biso   1.000  H
  H267     1.0000 0.24544  0.83777  0.02760  Biso   1.000  H
  H268     1.0000 0.50760  0.20908  0.64216  Biso   1.000  H
  H269     1.0000 0.36451  0.99687  0.27761  Biso   1.000  H
  H270     1.0000 0.74563  0.82855  0.47285  Biso   1.000  H
  H271     1.0000 0.52591  0.71230  0.86606  Biso   1.000  H
  H272     1.0000 0.66499  0.46367  0.22182  Biso   1.000  H
  H273     1.0000 0.28725  0.33986  0.98811  Biso   1.000  H
  H274     1.0000 0.00732  0.71023  0.64456  Biso   1.000  H
  H275     1.0000 0.16416  0.46437  0.27789  Biso   1.000  H
  H276     1.0000 0.79541  0.32728  0.49699  Biso   1.000  H
  H277     1.0000 0.02843  0.75719  0.14991  Biso   1.000  H
  H278     1.0000 0.16357  0.99643  0.77626  Biso   1.000  H
  H279     1.0000 0.79040  0.12919  0.01796  Biso   1.000  H
  H280     1.0000 0.50692  0.75400  0.36091  Biso   1.000  H
  H281     1.0000 0.66145  0.99408  0.72438  Biso   1.000  H
  H282     1.0000 0.28691  0.12261  0.50819  Biso   1.000  H
  H283     1.0000 0.52341  0.24662  0.13823  Biso   1.000  H
  H284     1.0000 0.37202  0.47925  0.77547  Biso   1.000  H
  H285     1.0000 0.75016  0.63000  0.98705  Biso   1.000  H
  H286     1.0000 0.02242  0.25090  0.35744  Biso   1.000  H
  H287     1.0000 0.86861  0.50742  0.72467  Biso   1.000  H
  H288     1.0000 0.24537  0.63143  0.50239  Biso   1.000  H
  H289     1.0000 0.11103  0.20883  0.98189  Biso   1.000  H
  H290     1.0000 0.00605  0.07497  0.23146  Biso   1.000  H
  H291     1.0000 0.24620  0.98664  0.09814  Biso   1.000  H
  H292     1.0000 0.60848  0.20711  0.50575  Biso   1.000  H
  H293     1.0000 0.51720  0.06849  0.27460  Biso   1.000  H
  H294     1.0000 0.74128  0.99283  0.40516  Biso   1.000  H
  H295     1.0000 0.43154  0.70948  0.01536  Biso   1.000  H
  H296     1.0000 0.52340  0.56649  0.23262  Biso   1.000  H
  H297     1.0000 0.28732  0.48101  0.10254  Biso   1.000  H
  H298     1.0000 0.91921  0.70239  0.50603  Biso   1.000  H
  H299     1.0000 0.03750  0.57742  0.27523  Biso   1.000  H
  H300     1.0000 0.79061  0.45927  0.40613  Biso   1.000  H
  H301     1.0000 0.93286  0.76029  0.99185  Biso   1.000  H
  H302     1.0000 0.99932  0.89304  0.77236  Biso   1.000  H
  H303     1.0000 0.78928  0.99452  0.91012  Biso   1.000  H
  H304     1.0000 0.41871  0.75071  0.50510  Biso   1.000  H
  H305     1.0000 0.52035  0.89363  0.73267  Biso   1.000  H
  H306     1.0000 0.28999  0.96549  0.59697  Biso   1.000  H
  H307     1.0000 0.61449  0.25417  0.00907  Biso   1.000  H
  H308     1.0000 0.52876  0.40079  0.76976  Biso   1.000  H
  H309     1.0000 0.74662  0.47934  0.89632  Biso   1.000  H
  H310     1.0000 0.11744  0.25276  0.49777  Biso   1.000  H
  H311     1.0000 0.00859  0.39347  0.73057  Biso   1.000  H
  H312     1.0000 0.24456  0.48118  0.59793  Biso   1.000  H
  H313     1.0000 0.24140  0.95843  0.91571  Biso   1.000  H
  H314     1.0000 0.93057  0.20864  0.00039  Biso   1.000  H
  H315     1.0000 0.01920  0.89805  0.23299  Biso   1.000  H
  H316     1.0000 0.74633  0.97050  0.58522  Biso   1.000  H
  H317     1.0000 0.42957  0.20222  0.48238  Biso   1.000  H
  H318     1.0000 0.49772  0.89121  0.27595  Biso   1.000  H
  H319     1.0000 0.28967  0.49484  0.91744  Biso   1.000  H
  H320     1.0000 0.60960  0.71081  0.01462  Biso   1.000  H
  H321     1.0000 0.53379  0.38438  0.22337  Biso   1.000  H
  H322     1.0000 0.78597  0.47688  0.58930  Biso   1.000  H
  H323     1.0000 0.09893  0.71262  0.50063  Biso   1.000  H
  H324     1.0000 0.01315  0.39383  0.27824  Biso   1.000  H
  H325     1.0000 0.79436  0.98100  0.08622  Biso   1.000  H
  H326     1.0000 0.10460  0.75274  0.00749  Biso   1.000  H
  H327     1.0000 0.01692  0.06848  0.77241  Biso   1.000  H
  H328     1.0000 0.28063  0.99653  0.42078  Biso   1.000  H
  H329     1.0000 0.59955  0.75004  0.49718  Biso   1.000  H
  H330     1.0000 0.50262  0.07490  0.72852  Biso   1.000  H
  H331     1.0000 0.74869  0.46867  0.08264  Biso   1.000  H
  H332     1.0000 0.43052  0.25993  0.98365  Biso   1.000  H
  H333     1.0000 0.50960  0.57435  0.77326  Biso   1.000  H
  H334     1.0000 0.24242  0.48280  0.41974  Biso   1.000  H
  H335     1.0000 0.93396  0.24439  0.51705  Biso   1.000  H
  H336     1.0000 0.01614  0.57064  0.73333  Biso   1.000  H
  H337     1.0000 0.00912  0.21204  0.91082  Biso   1.000  H
  H338     1.0000 0.92293  0.97791  0.23127  Biso   1.000  H
  H339     1.0000 0.24358  0.89231  0.02570  Biso   1.000  H
  H340     1.0000 0.50873  0.21078  0.58505  Biso   1.000  H
  H341     1.0000 0.42044  0.99860  0.27666  Biso   1.000  H
  H342     1.0000 0.74647  0.88269  0.47856  Biso   1.000  H
  H343     1.0000 0.53981  0.70786  0.91819  Biso   1.000  H
  H344     1.0000 0.60821  0.46617  0.22213  Biso   1.000  H
  H345     1.0000 0.28790  0.39378  0.99304  Biso   1.000  H
  H346     1.0000 0.01128  0.70836  0.59248  Biso   1.000  H
  H347     1.0000 0.11087  0.46527  0.27896  Biso   1.000  H
  H348     1.0000 0.79482  0.37975  0.49680  Biso   1.000  H
  H349     1.0000 0.03479  0.75862  0.09473  Biso   1.000  H
  H350     1.0000 0.11320  0.99133  0.77602  Biso   1.000  H
  H351     1.0000 0.79038  0.07552  0.02482  Biso   1.000  H
  H352     1.0000 0.50711  0.75235  0.41454  Biso   1.000  H
  H353     1.0000 0.60583  0.99121  0.72617  Biso   1.000  H
  H354     1.0000 0.28582  0.07063  0.51931  Biso   1.000  H
  H355     1.0000 0.51806  0.24408  0.08672  Biso   1.000  H
  H356     1.0000 0.42884  0.47839  0.77765  Biso   1.000  H
  H357     1.0000 0.74918  0.57916  0.98714  Biso   1.000  H
  H358     1.0000 0.02476  0.25094  0.41054  Biso   1.000  H
  H359     1.0000 0.92182  0.50463  0.72737  Biso   1.000  H
  H360     1.0000 0.24400  0.57892  0.50073  Biso   1.000  H
  H361     1.0000 0.00204  0.70947  0.41331  Biso   1.000  H
  H362     1.0000 0.42881  0.97986  0.73178  Biso   1.000  H
  H363     1.0000 0.75087  0.39336  0.98583  Biso   1.000  H
  H364     1.0000 0.51420  0.71271  0.10742  Biso   1.000  H
  H365     1.0000 0.92538  0.98999  0.77072  Biso   1.000  H
  H366     1.0000 0.25137  0.39676  0.50513  Biso   1.000  H
  H367     1.0000 0.53105  0.20831  0.41234  Biso   1.000  H
  H368     1.0000 0.10479  0.46593  0.73460  Biso   1.000  H
  H369     1.0000 0.79117  0.89784  0.98969  Biso   1.000  H
  H370     1.0000 0.03959  0.20990  0.09482  Biso   1.000  H
  H371     1.0000 0.60214  0.49927  0.76662  Biso   1.000  H
  H372     1.0000 0.28835  0.89705  0.48460  Biso   1.000  H
  H373     1.0000 0.01769  0.24968  0.59216  Biso   1.000  H
  H374     1.0000 0.59677  0.95343  0.27738  Biso   1.000  H
  H375     1.0000 0.28847  0.57348  0.01251  Biso   1.000  H
  H376     1.0000 0.52809  0.25707  0.90474  Biso   1.000  H
  H377     1.0000 0.10265  0.01928  0.23057  Biso   1.000  H
  H378     1.0000 0.78622  0.55933  0.49250  Biso   1.000  H
  H379     1.0000 0.51437  0.75352  0.59669  Biso   1.000  H
  H380     1.0000 0.92956  0.50054  0.27158  Biso   1.000  H
  H381     1.0000 0.24772  0.06840  0.00408  Biso   1.000  H
  H382     1.0000 0.00964  0.75870  0.91488  Biso   1.000  H
  H383     1.0000 0.43312  0.45940  0.23421  Biso   1.000  H
  H384     1.0000 0.74663  0.06355  0.49137  Biso   1.000  H
  H385     1.0000 0.24162  0.44338  0.33931  Biso   1.000  H
  H386     1.0000 0.28974  0.15336  0.46788  Biso   1.000  H
  H387     1.0000 0.49750  0.30480  0.22028  Biso   1.000  H
  H388     1.0000 0.70202  0.43448  0.22320  Biso   1.000  H
  H389     1.0000 0.84832  0.21599  0.03412  Biso   1.000  H
  H390     1.0000 0.99296  0.25283  0.32454  Biso   1.000  H
  H391     1.0000 0.33017  0.97744  0.27750  Biso   1.000  H
  H392     1.0000 0.18725  0.71313  0.46797  Biso   1.000  H
  H393     1.0000 0.99634  0.75826  0.17876  Biso   1.000  H
  H394     1.0000 0.84082  0.94423  0.22189  Biso   1.000  H
  H395     1.0000 0.74607  0.65922  0.01944  Biso   1.000  H
  H396     1.0000 0.53944  0.80885  0.28832  Biso   1.000  H
  H397     1.0000 0.79326  0.52885  0.66307  Biso   1.000  H
  H398     1.0000 0.73850  0.80071  0.51706  Biso   1.000  H
  H399     1.0000 0.47991  0.66165  0.78564  Biso   1.000  H
  H400     1.0000 0.34019  0.51358  0.77659  Biso   1.000  H
  H401     1.0000 0.24676  0.81253  0.99564  Biso   1.000  H
  H402     1.0000 0.04067  0.65456  0.72461  Biso   1.000  H
  H403     1.0000 0.73596  0.94932  0.67239  Biso   1.000  H
  H404     1.0000 0.79161  0.29748  0.52275  Biso   1.000  H
  H405     1.0000 0.97658  0.20955  0.83196  Biso   1.000  H
  H406     1.0000 0.25285  0.00503  0.83315  Biso   1.000  H
  H407     1.0000 0.29222  0.30921  0.95908  Biso   1.000  H
  H408     1.0000 0.47764  0.16263  0.72373  Biso   1.000  H
  H409     1.0000 0.29662  0.43050  0.18394  Biso   1.000  H
  H410     1.0000 0.20090  0.26603  0.46792  Biso   1.000  H
  H411     1.0000 0.49258  0.20435  0.32272  Biso   1.000  H
  H412     1.0000 0.85458  0.44991  0.26668  Biso   1.000  H
  H413     1.0000 0.69773  0.26349  0.96773  Biso   1.000  H
  H414     1.0000 0.00616  0.21500  0.17158  Biso   1.000  H
  H415     1.0000 0.18454  0.99224  0.23672  Biso   1.000  H
  H416     1.0000 0.33944  0.75899  0.46344  Biso   1.000  H
  H417     1.0000 0.99447  0.65546  0.27692  Biso   1.000  H
  H418     1.0000 0.74038  0.95579  0.32972  Biso   1.000  H
  H419     1.0000 0.84747  0.76247  0.01766  Biso   1.000  H
  H420     1.0000 0.49057  0.65143  0.23644  Biso   1.000  H
  H421     1.0000 0.74487  0.52885  0.82266  Biso   1.000  H
  H422     1.0000 0.77988  0.64546  0.51879  Biso   1.000  H
  H423     1.0000 0.47834  0.75716  0.68231  Biso   1.000  H
  H424     1.0000 0.18571  0.49877  0.73650  Biso   1.000  H
  H425     1.0000 0.34418  0.71082  0.98170  Biso   1.000  H
  H426     1.0000 0.05001  0.76601  0.82177  Biso   1.000  H
  H427     1.0000 0.79227  0.01712  0.82309  Biso   1.000  H
  H428     1.0000 0.74360  0.14625  0.52567  Biso   1.000  H
  H429     1.0000 0.04250  0.30532  0.73020  Biso   1.000  H
  H430     1.0000 0.34284  0.01139  0.72092  Biso   1.000  H
  H431     1.0000 0.20429  0.19875  0.95082  Biso   1.000  H
  H432     1.0000 0.50011  0.26101  0.82262  Biso   1.000  H
  H433     1.0000 0.29147  0.93937  0.68492  Biso   1.000  H
  H434     1.0000 0.74009  0.30808  0.03669  Biso   1.000  H
  H435     1.0000 0.05128  0.70799  0.33384  Biso   1.000  H
  H436     1.0000 0.83927  0.94736  0.77653  Biso   1.000  H
  H437     1.0000 0.25077  0.30491  0.54010  Biso   1.000  H
  H438     1.0000 0.55669  0.70550  0.18689  Biso   1.000  H
  H439     1.0000 0.24564  0.43924  0.68519  Biso   1.000  H
  H440     1.0000 0.80019  0.81028  0.95147  Biso   1.000  H
  H441     1.0000 0.55705  0.15208  0.27205  Biso   1.000  H
  H442     1.0000 0.69312  0.47605  0.76092  Biso   1.000  H
  H443     1.0000 0.28587  0.81223  0.51892  Biso   1.000  H
  H444     1.0000 0.04553  0.15352  0.23300  Biso   1.000  H
  H445     1.0000 0.67706  0.98679  0.26159  Biso   1.000  H
  H446     1.0000 0.29828  0.65928  0.04727  Biso   1.000  H
  H447     1.0000 0.97559  0.26195  0.67684  Biso   1.000  H
  H448     1.0000 0.24149  0.03979  0.17911  Biso   1.000  H
  H449     1.0000 0.83943  0.69187  0.46295  Biso   1.000  H
  H450     1.0000 0.55910  0.31102  0.76862  Biso   1.000  H
  H451     1.0000 0.79132  0.50270  0.32024  Biso   1.000  H
  H452     1.0000 0.24510  0.15860  0.02319  Biso   1.000  H
  H453     1.0000 0.54364  0.81158  0.72661  Biso   1.000  H
  H454     1.0000 0.35237  0.48759  0.23864  Biso   1.000  H
  H455     1.0000 0.69963  0.19962  0.46114  Biso   1.000  H
  H456     1.0000 0.97194  0.80445  0.78243  Biso   1.000  H
  H457     1.0000 0.68330  0.74660  0.46166  Biso   1.000  H
  H458     1.0000 0.55629  0.70917  0.82501  Biso   1.000  H
  H459     1.0000 0.83535  0.47377  0.72604  Biso   1.000  H
  H460     1.0000 0.18876  0.75170  0.04026  Biso   1.000  H
  H461     1.0000 0.97553  0.70535  0.67887  Biso   1.000  H
  H462     1.0000 0.29277  0.45248  0.83600  Biso   1.000  H
  H463     1.0000 0.85798  0.24341  0.48008  Biso   1.000  H
  H464     1.0000 0.03737  0.15950  0.76958  Biso   1.000  H
  H465     1.0000 0.69587  0.02681  0.71959  Biso   1.000  H
  H466     1.0000 0.34953  0.25719  0.01209  Biso   1.000  H
  H467     1.0000 0.54631  0.20047  0.66898  Biso   1.000  H
  H468     1.0000 0.18765  0.96574  0.77816  Biso   1.000  H
  H469     1.0000 0.35007  0.20294  0.52374  Biso   1.000  H
  H470     1.0000 0.55568  0.24645  0.17150  Biso   1.000  H
  H471     1.0000 0.19592  0.49958  0.27809  Biso   1.000  H
  H472     1.0000 0.79700  0.15622  0.98174  Biso   1.000  H
  H473     1.0000 0.05021  0.31576  0.27745  Biso   1.000  H
  H474     1.0000 0.74877  0.49894  0.16714  Biso   1.000  H
  H475     1.0000 0.23651  0.66148  0.53155  Biso   1.000  H
  H476     1.0000 0.04720  0.81437  0.23365  Biso   1.000  H
  H477     1.0000 0.28580  0.03692  0.34083  Biso   1.000  H
  H478     1.0000 0.68736  0.71690  0.97574  Biso   1.000  H
  H479     1.0000 0.47208  0.75928  0.32985  Biso   1.000  H
  H480     1.0000 0.78950  0.00362  0.17413  Biso   1.000  H
  N1       1.0000 0.69583  0.15226  0.49344  Biso   1.000  N
  N2       1.0000 0.52364  0.65243  0.18728  Biso   1.000  N
  N3       1.0000 0.19373  0.47020  0.68504  Biso   1.000  N
  N4       1.0000 0.19728  0.15671  0.99055  Biso   1.000  N
  N5       1.0000 0.02223  0.65892  0.32699  Biso   1.000  N
  N6       1.0000 0.69233  0.49780  0.81391  Biso   1.000  N
  N7       1.0000 0.83363  0.64714  0.49585  Biso   1.000  N
  N8       1.0000 0.02301  0.16139  0.17973  Biso   1.000  N
  N9       1.0000 0.34223  0.97109  0.68066  Biso   1.000  N
  N10      1.0000 0.34256  0.65995  0.01134  Biso   1.000  N
  N11      1.0000 0.52926  0.15601  0.32239  Biso   1.000  N
  N12      1.0000 0.84017  0.98009  0.82352  Biso   1.000  N
  N13      1.0000 0.33598  0.80864  0.49210  Biso   1.000  N
  N14      1.0000 0.53010  0.31079  0.81750  Biso   1.000  N
  N15      1.0000 0.84453  0.47624  0.32082  Biso   1.000  N
  N16      1.0000 0.84553  0.81059  0.98494  Biso   1.000  N
  N17      1.0000 0.01134  0.30498  0.68074  Biso   1.000  N
  N18      1.0000 0.34440  0.46448  0.18524  Biso   1.000  N
  N19      1.0000 0.20191  0.30844  0.50433  Biso   1.000  N
  N20      1.0000 0.01112  0.80888  0.82676  Biso   1.000  N
  N21      1.0000 0.68560  0.97608  0.32026  Biso   1.000  N
  N22      1.0000 0.69684  0.30977  0.00208  Biso   1.000  N
  N23      1.0000 0.51222  0.80725  0.68177  Biso   1.000  N
  N24      1.0000 0.19268  0.00897  0.18304  Biso   1.000  N
  N25      1.0000 0.83842  0.49529  0.67404  Biso   1.000  N
  N26      1.0000 0.68949  0.79692  0.48694  Biso   1.000  N
  N27      1.0000 0.51863  0.66005  0.83133  Biso   1.000  N
  N28      1.0000 0.34109  0.48322  0.83169  Biso   1.000  N
  N29      1.0000 0.19419  0.80416  0.01614  Biso   1.000  N
  N30      1.0000 0.00925  0.65761  0.68061  Biso   1.000  N
  N31      1.0000 0.69348  0.98687  0.67127  Biso   1.000  N
  N32      1.0000 0.84862  0.29342  0.50424  Biso   1.000  N
  N33      1.0000 0.00917  0.15851  0.82498  Biso   1.000  N
  N34      1.0000 0.19561  0.98421  0.83055  Biso   1.000  N
  N35      1.0000 0.34275  0.30792  0.98252  Biso   1.000  N
  N36      1.0000 0.51119  0.15727  0.67396  Biso   1.000  N
  N37      1.0000 0.19606  0.47451  0.33147  Biso   1.000  N
  N38      1.0000 0.34284  0.15413  0.49693  Biso   1.000  N
  N39      1.0000 0.52448  0.29940  0.17114  Biso   1.000  N
  N40      1.0000 0.69928  0.46816  0.17009  Biso   1.000  N
  N41      1.0000 0.84374  0.16161  0.01032  Biso   1.000  N
  N42      1.0000 0.01815  0.30555  0.32723  Biso   1.000  N
  N43      1.0000 0.33317  0.00005  0.33229  Biso   1.000  N
  N44      1.0000 0.18913  0.66493  0.50001  Biso   1.000  N
  N45      1.0000 0.02247  0.80887  0.18059  Biso   1.000  N
  N46      1.0000 0.83897  0.97519  0.17535  Biso   1.000  N
  N47      1.0000 0.69546  0.66301  0.99974  Biso   1.000  N
  N48      1.0000 0.50533  0.80718  0.33053  Biso   1.000  N
  O1       1.0000 0.36060  0.52326  0.00593  Biso   1.000  O
  O2       1.0000 0.02763  0.32045  0.54613  Biso   1.000  O
  O3       1.0000 0.55144  0.97531  0.34903  Biso   1.000  O
  O4       1.0000 0.85861  0.51386  0.50283  Biso   1.000  O
  O5       1.0000 0.52303  0.32930  0.95206  Biso   1.000  O
  O6       1.0000 0.05715  0.99721  0.16052  Biso   1.000  O
  O7       1.0000 0.17552  0.02262  0.00716  Biso   1.000  O
  O8       1.0000 0.51995  0.82233  0.54621  Biso   1.000  O
  O9       1.0000 0.97569  0.49136  0.34408  Biso   1.000  O
  O10      1.0000 0.67193  0.01767  0.49968  Biso   1.000  O
  O11      1.0000 0.01786  0.82954  0.96231  Biso   1.000  O
  O12      1.0000 0.48042  0.47460  0.16267  Biso   1.000  O
  O13      1.0000 0.67595  0.44244  0.98969  Biso   1.000  O
  O14      1.0000 0.01702  0.63538  0.45969  Biso   1.000  O
  O15      1.0000 0.47654  0.98272  0.65736  Biso   1.000  O
  O16      1.0000 0.17474  0.44280  0.50974  Biso   1.000  O
  O17      1.0000 0.51803  0.63965  0.05269  Biso   1.000  O
  O18      1.0000 0.97652  0.98255  0.84308  Biso   1.000  O
  O19      1.0000 0.86571  0.94658  0.98993  Biso   1.000  O
  O20      1.0000 0.52642  0.13673  0.45647  Biso   1.000  O
  O21      1.0000 0.05788  0.48167  0.66237  Biso   1.000  O
  O22      1.0000 0.36014  0.94430  0.48941  Biso   1.000  O
  O23      1.0000 0.02439  0.14149  0.04437  Biso   1.000  O
  O24      1.0000 0.55776  0.48947  0.84020  Biso   1.000  O
  O25      1.0000 0.97314  0.98247  0.15901  Biso   1.000  O
  O26      1.0000 0.17141  0.93849  0.01254  Biso   1.000  O
  O27      1.0000 0.01232  0.13814  0.95875  Biso   1.000  O
  O28      1.0000 0.46599  0.98485  0.35009  Biso   1.000  O
  O29      1.0000 0.67437  0.93265  0.48870  Biso   1.000  O
  O30      1.0000 0.51882  0.13797  0.53964  Biso   1.000  O
  O31      1.0000 0.56124  0.47683  0.15310  Biso   1.000  O
  O32      1.0000 0.35981  0.43937  0.00651  Biso   1.000  O
  O33      1.0000 0.52331  0.63891  0.96784  Biso   1.000  O
  O34      1.0000 0.05898  0.47791  0.34815  Biso   1.000  O
  O35      1.0000 0.86622  0.43064  0.50362  Biso   1.000  O
  O36      1.0000 0.01253  0.63310  0.54607  Biso   1.000  O
  O37      1.0000 0.06125  0.98403  0.84444  Biso   1.000  O
  O38      1.0000 0.86210  0.02889  0.00596  Biso   1.000  O
  O39      1.0000 0.02284  0.82942  0.04677  Biso   1.000  O
  O40      1.0000 0.55927  0.98430  0.65374  Biso   1.000  O
  O41      1.0000 0.35892  0.02283  0.51776  Biso   1.000  O
  O42      1.0000 0.50669  0.82593  0.46337  Biso   1.000  O
  O43      1.0000 0.47599  0.47551  0.84491  Biso   1.000  O
  O44      1.0000 0.67593  0.52688  0.99251  Biso   1.000  O
  O45      1.0000 0.52120  0.32073  0.03740  Biso   1.000  O
  O46      1.0000 0.97470  0.48340  0.66064  Biso   1.000  O
  O47      1.0000 0.17479  0.52814  0.50990  Biso   1.000  O
  O48      1.0000 0.01783  0.32258  0.46340  Biso   1.000  O
  O49      1.0000 0.02211  0.94714  0.15944  Biso   1.000  O
  O50      1.0000 0.17113  0.97544  0.96511  Biso   1.000  O
  O51      1.0000 0.97922  0.14134  0.00884  Biso   1.000  O
  O52      1.0000 0.50184  0.94035  0.34906  Biso   1.000  O
  O53      1.0000 0.67261  0.96801  0.54046  Biso   1.000  O
  O54      1.0000 0.47816  0.13692  0.49391  Biso   1.000  O
  O55      1.0000 0.52225  0.43471  0.15315  Biso   1.000  O
  O56      1.0000 0.35869  0.48191  0.96636  Biso   1.000  O
  O57      1.0000 0.56054  0.63906  0.00852  Biso   1.000  O
  O58      1.0000 0.01318  0.44163  0.35173  Biso   1.000  O
  O59      1.0000 0.85944  0.47117  0.54192  Biso   1.000  O
  O60      1.0000 0.05510  0.63804  0.50313  Biso   1.000  O
  O61      1.0000 0.01404  0.02460  0.84346  Biso   1.000  O
  O62      1.0000 0.86311  0.97710  0.03966  Biso   1.000  O
  O63      1.0000 0.06048  0.82406  0.00162  Biso   1.000  O
  O64      1.0000 0.51798  0.02531  0.65533  Biso   1.000  O
  O65      1.0000 0.35715  0.99963  0.46374  Biso   1.000  O
  O66      1.0000 0.55446  0.82439  0.49988  Biso   1.000  O
  O67      1.0000 0.50923  0.52643  0.84690  Biso   1.000  O
  O68      1.0000 0.67984  0.48190  0.03383  Biso   1.000  O
  O69      1.0000 0.47710  0.32826  0.99584  Biso   1.000  O
  O70      1.0000 0.02034  0.52516  0.66103  Biso   1.000  O
  O71      1.0000 0.17626  0.48626  0.46814  Biso   1.000  O
  O72      1.0000 0.98095  0.31801  0.51271  Biso   1.000  O
  O73      1.0000 0.01370  0.44109  0.65621  Biso   1.000  O
  O74      1.0000 0.67153  0.97780  0.45596  Biso   1.000  O
  O75      1.0000 0.47825  0.63650  0.00755  Biso   1.000  O
  O76      1.0000 0.52072  0.44401  0.84176  Biso   1.000  O
  O77      1.0000 0.17407  0.98433  0.05074  Biso   1.000  O
  O78      1.0000 0.97048  0.63204  0.49968  Biso   1.000  O
  O79      1.0000 0.51983  0.94199  0.66050  Biso   1.000  O
  O80      1.0000 0.86055  0.47031  0.45837  Biso   1.000  O
  O81      1.0000 0.06244  0.14066  0.99642  Biso   1.000  O
  O82      1.0000 0.01903  0.94113  0.84421  Biso   1.000  O
  O83      1.0000 0.35905  0.48024  0.05128  Biso   1.000  O
  O84      1.0000 0.56098  0.13485  0.50508  Biso   1.000  O
  O85      1.0000 0.02610  0.52349  0.34489  Biso   1.000  O
  O86      1.0000 0.36093  0.97093  0.54644  Biso   1.000  O
  O87      1.0000 0.56299  0.32285  0.99834  Biso   1.000  O
  O88      1.0000 0.52058  0.52055  0.15751  Biso   1.000  O
  O89      1.0000 0.86072  0.99672  0.95640  Biso   1.000  O
  O90      1.0000 0.06261  0.31924  0.50161  Biso   1.000  O
  O91      1.0000 0.51492  0.02534  0.34640  Biso   1.000  O
  O92      1.0000 0.17567  0.48539  0.55132  Biso   1.000  O
  O93      1.0000 0.97641  0.83245  0.00178  Biso   1.000  O
  O94      1.0000 0.00818  0.02941  0.16060  Biso   1.000  O
  O95      1.0000 0.67603  0.48345  0.94891  Biso   1.000  O
  O96      1.0000 0.47000  0.82160  0.50672  Biso   1.000  O
  O97      1.0000 0.47742  0.18512  0.49439  Biso   1.000  O
  O98      1.0000 0.52172  0.43402  0.20163  Biso   1.000  O
  O99      1.0000 0.22438  0.48539  0.46464  Biso   1.000  O
  O100     1.0000 0.97728  0.19000  0.00510  Biso   1.000  O
  O101     1.0000 0.01313  0.44040  0.30265  Biso   1.000  O
  O102     1.0000 0.72786  0.48466  0.03380  Biso   1.000  O
  O103     1.0000 0.05606  0.68692  0.50303  Biso   1.000  O
  O104     1.0000 0.02138  0.94768  0.20884  Biso   1.000  O
  O105     1.0000 0.30940  0.99323  0.46921  Biso   1.000  O
  O106     1.0000 0.56266  0.68766  0.01783  Biso   1.000  O
  O107     1.0000 0.50308  0.94056  0.29879  Biso   1.000  O
  O108     1.0000 0.81426  0.97735  0.04272  Biso   1.000  O
  O109     1.0000 0.55411  0.77616  0.50196  Biso   1.000  O
  O110     1.0000 0.50830  0.52651  0.79853  Biso   1.000  O
  O111     1.0000 0.81251  0.47420  0.53858  Biso   1.000  O
  O112     1.0000 0.05644  0.77753  0.00048  Biso   1.000  O
  O113     1.0000 0.01762  0.52416  0.70994  Biso   1.000  O
  O114     1.0000 0.30983  0.48380  0.96464  Biso   1.000  O
  O115     1.0000 0.98298  0.26966  0.50646  Biso   1.000  O
  O116     1.0000 0.01379  0.02461  0.79531  Biso   1.000  O
  O117     1.0000 0.72215  0.96543  0.53732  Biso   1.000  O
  O118     1.0000 0.47624  0.28010  0.98958  Biso   1.000  O
  O119     1.0000 0.51262  0.02491  0.70398  Biso   1.000  O
  O120     1.0000 0.21953  0.97419  0.96432  Biso   1.000  O
  O121     1.0000 0.05719  0.47758  0.70956  Biso   1.000  O
  O122     1.0000 0.72074  0.01667  0.50660  Biso   1.000  O
  O123     1.0000 0.51778  0.68984  0.05228  Biso   1.000  O
  O124     1.0000 0.55496  0.48911  0.79294  Biso   1.000  O
  O125     1.0000 0.22447  0.02233  0.00477  Biso   1.000  O
  O126     1.0000 0.01187  0.68421  0.46046  Biso   1.000  O
  O127     1.0000 0.47782  0.98295  0.70515  Biso   1.000  O
  O128     1.0000 0.81018  0.51273  0.49696  Biso   1.000  O
  O129     1.0000 0.02027  0.18826  0.04450  Biso   1.000  O
  O130     1.0000 0.97676  0.97956  0.79418  Biso   1.000  O
  O131     1.0000 0.31342  0.52466  0.01039  Biso   1.000  O
  O132     1.0000 0.52535  0.18472  0.45720  Biso   1.000  O
  O133     1.0000 0.97846  0.48888  0.29697  Biso   1.000  O
  O134     1.0000 0.31175  0.94326  0.49427  Biso   1.000  O
  O135     1.0000 0.52008  0.27981  0.95235  Biso   1.000  O
  O136     1.0000 0.48095  0.47723  0.21193  Biso   1.000  O
  O137     1.0000 0.81868  0.94610  0.99295  Biso   1.000  O
  O138     1.0000 0.02323  0.27190  0.54593  Biso   1.000  O
  O139     1.0000 0.54802  0.96816  0.30228  Biso   1.000  O
  O140     1.0000 0.22379  0.44463  0.50664  Biso   1.000  O
  O141     1.0000 0.01180  0.78133  0.96212  Biso   1.000  O
  O142     1.0000 0.05356  0.99891  0.20830  Biso   1.000  O
  O143     1.0000 0.72371  0.44353  0.99256  Biso   1.000  O
  O144     1.0000 0.51586  0.77346  0.54749  Biso   1.000  O
  O145     1.0000 0.56295  0.47956  0.20098  Biso   1.000  O
  O146     1.0000 0.22295  0.52992  0.50814  Biso   1.000  O
  O147     1.0000 0.51109  0.18709  0.54013  Biso   1.000  O
  O148     1.0000 0.06114  0.47497  0.29925  Biso   1.000  O
  O149     1.0000 0.72455  0.52859  0.99049  Biso   1.000  O
  O150     1.0000 0.01577  0.18620  0.96173  Biso   1.000  O
  O151     1.0000 0.97330  0.98011  0.20846  Biso   1.000  O
  O152     1.0000 0.31090  0.02168  0.51746  Biso   1.000  O
  O153     1.0000 0.01035  0.68233  0.54634  Biso   1.000  O
  O154     1.0000 0.47013  0.99172  0.30042  Biso   1.000  O
  O155     1.0000 0.81334  0.02703  0.00789  Biso   1.000  O
  O156     1.0000 0.52507  0.68728  0.96669  Biso   1.000  O
  O157     1.0000 0.47207  0.47880  0.79702  Biso   1.000  O
  O158     1.0000 0.81830  0.42979  0.49951  Biso   1.000  O
  O159     1.0000 0.50516  0.77851  0.46316  Biso   1.000  O
  O160     1.0000 0.97196  0.48624  0.70888  Biso   1.000  O
  O161     1.0000 0.31155  0.44118  0.00822  Biso   1.000  O
  O162     1.0000 0.02347  0.78237  0.04554  Biso   1.000  O
  O163     1.0000 0.06192  0.98862  0.79627  Biso   1.000  O
  O164     1.0000 0.72183  0.93309  0.48984  Biso   1.000  O
  O165     1.0000 0.02674  0.27442  0.46215  Biso   1.000  O
  O166     1.0000 0.55863  0.99088  0.70188  Biso   1.000  O
  O167     1.0000 0.22044  0.93930  0.01156  Biso   1.000  O
  O168     1.0000 0.51268  0.27296  0.03422  Biso   1.000  O
  O169     1.0000 0.00207  0.02923  0.20759  Biso   1.000  O
  O170     1.0000 0.22308  0.98529  0.04916  Biso   1.000  O
  O171     1.0000 0.06452  0.18824  0.00022  Biso   1.000  O
  O172     1.0000 0.52327  0.02157  0.29757  Biso   1.000  O
  O173     1.0000 0.71761  0.98197  0.45451  Biso   1.000  O
  O174     1.0000 0.55964  0.18380  0.50727  Biso   1.000  O
  O175     1.0000 0.52257  0.51881  0.20666  Biso   1.000  O
  O176     1.0000 0.31095  0.48215  0.05101  Biso   1.000  O
  O177     1.0000 0.47844  0.68449  0.00577  Biso   1.000  O
  O178     1.0000 0.02639  0.52665  0.29682  Biso   1.000  O
  O179     1.0000 0.81323  0.46680  0.45619  Biso   1.000  O
  O180     1.0000 0.96914  0.68235  0.50434  Biso   1.000  O
  O181     1.0000 0.01977  0.94040  0.79511  Biso   1.000  O
  O182     1.0000 0.81253  0.99618  0.95868  Biso   1.000  O
  O183     1.0000 0.97751  0.78555  0.00896  Biso   1.000  O
  O184     1.0000 0.52385  0.94266  0.70924  Biso   1.000  O
  O185     1.0000 0.31151  0.97079  0.54819  Biso   1.000  O
  O186     1.0000 0.47042  0.77363  0.51146  Biso   1.000  O
  O187     1.0000 0.51682  0.44434  0.79428  Biso   1.000  O
  O188     1.0000 0.72438  0.48144  0.94469  Biso   1.000  O
  O189     1.0000 0.56165  0.27431  0.99645  Biso   1.000  O
  O190     1.0000 0.01457  0.44120  0.70419  Biso   1.000  O
  O191     1.0000 0.22469  0.48598  0.55026  Biso   1.000  O
  O192     1.0000 0.06578  0.27149  0.50255  Biso   1.000  O
