data_image0
_cell_length_a       46.9181
_cell_length_b       46.6983
_cell_length_c       46.5097
_cell_angle_alpha    90
_cell_angle_beta     90
_cell_angle_gamma    90

_symmetry_space_group_name_H-M    "P 1"
_symmetry_int_tables_number       1

loop_
  _symmetry_equiv_pos_as_xyz
  'x, y, z'

loop_
  _atom_site_label
  _atom_site_occupancy
  _atom_site_fract_x
  _atom_site_fract_y
  _atom_site_fract_z
  _atom_site_thermal_displace_type
  _atom_site_B_iso_or_equiv
  _atom_site_type_symbol
  C1       1.0000 0.56869  0.95632  0.33213  Biso   1.000  C
  C2       1.0000 0.34178  0.52324  0.02292  Biso   1.000  C
  C3       1.0000 0.03451  0.28225  0.57243  Biso   1.000  C
  C4       1.0000 0.06747  0.96955  0.19504  Biso   1.000  C
  C5       1.0000 0.84497  0.52204  0.51602  Biso   1.000  C
  C6       1.0000 0.50355  0.28480  0.95709  Biso   1.000  C
  C7       1.0000 0.96841  0.46527  0.33295  Biso   1.000  C
  C8       1.0000 0.20398  0.02335  0.01526  Biso   1.000  C
  C9       1.0000 0.54087  0.78670  0.57585  Biso   1.000  C
  C10      1.0000 0.46763  0.45665  0.18916  Biso   1.000  C
  C11      1.0000 0.70964  0.02663  0.51099  Biso   1.000  C
  C12      1.0000 0.03883  0.78037  0.95340  Biso   1.000  C
  C13      1.0000 0.48408  0.98012  0.70215  Biso   1.000  C
  C14      1.0000 0.69994  0.40658  0.01557  Biso   1.000  C
  C15      1.0000 0.02773  0.64068  0.45614  Biso   1.000  C
  C16      1.0000 0.98341  0.96317  0.82942  Biso   1.000  C
  C17      1.0000 0.21087  0.41104  0.51226  Biso   1.000  C
  C18      1.0000 0.52844  0.64117  0.06573  Biso   1.000  C
  C19      1.0000 0.08262  0.46614  0.69319  Biso   1.000  C
  C20      1.0000 0.84897  0.90268  0.00573  Biso   1.000  C
  C21      1.0000 0.51720  0.14962  0.45980  Biso   1.000  C
  C22      1.0000 0.58184  0.46879  0.83128  Biso   1.000  C
  C23      1.0000 0.34879  0.90868  0.52339  Biso   1.000  C
  C24      1.0000 0.00882  0.14229  0.07590  Biso   1.000  C
  C25      1.0000 0.34992  0.01859  0.53622  Biso   1.000  C
  C26      1.0000 0.51677  0.28314  0.06309  Biso   1.000  C
  C27      1.0000 0.07967  0.44780  0.33245  Biso   1.000  C
  C28      1.0000 0.83917  0.01047  0.00039  Biso   1.000  C
  C29      1.0000 0.01317  0.28589  0.46516  Biso   1.000  C
  C30      1.0000 0.57639  0.47070  0.19356  Biso   1.000  C
  C31      1.0000 0.21942  0.51975  0.50138  Biso   1.000  C
  C32      1.0000 0.03496  0.77962  0.06092  Biso   1.000  C
  C33      1.0000 0.45986  0.97071  0.34155  Biso   1.000  C
  C34      1.0000 0.71329  0.51413  0.01377  Biso   1.000  C
  C35      1.0000 0.53141  0.78400  0.46720  Biso   1.000  C
  C36      1.0000 0.96077  0.94140  0.18972  Biso   1.000  C
  C37      1.0000 0.71284  0.91885  0.50086  Biso   1.000  C
  C38      1.0000 0.53555  0.64343  0.95615  Biso   1.000  C
  C39      1.0000 0.97228  0.46390  0.69512  Biso   1.000  C
  C40      1.0000 0.20965  0.91399  0.02639  Biso   1.000  C
  C41      1.0000 0.03809  0.64605  0.56659  Biso   1.000  C
  C42      1.0000 0.46966  0.46144  0.83433  Biso   1.000  C
  C43      1.0000 0.84229  0.41475  0.51383  Biso   1.000  C
  C44      1.0000 0.01161  0.14178  0.96431  Biso   1.000  C
  C45      1.0000 0.59073  0.96151  0.69293  Biso   1.000  C
  C46      1.0000 0.33547  0.41764  0.00459  Biso   1.000  C
  C47      1.0000 0.52915  0.14908  0.57079  Biso   1.000  C
  C48      1.0000 0.09181  0.97052  0.83732  Biso   1.000  C
  C49      1.0000 0.03501  0.01874  0.83400  Biso   1.000  C
  C50      1.0000 0.83914  0.95999  0.05850  Biso   1.000  C
  C51      1.0000 0.09167  0.78275  0.01048  Biso   1.000  C
  C52      1.0000 0.54853  0.02378  0.69983  Biso   1.000  C
  C53      1.0000 0.34168  0.96989  0.47373  Biso   1.000  C
  C54      1.0000 0.58960  0.79029  0.51657  Biso   1.000  C
  C55      1.0000 0.52414  0.51952  0.82966  Biso   1.000  C
  C56      1.0000 0.70373  0.46516  0.07072  Biso   1.000  C
  C57      1.0000 0.45276  0.28602  0.01473  Biso   1.000  C
  C58      1.0000 0.02345  0.51942  0.69201  Biso   1.000  C
  C59      1.0000 0.21215  0.46084  0.45503  Biso   1.000  C
  C60      1.0000 0.96791  0.28641  0.52629  Biso   1.000  C
  C61      1.0000 0.02503  0.90227  0.19155  Biso   1.000  C
  C62      1.0000 0.21741  0.96620  0.97166  Biso   1.000  C
  C63      1.0000 0.95786  0.14033  0.01469  Biso   1.000  C
  C64      1.0000 0.50799  0.90892  0.34153  Biso   1.000  C
  C65      1.0000 0.71547  0.96622  0.56122  Biso   1.000  C
  C66      1.0000 0.46911  0.14954  0.52671  Biso   1.000  C
  C67      1.0000 0.52471  0.40937  0.19242  Biso   1.000  C
  C68      1.0000 0.34068  0.47690  0.95932  Biso   1.000  C
  C69      1.0000 0.58769  0.64134  0.01719  Biso   1.000  C
  C70      1.0000 0.01424  0.40324  0.32925  Biso   1.000  C
  C71      1.0000 0.84534  0.46940  0.56798  Biso   1.000  C
  C72      1.0000 0.08785  0.64425  0.50719  Biso   1.000  C
  C73      1.0000 0.03465  0.51028  0.33714  Biso   1.000  C
  C74      1.0000 0.35646  0.95810  0.58139  Biso   1.000  C
  C75      1.0000 0.56413  0.28748  0.00546  Biso   1.000  C
  C76      1.0000 0.51528  0.51812  0.19754  Biso   1.000  C
  C77      1.0000 0.85268  0.95597  0.95216  Biso   1.000  C
  C78      1.0000 0.07935  0.28622  0.51110  Biso   1.000  C
  C79      1.0000 0.52274  0.01677  0.34137  Biso   1.000  C
  C80      1.0000 0.21451  0.47319  0.56351  Biso   1.000  C
  C81      1.0000 0.98226  0.77949  0.00580  Biso   1.000  C
  C82      1.0000 0.00315  0.00797  0.19519  Biso   1.000  C
  C83      1.0000 0.70551  0.45900  0.96037  Biso   1.000  C
  C84      1.0000 0.47937  0.78619  0.52412  Biso   1.000  C
  C85      1.0000 0.02577  0.41078  0.69319  Biso   1.000  C
  C86      1.0000 0.70660  0.97308  0.45223  Biso   1.000  C
  C87      1.0000 0.47892  0.63689  0.00859  Biso   1.000  C
  C88      1.0000 0.52725  0.41141  0.83420  Biso   1.000  C
  C89      1.0000 0.20458  0.96936  0.07907  Biso   1.000  C
  C90      1.0000 0.97584  0.64451  0.51491  Biso   1.000  C
  C91      1.0000 0.52846  0.91702  0.69826  Biso   1.000  C
  C92      1.0000 0.84331  0.47071  0.46075  Biso   1.000  C
  C93      1.0000 0.06583  0.14456  0.01727  Biso   1.000  C
  C94      1.0000 0.04082  0.91286  0.83330  Biso   1.000  C
  C95      1.0000 0.33630  0.46089  0.06458  Biso   1.000  C
  C96      1.0000 0.57917  0.15098  0.51192  Biso   1.000  C
  C97      1.0000 0.70795  0.05807  0.51680  Biso   1.000  C
  C98      1.0000 0.52739  0.64237  0.09814  Biso   1.000  C
  C99      1.0000 0.11392  0.46670  0.69182  Biso   1.000  C
  C100     1.0000 0.20122  0.05414  0.00837  Biso   1.000  C
  C101     1.0000 0.03195  0.64148  0.42364  Biso   1.000  C
  C102     1.0000 0.61350  0.47096  0.83124  Biso   1.000  C
  C103     1.0000 0.84609  0.55548  0.51254  Biso   1.000  C
  C104     1.0000 0.00251  0.14016  0.10688  Biso   1.000  C
  C105     1.0000 0.45238  0.98329  0.70294  Biso   1.000  C
  C106     1.0000 0.34497  0.55468  0.02654  Biso   1.000  C
  C107     1.0000 0.51404  0.14942  0.42735  Biso   1.000  C
  C108     1.0000 0.95175  0.96055  0.82860  Biso   1.000  C
  C109     1.0000 0.34957  0.87656  0.51919  Biso   1.000  C
  C110     1.0000 0.50368  0.28486  0.92512  Biso   1.000  C
  C111     1.0000 0.93635  0.46714  0.33329  Biso   1.000  C
  C112     1.0000 0.84954  0.87059  0.00842  Biso   1.000  C
  C113     1.0000 0.03642  0.28188  0.60551  Biso   1.000  C
  C114     1.0000 0.43564  0.45311  0.18856  Biso   1.000  C
  C115     1.0000 0.20886  0.37901  0.50734  Biso   1.000  C
  C116     1.0000 0.03677  0.78306  0.92186  Biso   1.000  C
  C117     1.0000 0.60126  0.95403  0.33030  Biso   1.000  C
  C118     1.0000 0.69679  0.37502  0.01183  Biso   1.000  C
  C119     1.0000 0.53747  0.78698  0.60794  Biso   1.000  C
  C120     1.0000 0.09906  0.97719  0.19756  Biso   1.000  C
  C121     1.0000 0.83592  0.95919  0.09055  Biso   1.000  C
  C122     1.0000 0.12472  0.78493  0.00974  Biso   1.000  C
  C123     1.0000 0.03634  0.05151  0.83533  Biso   1.000  C
  C124     1.0000 0.33882  0.96990  0.44168  Biso   1.000  C
  C125     1.0000 0.62150  0.79100  0.51908  Biso   1.000  C
  C126     1.0000 0.55098  0.05524  0.69769  Biso   1.000  C
  C127     1.0000 0.70535  0.46894  0.10304  Biso   1.000  C
  C128     1.0000 0.42053  0.28818  0.01546  Biso   1.000  C
  C129     1.0000 0.52602  0.55153  0.82883  Biso   1.000  C
  C130     1.0000 0.21410  0.45650  0.42167  Biso   1.000  C
  C131     1.0000 0.93603  0.28778  0.52522  Biso   1.000  C
  C132     1.0000 0.02332  0.55147  0.69266  Biso   1.000  C
  C133     1.0000 0.21916  0.96407  0.93914  Biso   1.000  C
  C134     1.0000 0.92712  0.13923  0.00596  Biso   1.000  C
  C135     1.0000 0.02713  0.87091  0.19183  Biso   1.000  C
  C136     1.0000 0.71486  0.96135  0.59397  Biso   1.000  C
  C137     1.0000 0.43858  0.14800  0.53262  Biso   1.000  C
  C138     1.0000 0.50609  0.87731  0.34206  Biso   1.000  C
  C139     1.0000 0.34065  0.47298  0.92742  Biso   1.000  C
  C140     1.0000 0.61907  0.64027  0.02828  Biso   1.000  C
  C141     1.0000 0.52273  0.37777  0.19181  Biso   1.000  C
  C142     1.0000 0.84613  0.47314  0.59947  Biso   1.000  C
  C143     1.0000 0.11937  0.64543  0.50147  Biso   1.000  C
  C144     1.0000 0.01143  0.37054  0.32965  Biso   1.000  C
  C145     1.0000 0.33652  0.45588  0.09534  Biso   1.000  C
  C146     1.0000 0.11237  0.28759  0.51148  Biso   1.000  C
  C147     1.0000 0.52559  0.04958  0.33868  Biso   1.000  C
  C148     1.0000 0.84249  0.47507  0.42890  Biso   1.000  C
  C149     1.0000 0.59716  0.28670  0.00500  Biso   1.000  C
  C150     1.0000 0.99792  0.03864  0.19616  Biso   1.000  C
  C151     1.0000 0.20209  0.96801  0.11057  Biso   1.000  C
  C152     1.0000 0.44779  0.78492  0.52496  Biso   1.000  C
  C153     1.0000 0.04036  0.54121  0.33388  Biso   1.000  C
  C154     1.0000 0.70462  0.97302  0.42005  Biso   1.000  C
  C155     1.0000 0.95102  0.77811  0.00656  Biso   1.000  C
  C156     1.0000 0.51858  0.54994  0.19656  Biso   1.000  C
  C157     1.0000 0.70584  0.45987  0.92829  Biso   1.000  C
  C158     1.0000 0.94388  0.64634  0.51601  Biso   1.000  C
  C159     1.0000 0.52446  0.88510  0.70000  Biso   1.000  C
  C160     1.0000 0.21164  0.47277  0.59560  Biso   1.000  C
  C161     1.0000 0.44730  0.63761  0.01033  Biso   1.000  C
  C162     1.0000 0.03940  0.88149  0.83188  Biso   1.000  C
  C163     1.0000 0.85350  0.95283  0.92002  Biso   1.000  C
  C164     1.0000 0.60944  0.15201  0.51916  Biso   1.000  C
  C165     1.0000 0.02293  0.37900  0.69455  Biso   1.000  C
  C166     1.0000 0.35701  0.96119  0.61318  Biso   1.000  C
  C167     1.0000 0.09719  0.14414  0.01097  Biso   1.000  C
  C168     1.0000 0.52828  0.37854  0.83324  Biso   1.000  C
  C169     1.0000 0.03791  0.77828  0.09499  Biso   1.000  C
  C170     1.0000 0.12254  0.97181  0.84101  Biso   1.000  C
  C171     1.0000 0.83795  0.04246  0.99370  Biso   1.000  C
  C172     1.0000 0.53229  0.78175  0.43335  Biso   1.000  C
  C173     1.0000 0.62092  0.95297  0.69147  Biso   1.000  C
  C174     1.0000 0.34753  0.04995  0.53485  Biso   1.000  C
  C175     1.0000 0.51926  0.28053  0.09579  Biso   1.000  C
  C176     1.0000 0.43843  0.45865  0.83448  Biso   1.000  C
  C177     1.0000 0.71484  0.54507  0.01727  Biso   1.000  C
  C178     1.0000 0.00581  0.28387  0.43365  Biso   1.000  C
  C179     1.0000 0.93985  0.46080  0.69633  Biso   1.000  C
  C180     1.0000 0.21788  0.55015  0.49423  Biso   1.000  C
  C181     1.0000 0.01363  0.14381  0.93141  Biso   1.000  C
  C182     1.0000 0.92926  0.93431  0.18654  Biso   1.000  C
  C183     1.0000 0.21103  0.88227  0.02583  Biso   1.000  C
  C184     1.0000 0.52781  0.14842  0.60291  Biso   1.000  C
  C185     1.0000 0.42753  0.96769  0.34231  Biso   1.000  C
  C186     1.0000 0.71355  0.88735  0.49672  Biso   1.000  C
  C187     1.0000 0.53457  0.64616  0.92418  Biso   1.000  C
  C188     1.0000 0.60944  0.47515  0.19595  Biso   1.000  C
  C189     1.0000 0.32931  0.38647  0.99881  Biso   1.000  C
  C190     1.0000 0.03697  0.64543  0.59841  Biso   1.000  C
  C191     1.0000 0.11254  0.44285  0.33189  Biso   1.000  C
  C192     1.0000 0.84109  0.38322  0.51893  Biso   1.000  C
  C193     1.0000 0.88080  0.95716  0.90522  Biso   1.000  C
  C194     1.0000 0.93368  0.80521  0.00646  Biso   1.000  C
  C195     1.0000 0.04215  0.86504  0.85901  Biso   1.000  C
  C196     1.0000 0.38381  0.96992  0.62821  Biso   1.000  C
  C197     1.0000 0.42990  0.81115  0.52908  Biso   1.000  C
  C198     1.0000 0.52876  0.86863  0.67266  Biso   1.000  C
  C199     1.0000 0.67949  0.46834  0.91234  Biso   1.000  C
  C200     1.0000 0.61469  0.31276  0.00660  Biso   1.000  C
  C201     1.0000 0.52136  0.36291  0.85977  Biso   1.000  C
  C202     1.0000 0.18344  0.47335  0.61000  Biso   1.000  C
  C203     1.0000 0.12810  0.31478  0.50799  Biso   1.000  C
  C204     1.0000 0.02475  0.36183  0.66861  Biso   1.000  C
  C205     1.0000 0.17342  0.96904  0.12436  Biso   1.000  C
  C206     1.0000 0.11521  0.11745  0.01226  Biso   1.000  C
  C207     1.0000 0.00048  0.05679  0.17092  Biso   1.000  C
  C208     1.0000 0.67695  0.97338  0.40373  Biso   1.000  C
  C209     1.0000 0.62726  0.12500  0.51867  Biso   1.000  C
  C210     1.0000 0.52507  0.06889  0.36310  Biso   1.000  C
  C211     1.0000 0.36436  0.45634  0.11110  Biso   1.000  C
  C212     1.0000 0.42919  0.61188  0.01296  Biso   1.000  C
  C213     1.0000 0.52171  0.56532  0.16916  Biso   1.000  C
  C214     1.0000 0.86904  0.47438  0.41355  Biso   1.000  C
  C215     1.0000 0.92595  0.62012  0.51624  Biso   1.000  C
  C216     1.0000 0.03714  0.55944  0.36025  Biso   1.000  C
  C217     1.0000 0.13965  0.96653  0.86840  Biso   1.000  C
  C218     1.0000 0.86348  0.06010  0.99580  Biso   1.000  C
  C219     1.0000 0.03719  0.80438  0.11173  Biso   1.000  C
  C220     1.0000 0.63663  0.95480  0.66373  Biso   1.000  C
  C221     1.0000 0.37443  0.06554  0.53200  Biso   1.000  C
  C222     1.0000 0.52563  0.80804  0.41742  Biso   1.000  C
  C223     1.0000 0.42297  0.46396  0.86121  Biso   1.000  C
  C224     1.0000 0.68673  0.56081  0.01972  Biso   1.000  C
  C225     1.0000 0.52211  0.30817  0.11070  Biso   1.000  C
  C226     1.0000 0.92494  0.46325  0.66768  Biso   1.000  C
  C227     1.0000 0.18931  0.56588  0.49541  Biso   1.000  C
  C228     1.0000 0.00521  0.31003  0.41438  Biso   1.000  C
  C229     1.0000 0.91144  0.94031  0.16115  Biso   1.000  C
  C230     1.0000 0.18611  0.86563  0.01884  Biso   1.000  C
  C231     1.0000 0.01748  0.11723  0.91501  Biso   1.000  C
  C232     1.0000 0.41330  0.96827  0.37001  Biso   1.000  C
  C233     1.0000 0.68676  0.87009  0.49748  Biso   1.000  C
  C234     1.0000 0.53136  0.12092  0.61909  Biso   1.000  C
  C235     1.0000 0.62696  0.47368  0.16873  Biso   1.000  C
  C236     1.0000 0.35607  0.36922  0.00074  Biso   1.000  C
  C237     1.0000 0.53132  0.61769  0.90885  Biso   1.000  C
  C238     1.0000 0.12893  0.44594  0.35870  Biso   1.000  C
  C239     1.0000 0.86790  0.36788  0.51869  Biso   1.000  C
  C240     1.0000 0.02985  0.61877  0.61157  Biso   1.000  C
  C241     1.0000 0.63012  0.47352  0.85833  Biso   1.000  C
  C242     1.0000 0.87455  0.57217  0.51478  Biso   1.000  C
  C243     1.0000 0.53285  0.81471  0.62157  Biso   1.000  C
  C244     1.0000 0.12911  0.46783  0.66388  Biso   1.000  C
  C245     1.0000 0.37445  0.56715  0.02406  Biso   1.000  C
  C246     1.0000 0.03964  0.81124  0.90723  Biso   1.000  C
  C247     1.0000 0.93618  0.95747  0.85547  Biso   1.000  C
  C248     1.0000 0.68034  0.07404  0.51806  Biso   1.000  C
  C249     1.0000 0.03141  0.30892  0.61975  Biso   1.000  C
  C250     1.0000 0.43517  0.98117  0.67698  Biso   1.000  C
  C251     1.0000 0.17189  0.06866  0.01190  Biso   1.000  C
  C252     1.0000 0.50918  0.31065  0.90937  Biso   1.000  C
  C253     1.0000 0.41842  0.45832  0.16349  Biso   1.000  C
  C254     1.0000 0.18089  0.36537  0.50450  Biso   1.000  C
  C255     1.0000 0.51908  0.12294  0.41243  Biso   1.000  C
  C256     1.0000 0.92056  0.46566  0.36039  Biso   1.000  C
  C257     1.0000 0.67037  0.36058  0.01209  Biso   1.000  C
  C258     1.0000 0.00511  0.11292  0.12201  Biso   1.000  C
  C259     1.0000 0.11818  0.97498  0.17024  Biso   1.000  C
  C260     1.0000 0.37668  0.86006  0.52249  Biso   1.000  C
  C261     1.0000 0.03480  0.61390  0.40871  Biso   1.000  C
  C262     1.0000 0.61963  0.96049  0.35597  Biso   1.000  C
  C263     1.0000 0.87760  0.85635  0.00671  Biso   1.000  C
  C264     1.0000 0.52767  0.61558  0.11588  Biso   1.000  C
  C265     1.0000 0.03155  0.06610  0.86428  Biso   1.000  C
  C266     1.0000 0.86194  0.95613  0.10946  Biso   1.000  C
  C267     1.0000 0.13839  0.81232  0.01321  Biso   1.000  C
  C268     1.0000 0.54779  0.07043  0.67004  Biso   1.000  C
  C269     1.0000 0.36679  0.96881  0.42455  Biso   1.000  C
  C270     1.0000 0.63679  0.81749  0.51530  Biso   1.000  C
  C271     1.0000 0.52750  0.56720  0.85569  Biso   1.000  C
  C272     1.0000 0.67865  0.47214  0.11967  Biso   1.000  C
  C273     1.0000 0.40634  0.31485  0.00642  Biso   1.000  C
  C274     1.0000 0.02227  0.56731  0.66636  Biso   1.000  C
  C275     1.0000 0.18457  0.45413  0.40692  Biso   1.000  C
  C276     1.0000 0.92037  0.31477  0.52325  Biso   1.000  C
  C277     1.0000 0.03364  0.85438  0.16533  Biso   1.000  C
  C278     1.0000 0.19132  0.96605  0.92199  Biso   1.000  C
  C279     1.0000 0.91224  0.11169  0.00539  Biso   1.000  C
  C280     1.0000 0.51427  0.86065  0.36763  Biso   1.000  C
  C281     1.0000 0.68746  0.95903  0.60866  Biso   1.000  C
  C282     1.0000 0.42419  0.11885  0.53304  Biso   1.000  C
  C283     1.0000 0.51898  0.36392  0.16342  Biso   1.000  C
  C284     1.0000 0.36902  0.47271  0.91147  Biso   1.000  C
  C285     1.0000 0.63658  0.61384  0.02597  Biso   1.000  C
  C286     1.0000 0.00830  0.35711  0.35746  Biso   1.000  C
  C287     1.0000 0.87500  0.47394  0.61553  Biso   1.000  C
  C288     1.0000 0.13615  0.61788  0.50094  Biso   1.000  C
  C289     1.0000 0.37543  0.83006  0.51968  Biso   1.000  C
  C290     1.0000 0.51099  0.31085  0.87892  Biso   1.000  C
  C291     1.0000 0.89003  0.47064  0.35948  Biso   1.000  C
  C292     1.0000 0.87859  0.82487  0.00775  Biso   1.000  C
  C293     1.0000 0.03138  0.30907  0.65126  Biso   1.000  C
  C294     1.0000 0.38672  0.45383  0.16339  Biso   1.000  C
  C295     1.0000 0.18122  0.33216  0.50670  Biso   1.000  C
  C296     1.0000 0.04227  0.81248  0.87615  Biso   1.000  C
  C297     1.0000 0.65122  0.96073  0.35368  Biso   1.000  C
  C298     1.0000 0.66916  0.32924  0.00918  Biso   1.000  C
  C299     1.0000 0.52930  0.81585  0.65204  Biso   1.000  C
  C300     1.0000 0.14915  0.97688  0.17560  Biso   1.000  C
  C301     1.0000 0.68055  0.10683  0.52174  Biso   1.000  C
  C302     1.0000 0.52675  0.61854  0.14710  Biso   1.000  C
  C303     1.0000 0.16076  0.46586  0.66346  Biso   1.000  C
  C304     1.0000 0.16946  0.09970  0.00588  Biso   1.000  C
  C305     1.0000 0.03932  0.61313  0.37824  Biso   1.000  C
  C306     1.0000 0.66114  0.47146  0.85711  Biso   1.000  C
  C307     1.0000 0.87365  0.60264  0.51235  Biso   1.000  C
  C308     1.0000 0.99670  0.11027  0.15259  Biso   1.000  C
  C309     1.0000 0.40382  0.97598  0.67974  Biso   1.000  C
  C310     1.0000 0.37495  0.59837  0.02082  Biso   1.000  C
  C311     1.0000 0.52097  0.12172  0.38105  Biso   1.000  C
  C312     1.0000 0.90499  0.95730  0.85303  Biso   1.000  C
  C313     1.0000 0.18252  0.45029  0.37604  Biso   1.000  C
  C314     1.0000 0.39315  0.11953  0.53443  Biso   1.000  C
  C315     1.0000 0.52096  0.33164  0.16332  Biso   1.000  C
  C316     1.0000 0.68062  0.47705  0.15130  Biso   1.000  C
  C317     1.0000 0.88026  0.11206  0.00129  Biso   1.000  C
  C318     1.0000 0.00588  0.32685  0.35897  Biso   1.000  C
  C319     1.0000 0.36318  0.97063  0.39303  Biso   1.000  C
  C320     1.0000 0.16778  0.61857  0.49708  Biso   1.000  C
  C321     1.0000 0.03304  0.82426  0.16599  Biso   1.000  C
  C322     1.0000 0.85893  0.94859  0.13940  Biso   1.000  C
  C323     1.0000 0.66727  0.61391  0.02457  Biso   1.000  C
  C324     1.0000 0.51560  0.82895  0.36584  Biso   1.000  C
  C325     1.0000 0.87223  0.46651  0.64675  Biso   1.000  C
  C326     1.0000 0.66807  0.81693  0.50697  Biso   1.000  C
  C327     1.0000 0.53019  0.59697  0.85557  Biso   1.000  C
  C328     1.0000 0.36848  0.46805  0.88033  Biso   1.000  C
  C329     1.0000 0.16958  0.81226  0.01513  Biso   1.000  C
  C330     1.0000 0.02249  0.59852  0.66570  Biso   1.000  C
  C331     1.0000 0.68985  0.95379  0.64163  Biso   1.000  C
  C332     1.0000 0.88894  0.31575  0.52260  Biso   1.000  C
  C333     1.0000 0.02902  0.09775  0.86408  Biso   1.000  C
  C334     1.0000 0.19143  0.96240  0.89005  Biso   1.000  C
  C335     1.0000 0.37457  0.31666  0.00511  Biso   1.000  C
  C336     1.0000 0.54140  0.10163  0.67253  Biso   1.000  C
  C337     1.0000 0.68135  0.46703  0.87955  Biso   1.000  C
  C338     1.0000 0.89602  0.62300  0.51544  Biso   1.000  C
  C339     1.0000 0.52708  0.83721  0.67339  Biso   1.000  C
  C340     1.0000 0.18210  0.46674  0.64160  Biso   1.000  C
  C341     1.0000 0.39811  0.61649  0.01649  Biso   1.000  C
  C342     1.0000 0.04234  0.83417  0.85571  Biso   1.000  C
  C343     1.0000 0.88223  0.95669  0.87379  Biso   1.000  C
  C344     1.0000 0.65868  0.12837  0.52025  Biso   1.000  C
  C345     1.0000 0.02985  0.33119  0.67176  Biso   1.000  C
  C346     1.0000 0.38192  0.97294  0.65922  Biso   1.000  C
  C347     1.0000 0.14623  0.11976  0.00635  Biso   1.000  C
  C348     1.0000 0.51786  0.33158  0.85868  Biso   1.000  C
  C349     1.0000 0.36467  0.45356  0.14217  Biso   1.000  C
  C350     1.0000 0.15912  0.31237  0.50801  Biso   1.000  C
  C351     1.0000 0.52484  0.09981  0.36065  Biso   1.000  C
  C352     1.0000 0.86919  0.47499  0.38178  Biso   1.000  C
  C353     1.0000 0.64651  0.30888  0.00640  Biso   1.000  C
  C354     1.0000 0.99710  0.08739  0.17361  Biso   1.000  C
  C355     1.0000 0.17212  0.97303  0.15593  Biso   1.000  C
  C356     1.0000 0.39818  0.80920  0.52371  Biso   1.000  C
  C357     1.0000 0.03904  0.59081  0.35737  Biso   1.000  C
  C358     1.0000 0.67491  0.96606  0.37244  Biso   1.000  C
  C359     1.0000 0.90126  0.80499  0.00943  Biso   1.000  C
  C360     1.0000 0.52255  0.59744  0.16926  Biso   1.000  C
  C361     1.0000 0.02357  0.11948  0.88527  Biso   1.000  C
  C362     1.0000 0.88025  0.94179  0.16046  Biso   1.000  C
  C363     1.0000 0.18997  0.83389  0.01881  Biso   1.000  C
  C364     1.0000 0.53748  0.12192  0.65005  Biso   1.000  C
  C365     1.0000 0.38141  0.97291  0.36975  Biso   1.000  C
  C366     1.0000 0.68871  0.83949  0.50078  Biso   1.000  C
  C367     1.0000 0.53209  0.61780  0.87757  Biso   1.000  C
  C368     1.0000 0.65918  0.47544  0.17180  Biso   1.000  C
  C369     1.0000 0.35297  0.33855  0.00125  Biso   1.000  C
  C370     1.0000 0.02508  0.61856  0.64375  Biso   1.000  C
  C371     1.0000 0.15948  0.44502  0.35602  Biso   1.000  C
  C372     1.0000 0.86769  0.33701  0.52208  Biso   1.000  C
  C373     1.0000 0.03553  0.80339  0.14388  Biso   1.000  C
  C374     1.0000 0.17021  0.96367  0.86852  Biso   1.000  C
  C375     1.0000 0.85984  0.09082  0.99524  Biso   1.000  C
  C376     1.0000 0.52033  0.80737  0.38673  Biso   1.000  C
  C377     1.0000 0.66868  0.95293  0.66280  Biso   1.000  C
  C378     1.0000 0.37320  0.09708  0.53383  Biso   1.000  C
  C379     1.0000 0.52392  0.30910  0.14193  Biso   1.000  C
  C380     1.0000 0.39078  0.46514  0.85897  Biso   1.000  C
  C381     1.0000 0.68854  0.59166  0.02290  Biso   1.000  C
  C382     1.0000 0.00405  0.30722  0.38252  Biso   1.000  C
  C383     1.0000 0.89447  0.46260  0.66819  Biso   1.000  C
  C384     1.0000 0.18960  0.59698  0.49478  Biso   1.000  C
  C385     1.0000 0.19526  0.11447  0.99821  Biso   1.000  C
  C386     1.0000 0.99401  0.13536  0.16904  Biso   1.000  C
  C387     1.0000 0.16212  0.98095  0.20299  Biso   1.000  C
  C388     1.0000 0.70729  0.12195  0.52393  Biso   1.000  C
  C389     1.0000 0.51682  0.14778  0.36374  Biso   1.000  C
  C390     1.0000 0.66461  0.95203  0.32606  Biso   1.000  C
  C391     1.0000 0.34919  0.61699  0.02227  Biso   1.000  C
  C392     1.0000 0.52564  0.64554  0.16140  Biso   1.000  C
  C393     1.0000 0.37199  0.44442  0.19024  Biso   1.000  C
  C394     1.0000 0.84645  0.61804  0.50861  Biso   1.000  C
  C395     1.0000 0.03965  0.63856  0.36215  Biso   1.000  C
  C396     1.0000 0.87377  0.47621  0.33307  Biso   1.000  C
  C397     1.0000 0.85305  0.80736  0.01122  Biso   1.000  C
  C398     1.0000 0.04065  0.78633  0.85910  Biso   1.000  C
  C399     1.0000 0.89091  0.95637  0.82560  Biso   1.000  C
  C400     1.0000 0.34909  0.81377  0.51722  Biso   1.000  C
  C401     1.0000 0.53067  0.78981  0.66856  Biso   1.000  C
  C402     1.0000 0.39001  0.97479  0.70769  Biso   1.000  C
  C403     1.0000 0.69482  0.31151  0.00471  Biso   1.000  C
  C404     1.0000 0.50745  0.28473  0.86334  Biso   1.000  C
  C405     1.0000 0.67651  0.46805  0.83090  Biso   1.000  C
  C406     1.0000 0.20807  0.31655  0.50966  Biso   1.000  C
  C407     1.0000 0.03540  0.28339  0.66954  Biso   1.000  C
  C408     1.0000 0.17659  0.46171  0.69003  Biso   1.000  C
  C409     1.0000 0.18561  0.96335  0.84135  Biso   1.000  C
  C410     1.0000 0.83201  0.10559  0.99213  Biso   1.000  C
  C411     1.0000 0.03531  0.77714  0.15891  Biso   1.000  C
  C412     1.0000 0.68520  0.94797  0.68964  Biso   1.000  C
  C413     1.0000 0.34425  0.11091  0.53373  Biso   1.000  C
  C414     1.0000 0.51933  0.78128  0.37011  Biso   1.000  C
  C415     1.0000 0.37571  0.45973  0.83197  Biso   1.000  C
  C416     1.0000 0.71584  0.60673  0.02436  Biso   1.000  C
  C417     1.0000 0.52149  0.28174  0.15823  Biso   1.000  C
  C418     1.0000 0.87892  0.45655  0.69427  Biso   1.000  C
  C419     1.0000 0.21603  0.61193  0.49205  Biso   1.000  C
  C420     1.0000 0.00146  0.27919  0.37088  Biso   1.000  C
  C421     1.0000 0.86539  0.93598  0.18712  Biso   1.000  C
  C422     1.0000 0.21731  0.81993  0.02338  Biso   1.000  C
  C423     1.0000 0.02130  0.14534  0.86912  Biso   1.000  C
  C424     1.0000 0.36433  0.97552  0.34427  Biso   1.000  C
  C425     1.0000 0.71635  0.82362  0.49753  Biso   1.000  C
  C426     1.0000 0.53515  0.14921  0.66623  Biso   1.000  C
  C427     1.0000 0.67341  0.48197  0.19825  Biso   1.000  C
  C428     1.0000 0.32576  0.32311  0.99938  Biso   1.000  C
  C429     1.0000 0.53219  0.64585  0.86273  Biso   1.000  C
  C430     1.0000 0.17430  0.44033  0.32919  Biso   1.000  C
  C431     1.0000 0.84003  0.32241  0.52432  Biso   1.000  C
  C432     1.0000 0.02671  0.64510  0.65960  Biso   1.000  C
  C433     1.0000 0.03048  0.11300  0.83703  Biso   1.000  C
  C434     1.0000 0.83132  0.94698  0.15349  Biso   1.000  C
  C435     1.0000 0.18584  0.78598  0.01724  Biso   1.000  C
  C436     1.0000 0.54112  0.11721  0.69985  Biso   1.000  C
  C437     1.0000 0.33410  0.97415  0.37902  Biso   1.000  C
  C438     1.0000 0.68435  0.79070  0.50568  Biso   1.000  C
  C439     1.0000 0.53053  0.61361  0.83072  Biso   1.000  C
  C440     1.0000 0.70702  0.48191  0.16770  Biso   1.000  C
  C441     1.0000 0.35818  0.29106  0.00992  Biso   1.000  C
  C442     1.0000 0.02115  0.61314  0.69364  Biso   1.000  C
  C443     1.0000 0.20931  0.44759  0.36009  Biso   1.000  C
  C444     1.0000 0.87271  0.28965  0.52685  Biso   1.000  C
  C445     1.0000 0.02915  0.80900  0.19235  Biso   1.000  C
  C446     1.0000 0.21823  0.95748  0.87552  Biso   1.000  C
  C447     1.0000 0.86441  0.13851  0.99858  Biso   1.000  C
  C448     1.0000 0.51174  0.81395  0.33904  Biso   1.000  C
  C449     1.0000 0.71634  0.94939  0.65611  Biso   1.000  C
  C450     1.0000 0.37523  0.14582  0.53496  Biso   1.000  C
  C451     1.0000 0.52278  0.31574  0.19054  Biso   1.000  C
  C452     1.0000 0.34147  0.46428  0.86346  Biso   1.000  C
  C453     1.0000 0.68314  0.64042  0.02831  Biso   1.000  C
  C454     1.0000 0.00643  0.30824  0.33374  Biso   1.000  C
  C455     1.0000 0.84599  0.46283  0.66169  Biso   1.000  C
  C456     1.0000 0.18316  0.64530  0.49684  Biso   1.000  C
  C457     1.0000 0.04162  0.60432  0.32931  Biso   1.000  C
  C458     1.0000 0.35622  0.96893  0.67574  Biso   1.000  C
  C459     1.0000 0.65965  0.28048  0.00406  Biso   1.000  C
  C460     1.0000 0.51961  0.61333  0.19579  Biso   1.000  C
  C461     1.0000 0.85518  0.95453  0.85643  Biso   1.000  C
  C462     1.0000 0.17489  0.28516  0.51064  Biso   1.000  C
  C463     1.0000 0.52481  0.11389  0.33149  Biso   1.000  C
  C464     1.0000 0.20965  0.46121  0.65798  Biso   1.000  C
  C465     1.0000 0.88711  0.77732  0.01348  Biso   1.000  C
  C466     1.0000 0.99458  0.10080  0.20089  Biso   1.000  C
  C467     1.0000 0.70865  0.46083  0.86520  Biso   1.000  C
  C468     1.0000 0.38351  0.78172  0.52305  Biso   1.000  C
  C469     1.0000 0.03212  0.31686  0.69986  Biso   1.000  C
  C470     1.0000 0.70009  0.95690  0.35637  Biso   1.000  C
  C471     1.0000 0.38526  0.64484  0.01639  Biso   1.000  C
  C472     1.0000 0.52166  0.31559  0.83339  Biso   1.000  C
  C473     1.0000 0.19764  0.97661  0.17345  Biso   1.000  C
  C474     1.0000 0.88029  0.64990  0.51256  Biso   1.000  C
  C475     1.0000 0.52483  0.82246  0.70125  Biso   1.000  C
  C476     1.0000 0.84301  0.48080  0.36558  Biso   1.000  C
  C477     1.0000 0.15984  0.14728  0.00049  Biso   1.000  C
  C478     1.0000 0.04063  0.81979  0.82867  Biso   1.000  C
  C479     1.0000 0.33871  0.44391  0.15669  Biso   1.000  C
  C480     1.0000 0.67413  0.15463  0.52168  Biso   1.000  C
  C481     1.0000 0.40216  0.75552  0.52536  Biso   1.000  C
  C482     1.0000 0.53016  0.33068  0.80639  Biso   1.000  C
  C483     1.0000 0.81467  0.48289  0.38044  Biso   1.000  C
  C484     1.0000 0.90447  0.75071  0.01668  Biso   1.000  C
  C485     1.0000 0.02782  0.33430  0.72550  Biso   1.000  C
  C486     1.0000 0.31180  0.44144  0.14158  Biso   1.000  C
  C487     1.0000 0.15850  0.25729  0.51363  Biso   1.000  C
  C488     1.0000 0.04108  0.83535  0.80176  Biso   1.000  C
  C489     1.0000 0.72832  0.96021  0.37064  Biso   1.000  C
  C490     1.0000 0.64285  0.25524  0.00707  Biso   1.000  C
  C491     1.0000 0.52160  0.83997  0.72856  Biso   1.000  C
  C492     1.0000 0.22639  0.97433  0.16035  Biso   1.000  C
  C493     1.0000 0.65545  0.18103  0.52283  Biso   1.000  C
  C494     1.0000 0.51823  0.59789  0.22331  Biso   1.000  C
  C495     1.0000 0.23766  0.46420  0.64433  Biso   1.000  C
  C496     1.0000 0.14332  0.17375  0.00045  Biso   1.000  C
  C497     1.0000 0.04537  0.58676  0.30302  Biso   1.000  C
  C498     1.0000 0.73292  0.45072  0.88132  Biso   1.000  C
  C499     1.0000 0.89690  0.67634  0.51515  Biso   1.000  C
  C500     1.0000 0.99267  0.08379  0.22684  Biso   1.000  C
  C501     1.0000 0.32876  0.96218  0.66103  Biso   1.000  C
  C502     1.0000 0.40179  0.67062  0.01351  Biso   1.000  C
  C503     1.0000 0.52682  0.09551  0.30574  Biso   1.000  C
  C504     1.0000 0.82728  0.94982  0.87055  Biso   1.000  C
  C505     1.0000 0.66011  0.47167  0.80451  Biso   1.000  C
  C506     1.0000 0.81841  0.60352  0.50629  Biso   1.000  C
  C507     1.0000 0.53521  0.76208  0.65449  Biso   1.000  C
  C508     1.0000 0.16269  0.45740  0.71995  Biso   1.000  C
  C509     1.0000 0.32106  0.60479  0.02524  Biso   1.000  C
  C510     1.0000 0.03679  0.75799  0.87188  Biso   1.000  C
  C511     1.0000 0.90686  0.95655  0.79855  Biso   1.000  C
  C512     1.0000 0.73487  0.10494  0.52659  Biso   1.000  C
  C513     1.0000 0.04152  0.25622  0.65343  Biso   1.000  C
  C514     1.0000 0.40803  0.98081  0.73438  Biso   1.000  C
  C515     1.0000 0.22395  0.10096  0.99484  Biso   1.000  C
  C516     1.0000 0.50113  0.25771  0.87911  Biso   1.000  C
  C517     1.0000 0.39026  0.43787  0.21633  Biso   1.000  C
  C518     1.0000 0.23480  0.33111  0.50880  Biso   1.000  C
  C519     1.0000 0.51153  0.17411  0.37933  Biso   1.000  C
  C520     1.0000 0.88879  0.47891  0.30529  Biso   1.000  C
  C521     1.0000 0.72233  0.32752  0.00059  Biso   1.000  C
  C522     1.0000 0.99469  0.16395  0.15562  Biso   1.000  C
  C523     1.0000 0.14472  0.98475  0.22814  Biso   1.000  C
  C524     1.0000 0.32216  0.82917  0.51027  Biso   1.000  C
  C525     1.0000 0.03865  0.66670  0.37646  Biso   1.000  C
  C526     1.0000 0.64604  0.94361  0.30184  Biso   1.000  C
  C527     1.0000 0.82515  0.82255  0.01310  Biso   1.000  C
  C528     1.0000 0.52599  0.67182  0.14415  Biso   1.000  C
  C529     1.0000 0.80704  0.08705  0.98712  Biso   1.000  C
  C530     1.0000 0.03748  0.74864  0.14157  Biso   1.000  C
  C531     1.0000 0.16972  0.96565  0.81528  Biso   1.000  C
  C532     1.0000 0.31759  0.09467  0.53471  Biso   1.000  C
  C533     1.0000 0.52764  0.75542  0.38690  Biso   1.000  C
  C534     1.0000 0.66989  0.94270  0.71697  Biso   1.000  C
  C535     1.0000 0.74392  0.59027  0.02278  Biso   1.000  C
  C536     1.0000 0.51924  0.25440  0.14297  Biso   1.000  C
  C537     1.0000 0.39187  0.45291  0.80545  Biso   1.000  C
  C538     1.0000 0.24319  0.59660  0.48594  Biso   1.000  C
  C539     1.0000 0.99787  0.25407  0.38908  Biso   1.000  C
  C540     1.0000 0.89432  0.45567  0.72191  Biso   1.000  C
  C541     1.0000 0.24282  0.83729  0.03109  Biso   1.000  C
  C542     1.0000 0.01774  0.17194  0.88442  Biso   1.000  C
  C543     1.0000 0.88210  0.92631  0.21273  Biso   1.000  C
  C544     1.0000 0.74205  0.84082  0.49054  Biso   1.000  C
  C545     1.0000 0.52819  0.17572  0.65025  Biso   1.000  C
  C546     1.0000 0.37946  0.97031  0.31553  Biso   1.000  C
  C547     1.0000 0.29860  0.34014  0.99761  Biso   1.000  C
  C548     1.0000 0.53488  0.67374  0.87816  Biso   1.000  C
  C549     1.0000 0.65577  0.48538  0.22455  Biso   1.000  C
  C550     1.0000 0.81230  0.33754  0.52568  Biso   1.000  C
  C551     1.0000 0.03457  0.67236  0.64652  Biso   1.000  C
  C552     1.0000 0.15659  0.43594  0.30401  Biso   1.000  C
  C553     1.0000 0.03540  0.10014  0.80905  Biso   1.000  C
  C554     1.0000 0.80632  0.95406  0.13611  Biso   1.000  C
  C555     1.0000 0.17157  0.75728  0.01255  Biso   1.000  C
  C556     1.0000 0.54472  0.10077  0.72505  Biso   1.000  C
  C557     1.0000 0.30838  0.97611  0.39680  Biso   1.000  C
  C558     1.0000 0.66726  0.76247  0.51177  Biso   1.000  C
  C559     1.0000 0.53108  0.59864  0.80317  Biso   1.000  C
  C560     1.0000 0.73361  0.48090  0.15023  Biso   1.000  C
  C561     1.0000 0.37158  0.26462  0.01971  Biso   1.000  C
  C562     1.0000 0.01839  0.59780  0.72247  Biso   1.000  C
  C563     1.0000 0.23906  0.45463  0.37351  Biso   1.000  C
  C564     1.0000 0.88763  0.26206  0.53070  Biso   1.000  C
  C565     1.0000 0.02314  0.82523  0.21859  Biso   1.000  C
  C566     1.0000 0.24475  0.95223  0.89194  Biso   1.000  C
  C567     1.0000 0.87881  0.16616  0.99634  Biso   1.000  C
  C568     1.0000 0.50362  0.82904  0.31278  Biso   1.000  C
  C569     1.0000 0.74357  0.95076  0.64029  Biso   1.000  C
  C570     1.0000 0.38767  0.17421  0.53408  Biso   1.000  C
  C571     1.0000 0.52545  0.33136  0.21848  Biso   1.000  C
  C572     1.0000 0.31361  0.46823  0.87821  Biso   1.000  C
  C573     1.0000 0.66691  0.66703  0.03407  Biso   1.000  C
  C574     1.0000 0.00998  0.32195  0.30557  Biso   1.000  C
  C575     1.0000 0.81819  0.46419  0.64641  Biso   1.000  C
  C576     1.0000 0.16653  0.67326  0.50270  Biso   1.000  C
  C577     1.0000 0.31024  0.44812  0.11040  Biso   1.000  C
  C578     1.0000 0.12750  0.25996  0.51459  Biso   1.000  C
  C579     1.0000 0.52392  0.06340  0.30918  Biso   1.000  C
  C580     1.0000 0.81431  0.47792  0.41222  Biso   1.000  C
  C581     1.0000 0.61198  0.25802  0.00403  Biso   1.000  C
  C582     1.0000 0.99360  0.05168  0.22416  Biso   1.000  C
  C583     1.0000 0.22915  0.97026  0.12819  Biso   1.000  C
  C584     1.0000 0.43417  0.75756  0.52446  Biso   1.000  C
  C585     1.0000 0.04470  0.55443  0.30598  Biso   1.000  C
  C586     1.0000 0.73049  0.96801  0.40230  Biso   1.000  C
  C587     1.0000 0.93688  0.75168  0.01293  Biso   1.000  C
  C588     1.0000 0.51820  0.56647  0.22489  Biso   1.000  C
  C589     1.0000 0.73175  0.45216  0.91306  Biso   1.000  C
  C590     1.0000 0.92860  0.67399  0.51699  Biso   1.000  C
  C591     1.0000 0.52022  0.87069  0.72784  Biso   1.000  C
  C592     1.0000 0.23786  0.47025  0.61362  Biso   1.000  C
  C593     1.0000 0.43364  0.66684  0.01108  Biso   1.000  C
  C594     1.0000 0.03863  0.86672  0.80315  Biso   1.000  C
  C595     1.0000 0.82705  0.94758  0.90261  Biso   1.000  C
  C596     1.0000 0.62277  0.17920  0.52270  Biso   1.000  C
  C597     1.0000 0.02470  0.36558  0.72315  Biso   1.000  C
  C598     1.0000 0.33008  0.95832  0.62852  Biso   1.000  C
  C599     1.0000 0.11178  0.17196  0.00483  Biso   1.000  C
  C600     1.0000 0.53334  0.36155  0.80629  Biso   1.000  C
  C601     1.0000 0.24669  0.95887  0.92412  Biso   1.000  C
  C602     1.0000 0.91045  0.16615  0.00096  Biso   1.000  C
  C603     1.0000 0.02061  0.85698  0.21830  Biso   1.000  C
  C604     1.0000 0.74243  0.95780  0.60912  Biso   1.000  C
  C605     1.0000 0.42027  0.17471  0.53294  Biso   1.000  C
  C606     1.0000 0.50055  0.86081  0.31526  Biso   1.000  C
  C607     1.0000 0.31400  0.47087  0.90980  Biso   1.000  C
  C608     1.0000 0.63406  0.66725  0.03288  Biso   1.000  C
  C609     1.0000 0.52686  0.36195  0.21881  Biso   1.000  C
  C610     1.0000 0.81801  0.47115  0.61566  Biso   1.000  C
  C611     1.0000 0.13516  0.67223  0.50340  Biso   1.000  C
  C612     1.0000 0.01221  0.35348  0.30237  Biso   1.000  C
  C613     1.0000 0.80861  0.96141  0.10514  Biso   1.000  C
  C614     1.0000 0.14099  0.75721  0.00858  Biso   1.000  C
  C615     1.0000 0.03958  0.06845  0.80899  Biso   1.000  C
  C616     1.0000 0.31017  0.97446  0.42754  Biso   1.000  C
  C617     1.0000 0.63645  0.76444  0.51877  Biso   1.000  C
  C618     1.0000 0.55376  0.07154  0.72355  Biso   1.000  C
  C619     1.0000 0.73193  0.47167  0.11968  Biso   1.000  C
  C620     1.0000 0.40316  0.26234  0.02223  Biso   1.000  C
  C621     1.0000 0.52930  0.56780  0.80191  Biso   1.000  C
  C622     1.0000 0.24069  0.45827  0.40499  Biso   1.000  C
  C623     1.0000 0.91943  0.26042  0.52778  Biso   1.000  C
  C624     1.0000 0.02037  0.56610  0.72094  Biso   1.000  C
  C625     1.0000 0.01331  0.17133  0.91563  Biso   1.000  C
  C626     1.0000 0.91310  0.92540  0.21227  Biso   1.000  C
  C627     1.0000 0.23975  0.86822  0.03377  Biso   1.000  C
  C628     1.0000 0.52444  0.17468  0.61905  Biso   1.000  C
  C629     1.0000 0.41056  0.96833  0.31340  Biso   1.000  C
  C630     1.0000 0.73986  0.87267  0.49049  Biso   1.000  C
  C631     1.0000 0.53374  0.67368  0.90999  Biso   1.000  C
  C632     1.0000 0.62501  0.48161  0.22324  Biso   1.000  C
  C633     1.0000 0.30071  0.37200  0.99546  Biso   1.000  C
  C634     1.0000 0.04031  0.67213  0.61490  Biso   1.000  C
  C635     1.0000 0.12628  0.43748  0.30492  Biso   1.000  C
  C636     1.0000 0.81319  0.36801  0.52047  Biso   1.000  C
  C637     1.0000 0.03833  0.75054  0.10933  Biso   1.000  C
  C638     1.0000 0.13864  0.97145  0.81391  Biso   1.000  C
  C639     1.0000 0.80851  0.05504  0.98981  Biso   1.000  C
  C640     1.0000 0.53528  0.75515  0.41780  Biso   1.000  C
  C641     1.0000 0.63871  0.94731  0.71822  Biso   1.000  C
  C642     1.0000 0.31979  0.06381  0.53566  Biso   1.000  C
  C643     1.0000 0.51841  0.25366  0.11086  Biso   1.000  C
  C644     1.0000 0.42294  0.45271  0.80723  Biso   1.000  C
  C645     1.0000 0.74237  0.55968  0.02008  Biso   1.000  C
  C646     1.0000 0.99889  0.25615  0.42035  Biso   1.000  C
  C647     1.0000 0.92528  0.45726  0.72422  Biso   1.000  C
  C648     1.0000 0.24524  0.56559  0.48741  Biso   1.000  C
  C649     1.0000 0.03423  0.66946  0.40856  Biso   1.000  C
  C650     1.0000 0.43842  0.98597  0.73246  Biso   1.000  C
  C651     1.0000 0.72333  0.35915  0.00310  Biso   1.000  C
  C652     1.0000 0.52703  0.66996  0.11265  Biso   1.000  C
  C653     1.0000 0.93693  0.95934  0.80092  Biso   1.000  C
  C654     1.0000 0.23568  0.36205  0.50743  Biso   1.000  C
  C655     1.0000 0.50990  0.17572  0.41038  Biso   1.000  C
  C656     1.0000 0.12971  0.46182  0.71967  Biso   1.000  C
  C657     1.0000 0.82361  0.85299  0.01002  Biso   1.000  C
  C658     1.0000 0.99870  0.16536  0.12429  Biso   1.000  C
  C659     1.0000 0.62829  0.47218  0.80404  Biso   1.000  C
  C660     1.0000 0.32220  0.86018  0.51271  Biso   1.000  C
  C661     1.0000 0.04167  0.25345  0.62144  Biso   1.000  C
  C662     1.0000 0.61454  0.94427  0.30332  Biso   1.000  C
  C663     1.0000 0.31991  0.57396  0.02949  Biso   1.000  C
  C664     1.0000 0.49774  0.25779  0.91004  Biso   1.000  C
  C665     1.0000 0.11262  0.98447  0.22643  Biso   1.000  C
  C666     1.0000 0.81857  0.57194  0.50842  Biso   1.000  C
  C667     1.0000 0.53756  0.76017  0.62387  Biso   1.000  C
  C668     1.0000 0.92003  0.47259  0.30517  Biso   1.000  C
  C669     1.0000 0.22567  0.07091  0.00004  Biso   1.000  C
  C670     1.0000 0.03803  0.75733  0.90388  Biso   1.000  C
  C671     1.0000 0.42225  0.44582  0.21567  Biso   1.000  C
  C672     1.0000 0.73446  0.07462  0.52162  Biso   1.000  C
  C673     1.0000 0.23210  0.95708  0.82953  Biso   1.000  C
  C674     1.0000 0.81802  0.15316  0.99275  Biso   1.000  C
  C675     1.0000 0.03498  0.76316  0.20603  Biso   1.000  C
  C676     1.0000 0.73364  0.94406  0.70297  Biso   1.000  C
  C677     1.0000 0.32816  0.15613  0.53324  Biso   1.000  C
  C678     1.0000 0.51776  0.76711  0.32304  Biso   1.000  C
  C679     1.0000 0.32853  0.45469  0.81561  Biso   1.000  C
  C680     1.0000 0.73053  0.65444  0.03027  Biso   1.000  C
  C681     1.0000 0.52705  0.26932  0.20674  Biso   1.000  C
  C682     1.0000 0.83097  0.45523  0.70812  Biso   1.000  C
  C683     1.0000 0.22953  0.65738  0.49493  Biso   1.000  C
  C684     1.0000 0.00133  0.26049  0.32524  Biso   1.000  C
  C685     1.0000 0.81804  0.93893  0.19920  Biso   1.000  C
  C686     1.0000 0.23286  0.77365  0.02299  Biso   1.000  C
  C687     1.0000 0.02850  0.16122  0.82426  Biso   1.000  C
  C688     1.0000 0.31606  0.98023  0.33329  Biso   1.000  C
  C689     1.0000 0.73084  0.77685  0.49927  Biso   1.000  C
  C690     1.0000 0.53365  0.16307  0.71351  Biso   1.000  C
  C691     1.0000 0.72129  0.49206  0.21396  Biso   1.000  C
  C692     1.0000 0.31260  0.27643  0.00629  Biso   1.000  C
  C693     1.0000 0.52584  0.66051  0.81739  Biso   1.000  C
  C694     1.0000 0.22162  0.43827  0.31289  Biso   1.000  C
  C695     1.0000 0.82586  0.27681  0.52594  Biso   1.000  C
  C696     1.0000 0.02809  0.65953  0.70783  Biso   1.000  C
  C697     1.0000 0.71011  0.94632  0.30914  Biso   1.000  C
  C698     1.0000 0.34111  0.66445  0.02076  Biso   1.000  C
  C699     1.0000 0.03849  0.27128  0.71677  Biso   1.000  C
  C700     1.0000 0.20740  0.98246  0.22103  Biso   1.000  C
  C701     1.0000 0.83277  0.66432  0.50494  Biso   1.000  C
  C702     1.0000 0.51601  0.26871  0.81886  Biso   1.000  C
  C703     1.0000 0.82740  0.48644  0.31985  Biso   1.000  C
  C704     1.0000 0.20775  0.16030  0.99660  Biso   1.000  C
  C705     1.0000 0.52808  0.77661  0.71689  Biso   1.000  C
  C706     1.0000 0.32639  0.43292  0.20295  Biso   1.000  C
  C707     1.0000 0.72116  0.16852  0.52413  Biso   1.000  C
  C708     1.0000 0.04159  0.77358  0.81129  Biso   1.000  C
  C709     1.0000 0.34336  0.96872  0.72402  Biso   1.000  C
  C710     1.0000 0.70539  0.26352  0.00244  Biso   1.000  C
  C711     1.0000 0.04303  0.65090  0.31434  Biso   1.000  C
  C712     1.0000 0.84487  0.95018  0.81075  Biso   1.000  C
  C713     1.0000 0.22136  0.26904  0.51406  Biso   1.000  C
  C714     1.0000 0.52202  0.65973  0.20825  Biso   1.000  C
  C715     1.0000 0.22283  0.45526  0.70539  Biso   1.000  C
  C716     1.0000 0.84084  0.75999  0.01819  Biso   1.000  C
  C717     1.0000 0.51882  0.15910  0.31610  Biso   1.000  C
  C718     1.0000 0.72421  0.45870  0.81856  Biso   1.000  C
  C719     1.0000 0.33664  0.76708  0.51795  Biso   1.000  C
  C720     1.0000 0.99075  0.14976  0.21650  Biso   1.000  C
  C721     1.0000 0.52842  0.77320  0.29348  Biso   1.000  C
  C722     1.0000 0.33369  0.46552  0.78589  Biso   1.000  C
  C723     1.0000 0.80238  0.28039  0.54587  Biso   1.000  C
  C724     1.0000 0.02297  0.73582  0.20195  Biso   1.000  C
  C725     1.0000 0.80483  0.47398  0.70681  Biso   1.000  C
  C726     1.0000 0.29057  0.27545  0.98246  Biso   1.000  C
  C727     1.0000 0.98059  0.23618  0.33079  Biso   1.000  C
  C728     1.0000 0.25950  0.97256  0.83337  Biso   1.000  C
  C729     1.0000 0.76052  0.78166  0.51272  Biso   1.000  C
  C730     1.0000 0.50757  0.27320  0.23207  Biso   1.000  C
  C731     1.0000 0.76057  0.93011  0.69786  Biso   1.000  C
  C732     1.0000 0.26173  0.77933  0.01178  Biso   1.000  C
  C733     1.0000 0.51722  0.15619  0.74068  Biso   1.000  C
  C734     1.0000 0.71881  0.48087  0.24292  Biso   1.000  C
  C735     1.0000 0.22512  0.68685  0.48145  Biso   1.000  C
  C736     1.0000 0.00919  0.18616  0.82408  Biso   1.000  C
  C737     1.0000 0.24901  0.42501  0.31813  Biso   1.000  C
  C738     1.0000 0.75939  0.65014  0.04260  Biso   1.000  C
  C739     1.0000 0.04593  0.65570  0.73345  Biso   1.000  C
  C740     1.0000 0.78946  0.92793  0.19240  Biso   1.000  C
  C741     1.0000 0.30243  0.15263  0.51310  Biso   1.000  C
  C742     1.0000 0.54229  0.65787  0.78898  Biso   1.000  C
  C743     1.0000 0.28980  0.96359  0.33631  Biso   1.000  C
  C744     1.0000 0.82072  0.17800  0.01376  Biso   1.000  C
  C745     1.0000 0.05639  0.67890  0.32005  Biso   1.000  C
  C746     1.0000 0.31270  0.97925  0.72147  Biso   1.000  C
  C747     1.0000 0.73387  0.26583  0.01538  Biso   1.000  C
  C748     1.0000 0.54206  0.68420  0.20801  Biso   1.000  C
  C749     1.0000 0.84822  0.92690  0.78951  Biso   1.000  C
  C750     1.0000 0.24717  0.27364  0.53334  Biso   1.000  C
  C751     1.0000 0.53776  0.15701  0.29310  Biso   1.000  C
  C752     1.0000 0.24583  0.43409  0.70244  Biso   1.000  C
  C753     1.0000 0.81538  0.76093  0.00041  Biso   1.000  C
  C754     1.0000 0.00613  0.14468  0.24445  Biso   1.000  C
  C755     1.0000 0.71853  0.44565  0.79063  Biso   1.000  C
  C756     1.0000 0.30554  0.77027  0.52728  Biso   1.000  C
  C757     1.0000 0.02522  0.24229  0.71455  Biso   1.000  C
  C758     1.0000 0.70574  0.95905  0.27990  Biso   1.000  C
  C759     1.0000 0.32122  0.66731  0.04408  Biso   1.000  C
  C760     1.0000 0.54054  0.26913  0.80000  Biso   1.000  C
  C761     1.0000 0.23340  0.99956  0.21953  Biso   1.000  C
  C762     1.0000 0.84034  0.68869  0.48564  Biso   1.000  C
  C763     1.0000 0.50253  0.77402  0.73511  Biso   1.000  C
  C764     1.0000 0.80529  0.50851  0.32580  Biso   1.000  C
  C765     1.0000 0.23453  0.15938  0.01338  Biso   1.000  C
  C766     1.0000 0.02117  0.77702  0.78606  Biso   1.000  C
  C767     1.0000 0.32815  0.44823  0.23114  Biso   1.000  C
  C768     1.0000 0.71776  0.19345  0.50332  Biso   1.000  C
  C769     1.0000 0.50803  0.68604  0.82282  Biso   1.000  C
  C770     1.0000 0.83405  0.43581  0.73258  Biso   1.000  C
  C771     1.0000 0.72683  0.74867  0.48390  Biso   1.000  C
  C772     1.0000 0.01285  0.68680  0.70597  Biso   1.000  C
  C773     1.0000 0.30093  0.44166  0.82069  Biso   1.000  C
  C774     1.0000 0.22824  0.74340  0.03554  Biso   1.000  C
  C775     1.0000 0.05272  0.16092  0.80371  Biso   1.000  C
  C776     1.0000 0.72954  0.95266  0.73289  Biso   1.000  C
  C777     1.0000 0.82921  0.25090  0.50773  Biso   1.000  C
  C778     1.0000 0.54705  0.19077  0.71147  Biso   1.000  C
  C779     1.0000 0.22758  0.94076  0.80299  Biso   1.000  C
  C780     1.0000 0.30922  0.25450  0.02858  Biso   1.000  C
  C781     1.0000 0.54287  0.24229  0.20465  Biso   1.000  C
  C782     1.0000 0.21415  0.44616  0.28375  Biso   1.000  C
  C783     1.0000 0.33021  0.18243  0.55056  Biso   1.000  C
  C784     1.0000 0.01877  0.25894  0.29755  Biso   1.000  C
  C785     1.0000 0.74582  0.50887  0.20695  Biso   1.000  C
  C786     1.0000 0.79283  0.15195  0.97473  Biso   1.000  C
  C787     1.0000 0.04948  0.76798  0.23393  Biso   1.000  C
  C788     1.0000 0.31972  0.99706  0.30746  Biso   1.000  C
  C789     1.0000 0.25800  0.65290  0.50779  Biso   1.000  C
  C790     1.0000 0.50719  0.73856  0.32792  Biso   1.000  C
  C791     1.0000 0.82278  0.94953  0.22905  Biso   1.000  C
  C792     1.0000 0.72616  0.68354  0.01833  Biso   1.000  C
  C793     1.0000 0.49661  0.18192  0.31529  Biso   1.000  C
  C794     1.0000 0.30064  0.41548  0.19803  Biso   1.000  C
  C795     1.0000 0.21874  0.24147  0.49955  Biso   1.000  C
  C796     1.0000 0.97473  0.17677  0.21441  Biso   1.000  C
  C797     1.0000 0.82851  0.47265  0.29086  Biso   1.000  C
  C798     1.0000 0.69945  0.23619  0.98847  Biso   1.000  C
  C799     1.0000 0.02933  0.64725  0.28602  Biso   1.000  C
  C800     1.0000 0.20272  0.96734  0.24844  Biso   1.000  C
  C801     1.0000 0.34362  0.74167  0.50158  Biso   1.000  C
  C802     1.0000 0.50236  0.65871  0.23265  Biso   1.000  C
  C803     1.0000 0.73844  0.93068  0.31411  Biso   1.000  C
  C804     1.0000 0.84415  0.73716  0.03965  Biso   1.000  C
  C805     1.0000 0.55180  0.75472  0.71961  Biso   1.000  C
  C806     1.0000 0.75302  0.46922  0.82324  Biso   1.000  C
  C807     1.0000 0.80489  0.66452  0.51816  Biso   1.000  C
  C808     1.0000 0.05818  0.74768  0.81361  Biso   1.000  C
  C809     1.0000 0.22068  0.47169  0.73108  Biso   1.000  C
  C810     1.0000 0.34069  0.68561  0.99695  Biso   1.000  C
  C811     1.0000 0.05397  0.27919  0.74518  Biso   1.000  C
  C812     1.0000 0.82093  0.96990  0.80888  Biso   1.000  C
  C813     1.0000 0.74362  0.16689  0.54480  Biso   1.000  C
  C814     1.0000 0.49415  0.24623  0.81545  Biso   1.000  C
  C815     1.0000 0.35027  0.95357  0.75147  Biso   1.000  C
  C816     1.0000 0.20344  0.18705  0.98005  Biso   1.000  C
  C817     1.0000 0.01442  0.20814  0.80414  Biso   1.000  C
  C818     1.0000 0.76734  0.92795  0.21265  Biso   1.000  C
  C819     1.0000 0.28337  0.75882  0.01046  Biso   1.000  C
  C820     1.0000 0.51524  0.17803  0.76111  Biso   1.000  C
  C821     1.0000 0.26928  0.96562  0.31410  Biso   1.000  C
  C822     1.0000 0.78167  0.75991  0.51074  Biso   1.000  C
  C823     1.0000 0.53954  0.68045  0.76955  Biso   1.000  C
  C824     1.0000 0.74055  0.48658  0.26367  Biso   1.000  C
  C825     1.0000 0.27085  0.25303  0.98003  Biso   1.000  C
  C826     1.0000 0.04861  0.67860  0.75383  Biso   1.000  C
  C827     1.0000 0.27022  0.42181  0.29622  Biso   1.000  C
  C828     1.0000 0.78197  0.25890  0.54637  Biso   1.000  C
  C829     1.0000 0.02532  0.71298  0.22299  Biso   1.000  C
  C830     1.0000 0.28188  0.97270  0.81312  Biso   1.000  C
  C831     1.0000 0.79805  0.19830  0.01547  Biso   1.000  C
  C832     1.0000 0.52719  0.75418  0.27043  Biso   1.000  C
  C833     1.0000 0.78131  0.92790  0.71990  Biso   1.000  C
  C834     1.0000 0.28137  0.17476  0.51161  Biso   1.000  C
  C835     1.0000 0.50864  0.25321  0.25558  Biso   1.000  C
  C836     1.0000 0.31299  0.46054  0.76498  Biso   1.000  C
  C837     1.0000 0.78245  0.66963  0.03984  Biso   1.000  C
  C838     1.0000 0.97822  0.21450  0.30960  Biso   1.000  C
  C839     1.0000 0.78555  0.47345  0.73017  Biso   1.000  C
  C840     1.0000 0.24520  0.70905  0.48575  Biso   1.000  C
  C841     1.0000 0.25099  0.94042  0.78446  Biso   1.000  C
  C842     1.0000 0.77112  0.17348  0.97779  Biso   1.000  C
  C843     1.0000 0.05275  0.74612  0.25411  Biso   1.000  C
  C844     1.0000 0.75016  0.95136  0.75372  Biso   1.000  C
  C845     1.0000 0.31037  0.20352  0.54538  Biso   1.000  C
  C846     1.0000 0.50962  0.71686  0.30522  Biso   1.000  C
  C847     1.0000 0.28123  0.43675  0.79813  Biso   1.000  C
  C848     1.0000 0.74759  0.70341  0.01801  Biso   1.000  C
  C849     1.0000 0.54117  0.22212  0.22612  Biso   1.000  C
  C850     1.0000 0.81425  0.43626  0.75545  Biso   1.000  C
  C851     1.0000 0.27822  0.67488  0.51126  Biso   1.000  C
  C852     1.0000 0.01300  0.23670  0.27828  Biso   1.000  C
  C853     1.0000 0.80071  0.94776  0.24931  Biso   1.000  C
  C854     1.0000 0.25125  0.72277  0.03417  Biso   1.000  C
  C855     1.0000 0.05651  0.18415  0.78431  Biso   1.000  C
  C856     1.0000 0.29682  0.99932  0.28690  Biso   1.000  C
  C857     1.0000 0.74769  0.72614  0.48276  Biso   1.000  C
  C858     1.0000 0.54545  0.21055  0.73295  Biso   1.000  C
  C859     1.0000 0.76830  0.51240  0.22774  Biso   1.000  C
  C860     1.0000 0.28780  0.23442  0.02621  Biso   1.000  C
  C861     1.0000 0.50893  0.70814  0.80285  Biso   1.000  C
  C862     1.0000 0.23379  0.44134  0.26190  Biso   1.000  C
  C863     1.0000 0.80602  0.23139  0.50750  Biso   1.000  C
  C864     1.0000 0.01350  0.70823  0.72622  Biso   1.000  C
  C865     1.0000 0.74064  0.44551  0.76935  Biso   1.000  C
  C866     1.0000 0.81878  0.70970  0.48024  Biso   1.000  C
  C867     1.0000 0.50229  0.75098  0.75400  Biso   1.000  C
  C868     1.0000 0.26721  0.43156  0.72334  Biso   1.000  C
  C869     1.0000 0.30371  0.69117  0.04452  Biso   1.000  C
  C870     1.0000 0.01796  0.75449  0.76586  Biso   1.000  C
  C871     1.0000 0.82673  0.92524  0.76669  Biso   1.000  C
  C872     1.0000 0.73916  0.21421  0.50589  Biso   1.000  C
  C873     1.0000 0.02888  0.22179  0.73653  Biso   1.000  C
  C874     1.0000 0.29211  0.97169  0.74148  Biso   1.000  C
  C875     1.0000 0.25359  0.18185  0.01688  Biso   1.000  C
  C876     1.0000 0.54447  0.24825  0.77958  Biso   1.000  C
  C877     1.0000 0.30555  0.44469  0.25093  Biso   1.000  C
  C878     1.0000 0.26569  0.24996  0.53825  Biso   1.000  C
  C879     1.0000 0.53726  0.17656  0.27011  Biso   1.000  C
  C880     1.0000 0.78336  0.51329  0.30548  Biso   1.000  C
  C881     1.0000 0.75465  0.24407  0.01276  Biso   1.000  C
  C882     1.0000 0.00367  0.16525  0.26757  Biso   1.000  C
  C883     1.0000 0.25211  0.00130  0.24306  Biso   1.000  C
  C884     1.0000 0.28562  0.74961  0.52050  Biso   1.000  C
  C885     1.0000 0.05588  0.70101  0.29922  Biso   1.000  C
  C886     1.0000 0.72654  0.95280  0.25852  Biso   1.000  C
  C887     1.0000 0.79430  0.74054  0.00437  Biso   1.000  C
  C888     1.0000 0.53952  0.70543  0.22895  Biso   1.000  C
  C889     1.0000 0.75752  0.92611  0.29228  Biso   1.000  C
  C890     1.0000 0.32054  0.70784  0.99818  Biso   1.000  C
  C891     1.0000 0.05180  0.25894  0.76728  Biso   1.000  C
  C892     1.0000 0.22379  0.96773  0.27130  Biso   1.000  C
  C893     1.0000 0.78528  0.68700  0.51377  Biso   1.000  C
  C894     1.0000 0.49800  0.22542  0.79534  Biso   1.000  C
  C895     1.0000 0.80799  0.48109  0.27078  Biso   1.000  C
  C896     1.0000 0.22453  0.20853  0.98143  Biso   1.000  C
  C897     1.0000 0.54932  0.73232  0.73948  Biso   1.000  C
  C898     1.0000 0.27791  0.41176  0.21920  Biso   1.000  C
  C899     1.0000 0.76233  0.18960  0.54863  Biso   1.000  C
  C900     1.0000 0.05311  0.72755  0.79298  Biso   1.000  C
  C901     1.0000 0.32739  0.94941  0.77251  Biso   1.000  C
  C902     1.0000 0.72136  0.21431  0.98623  Biso   1.000  C
  C903     1.0000 0.02756  0.67068  0.26701  Biso   1.000  C
  C904     1.0000 0.80201  0.96772  0.78613  Biso   1.000  C
  C905     1.0000 0.23831  0.21939  0.50575  Biso   1.000  C
  C906     1.0000 0.50112  0.68029  0.25381  Biso   1.000  C
  C907     1.0000 0.24114  0.46642  0.75214  Biso   1.000  C
  C908     1.0000 0.82284  0.71621  0.04129  Biso   1.000  C
  C909     1.0000 0.49937  0.20322  0.29339  Biso   1.000  C
  C910     1.0000 0.77430  0.46665  0.80223  Biso   1.000  C
  C911     1.0000 0.32150  0.72070  0.49812  Biso   1.000  C
  C912     1.0000 0.97568  0.19767  0.23650  Biso   1.000  C
  C913     1.0000 0.79076  0.45508  0.75319  Biso   1.000  C
  C914     1.0000 0.77419  0.73426  0.49551  Biso   1.000  C
  C915     1.0000 0.52358  0.70633  0.77611  Biso   1.000  C
  C916     1.0000 0.28782  0.44528  0.77096  Biso   1.000  C
  C917     1.0000 0.27880  0.73166  0.02386  Biso   1.000  C
  C918     1.0000 0.03273  0.70462  0.74974  Biso   1.000  C
  C919     1.0000 0.77763  0.94243  0.74642  Biso   1.000  C
  C920     1.0000 0.78329  0.23477  0.52833  Biso   1.000  C
  C921     1.0000 0.03835  0.20814  0.78539  Biso   1.000  C
  C922     1.0000 0.27781  0.95525  0.78911  Biso   1.000  C
  C923     1.0000 0.27032  0.23181  0.00149  Biso   1.000  C
  C924     1.0000 0.52823  0.20381  0.75679  Biso   1.000  C
  C925     1.0000 0.26044  0.42812  0.26819  Biso   1.000  C
  C926     1.0000 0.28602  0.20020  0.52674  Biso   1.000  C
  C927     1.0000 0.52273  0.22671  0.25077  Biso   1.000  C
  C928     1.0000 0.76342  0.50412  0.25640  Biso   1.000  C
  C929     1.0000 0.77322  0.19642  0.99728  Biso   1.000  C
  C930     1.0000 0.99289  0.21515  0.28435  Biso   1.000  C
  C931     1.0000 0.27234  0.98336  0.28902  Biso   1.000  C
  C932     1.0000 0.27147  0.70232  0.50109  Biso   1.000  C
  C933     1.0000 0.04099  0.71914  0.24955  Biso   1.000  C
  C934     1.0000 0.77392  0.93635  0.24124  Biso   1.000  C
  C935     1.0000 0.77568  0.69645  0.02808  Biso   1.000  C
  C936     1.0000 0.51889  0.72526  0.27726  Biso   1.000  C
  C937     1.0000 0.74991  0.21832  0.99918  Biso   1.000  C
  C938     1.0000 0.04106  0.69686  0.27281  Biso   1.000  C
  C939     1.0000 0.29907  0.95782  0.76636  Biso   1.000  C
  C940     1.0000 0.26214  0.22279  0.52487  Biso   1.000  C
  C941     1.0000 0.52038  0.70342  0.25229  Biso   1.000  C
  C942     1.0000 0.80412  0.94587  0.76536  Biso   1.000  C
  C943     1.0000 0.79704  0.71805  0.02428  Biso   1.000  C
  C944     1.0000 0.51835  0.20081  0.27051  Biso   1.000  C
  C945     1.0000 0.26353  0.44730  0.74801  Biso   1.000  C
  C946     1.0000 0.29274  0.72495  0.50587  Biso   1.000  C
  C947     1.0000 0.99059  0.19243  0.26217  Biso   1.000  C
  C948     1.0000 0.76785  0.45534  0.77516  Biso   1.000  C
  C949     1.0000 0.30188  0.71012  0.02134  Biso   1.000  C
  C950     1.0000 0.04237  0.23038  0.76210  Biso   1.000  C
  C951     1.0000 0.75126  0.93651  0.26381  Biso   1.000  C
  C952     1.0000 0.79324  0.70910  0.49469  Biso   1.000  C
  C953     1.0000 0.52327  0.22603  0.77895  Biso   1.000  C
  C954     1.0000 0.24712  0.98470  0.26815  Biso   1.000  C
  C955     1.0000 0.24917  0.20688  0.00057  Biso   1.000  C
  C956     1.0000 0.52437  0.72999  0.75629  Biso   1.000  C
  C957     1.0000 0.78739  0.50268  0.27730  Biso   1.000  C
  C958     1.0000 0.75976  0.21281  0.52848  Biso   1.000  C
  C959     1.0000 0.03249  0.72886  0.77101  Biso   1.000  C
  C960     1.0000 0.28232  0.42710  0.24561  Biso   1.000  C
  Cu1      1.0000 0.02526  0.46516  0.66634  Biso   1.000  Cu
  Cu2      1.0000 0.68425  0.97138  0.50660  Biso   1.000  Cu
  Cu3      1.0000 0.53356  0.61392  0.00996  Biso   1.000  Cu
  Cu4      1.0000 0.52740  0.46870  0.86004  Biso   1.000  Cu
  Cu5      1.0000 0.18232  0.96636  0.02134  Biso   1.000  Cu
  Cu6      1.0000 0.03360  0.61689  0.51141  Biso   1.000  Cu
  Cu7      1.0000 0.53644  0.97234  0.67079  Biso   1.000  Cu
  Cu8      1.0000 0.87085  0.46529  0.51477  Biso   1.000  Cu
  Cu9      1.0000 0.01068  0.11664  0.01958  Biso   1.000  Cu
  Cu10     1.0000 0.03681  0.96356  0.85920  Biso   1.000  Cu
  Cu11     1.0000 0.36713  0.46801  0.01382  Biso   1.000  Cu
  Cu12     1.0000 0.52404  0.12206  0.51465  Biso   1.000  Cu
  Cu13     1.0000 0.02409  0.45936  0.35927  Biso   1.000  Cu
  Cu14     1.0000 0.37835  0.96405  0.52624  Biso   1.000  Cu
  Cu15     1.0000 0.50563  0.31256  0.01038  Biso   1.000  Cu
  Cu16     1.0000 0.52270  0.46452  0.16319  Biso   1.000  Cu
  Cu17     1.0000 0.87056  0.95928  0.00798  Biso   1.000  Cu
  Cu18     1.0000 0.02447  0.31146  0.52057  Biso   1.000  Cu
  Cu19     1.0000 0.51584  0.96272  0.36676  Biso   1.000  Cu
  Cu20     1.0000 0.18856  0.46752  0.50879  Biso   1.000  Cu
  Cu21     1.0000 0.03566  0.80664  0.00832  Biso   1.000  Cu
  Cu22     1.0000 0.01417  0.95615  0.16585  Biso   1.000  Cu
  Cu23     1.0000 0.67836  0.46187  0.01425  Biso   1.000  Cu
  Cu24     1.0000 0.53290  0.81438  0.51872  Biso   1.000  Cu
  Cu25     1.0000 0.23686  0.97178  0.02719  Biso   1.000  Cu
  Cu26     1.0000 0.01051  0.17083  0.01986  Biso   1.000  Cu
  Cu27     1.0000 0.01338  0.95326  0.22100  Biso   1.000  Cu
  Cu28     1.0000 0.73780  0.97241  0.50655  Biso   1.000  Cu
  Cu29     1.0000 0.52275  0.17557  0.51516  Biso   1.000  Cu
  Cu30     1.0000 0.51123  0.96290  0.31220  Biso   1.000  Cu
  Cu31     1.0000 0.31229  0.47346  0.01256  Biso   1.000  Cu
  Cu32     1.0000 0.53229  0.66843  0.01087  Biso   1.000  Cu
  Cu33     1.0000 0.52242  0.46342  0.21663  Biso   1.000  Cu
  Cu34     1.0000 0.81578  0.46740  0.51575  Biso   1.000  Cu
  Cu35     1.0000 0.03207  0.67194  0.51072  Biso   1.000  Cu
  Cu36     1.0000 0.02497  0.45722  0.30616  Biso   1.000  Cu
  Cu37     1.0000 0.81686  0.95536  0.00349  Biso   1.000  Cu
  Cu38     1.0000 0.03923  0.75235  0.00704  Biso   1.000  Cu
  Cu39     1.0000 0.03854  0.96744  0.80654  Biso   1.000  Cu
  Cu40     1.0000 0.32295  0.96317  0.53043  Biso   1.000  Cu
  Cu41     1.0000 0.53557  0.76053  0.52202  Biso   1.000  Cu
  Cu42     1.0000 0.53980  0.97016  0.72489  Biso   1.000  Cu
  Cu43     1.0000 0.73207  0.45718  0.01583  Biso   1.000  Cu
  Cu44     1.0000 0.50882  0.25831  0.00934  Biso   1.000  Cu
  Cu45     1.0000 0.52567  0.46333  0.80587  Biso   1.000  Cu
  Cu46     1.0000 0.24215  0.46470  0.51013  Biso   1.000  Cu
  Cu47     1.0000 0.02347  0.25884  0.51987  Biso   1.000  Cu
  Cu48     1.0000 0.02767  0.46626  0.72093  Biso   1.000  Cu
  H1       1.0000 0.26342  0.75316  0.52886  Biso   1.000  H
  H2       1.0000 0.56243  0.24992  0.76467  Biso   1.000  H
  H3       1.0000 0.76640  0.52869  0.31256  Biso   1.000  H
  H4       1.0000 0.77472  0.74321  0.98964  Biso   1.000  H
  H5       1.0000 0.02534  0.19855  0.73283  Biso   1.000  H
  H6       1.0000 0.30701  0.45526  0.27152  Biso   1.000  H
  H7       1.0000 0.28213  0.25257  0.55545  Biso   1.000  H
  H8       1.0000 0.00021  0.75588  0.75038  Biso   1.000  H
  H9       1.0000 0.72304  0.96009  0.23600  Biso   1.000  H
  H10      1.0000 0.77480  0.24868  0.02316  Biso   1.000  H
  H11      1.0000 0.48333  0.74883  0.76896  Biso   1.000  H
  H12      1.0000 0.26830  0.01893  0.24052  Biso   1.000  H
  H13      1.0000 0.74075  0.23112  0.49090  Biso   1.000  H
  H14      1.0000 0.55163  0.72564  0.22642  Biso   1.000  H
  H15      1.0000 0.28609  0.41391  0.72091  Biso   1.000  H
  H16      1.0000 0.27307  0.18131  0.03128  Biso   1.000  H
  H17      1.0000 0.06728  0.72204  0.30317  Biso   1.000  H
  H18      1.0000 0.73419  0.43539  0.74867  Biso   1.000  H
  H19      1.0000 0.82308  0.72632  0.46625  Biso   1.000  H
  H20      1.0000 0.01624  0.15944  0.28760  Biso   1.000  H
  H21      1.0000 0.26853  0.97796  0.73733  Biso   1.000  H
  H22      1.0000 0.29075  0.69369  0.06433  Biso   1.000  H
  H23      1.0000 0.55229  0.17286  0.25218  Biso   1.000  H
  H24      1.0000 0.82689  0.91023  0.75043  Biso   1.000  H
  H25      1.0000 0.30174  0.98552  0.81923  Biso   1.000  H
  H26      1.0000 0.80210  0.21541  0.03172  Biso   1.000  H
  H27      1.0000 0.01546  0.69347  0.21940  Biso   1.000  H
  H28      1.0000 0.80107  0.91580  0.71486  Biso   1.000  H
  H29      1.0000 0.26204  0.17140  0.49994  Biso   1.000  H
  H30      1.0000 0.53268  0.76079  0.24804  Biso   1.000  H
  H31      1.0000 0.31816  0.46838  0.74286  Biso   1.000  H
  H32      1.0000 0.80480  0.66395  0.04634  Biso   1.000  H
  H33      1.0000 0.49620  0.26056  0.27567  Biso   1.000  H
  H34      1.0000 0.76511  0.48484  0.72971  Biso   1.000  H
  H35      1.0000 0.24434  0.73039  0.47481  Biso   1.000  H
  H36      1.0000 0.96360  0.19726  0.31455  Biso   1.000  H
  H37      1.0000 0.74592  0.92130  0.20630  Biso   1.000  H
  H38      1.0000 0.30368  0.76593  0.00083  Biso   1.000  H
  H39      1.0000 0.00192  0.22815  0.80608  Biso   1.000  H
  H40      1.0000 0.25066  0.95226  0.31727  Biso   1.000  H
  H41      1.0000 0.80348  0.76175  0.51888  Biso   1.000  H
  H42      1.0000 0.50053  0.17321  0.77877  Biso   1.000  H
  H43      1.0000 0.73790  0.47839  0.28617  Biso   1.000  H
  H44      1.0000 0.25723  0.25454  0.96071  Biso   1.000  H
  H45      1.0000 0.55181  0.67972  0.74852  Biso   1.000  H
  H46      1.0000 0.29153  0.41277  0.29856  Biso   1.000  H
  H47      1.0000 0.76317  0.25988  0.56090  Biso   1.000  H
  H48      1.0000 0.06546  0.67410  0.76966  Biso   1.000  H
  H49      1.0000 0.22817  0.44605  0.23936  Biso   1.000  H
  H50      1.0000 0.31183  0.22348  0.55627  Biso   1.000  H
  H51      1.0000 0.55367  0.20128  0.22175  Biso   1.000  H
  H52      1.0000 0.78785  0.52308  0.22301  Biso   1.000  H
  H53      1.0000 0.75310  0.17263  0.96144  Biso   1.000  H
  H54      1.0000 0.02356  0.23750  0.25726  Biso   1.000  H
  H55      1.0000 0.29936  0.01417  0.26955  Biso   1.000  H
  H56      1.0000 0.29781  0.67080  0.52354  Biso   1.000  H
  H57      1.0000 0.06623  0.75160  0.27328  Biso   1.000  H
  H58      1.0000 0.80281  0.95544  0.27163  Biso   1.000  H
  H59      1.0000 0.74214  0.72207  0.00617  Biso   1.000  H
  H60      1.0000 0.50599  0.69405  0.30668  Biso   1.000  H
  H61      1.0000 0.81449  0.42085  0.77221  Biso   1.000  H
  H62      1.0000 0.74514  0.70658  0.46990  Biso   1.000  H
  H63      1.0000 0.49646  0.72748  0.80807  Biso   1.000  H
  H64      1.0000 0.26088  0.42466  0.80134  Biso   1.000  H
  H65      1.0000 0.24628  0.70117  0.03937  Biso   1.000  H
  H66      1.0000 0.00160  0.72811  0.72128  Biso   1.000  H
  H67      1.0000 0.74721  0.96035  0.77514  Biso   1.000  H
  H68      1.0000 0.80633  0.21422  0.49061  Biso   1.000  H
  H69      1.0000 0.07355  0.18242  0.76751  Biso   1.000  H
  H70      1.0000 0.24684  0.92446  0.76557  Biso   1.000  H
  H71      1.0000 0.28466  0.22067  0.04364  Biso   1.000  H
  H72      1.0000 0.55683  0.23079  0.72917  Biso   1.000  H
  H73      1.0000 0.79715  0.47300  0.80635  Biso   1.000  H
  H74      1.0000 0.76654  0.68843  0.52769  Biso   1.000  H
  H75      1.0000 0.56824  0.71862  0.74280  Biso   1.000  H
  H76      1.0000 0.23661  0.47201  0.77433  Biso   1.000  H
  H77      1.0000 0.32260  0.72293  0.98025  Biso   1.000  H
  H78      1.0000 0.06412  0.70690  0.79437  Biso   1.000  H
  H79      1.0000 0.78604  0.98488  0.78381  Biso   1.000  H
  H80      1.0000 0.78171  0.18769  0.56121  Biso   1.000  H
  H81      1.0000 0.05920  0.26282  0.78853  Biso   1.000  H
  H82      1.0000 0.33208  0.94157  0.79393  Biso   1.000  H
  H83      1.0000 0.22152  0.22997  0.97042  Biso   1.000  H
  H84      1.0000 0.47986  0.21043  0.79211  Biso   1.000  H
  H85      1.0000 0.26037  0.39819  0.21610  Biso   1.000  H
  H86      1.0000 0.23285  0.19972  0.49308  Biso   1.000  H
  H87      1.0000 0.48357  0.22105  0.29390  Biso   1.000  H
  H88      1.0000 0.80898  0.47194  0.24882  Biso   1.000  H
  H89      1.0000 0.71785  0.19477  0.97367  Biso   1.000  H
  H90      1.0000 0.96676  0.21897  0.23384  Biso   1.000  H
  H91      1.0000 0.21902  0.95308  0.28864  Biso   1.000  H
  H92      1.0000 0.32921  0.70193  0.48480  Biso   1.000  H
  H93      1.0000 0.01893  0.66784  0.24489  Biso   1.000  H
  H94      1.0000 0.77756  0.91418  0.29556  Biso   1.000  H
  H95      1.0000 0.82447  0.69954  0.05758  Biso   1.000  H
  H96      1.0000 0.48489  0.68120  0.26992  Biso   1.000  H
  H97      1.0000 0.90090  0.95863  0.91749  Biso   1.000  H
  H98      1.0000 0.94522  0.82451  0.00186  Biso   1.000  H
  H99      1.0000 0.03966  0.87545  0.88017  Biso   1.000  H
  H100     1.0000 0.40605  0.97184  0.61856  Biso   1.000  H
  H101     1.0000 0.44294  0.83109  0.52935  Biso   1.000  H
  H102     1.0000 0.53334  0.88284  0.65246  Biso   1.000  H
  H103     1.0000 0.65791  0.47132  0.92147  Biso   1.000  H
  H104     1.0000 0.60544  0.33453  0.00973  Biso   1.000  H
  H105     1.0000 0.51883  0.37401  0.88024  Biso   1.000  H
  H106     1.0000 0.16259  0.47985  0.59646  Biso   1.000  H
  H107     1.0000 0.11633  0.33633  0.50729  Biso   1.000  H
  H108     1.0000 0.02371  0.37201  0.64778  Biso   1.000  H
  H109     1.0000 0.15161  0.96599  0.11322  Biso   1.000  H
  H110     1.0000 0.10443  0.09791  0.01502  Biso   1.000  H
  H111     1.0000 0.00016  0.04830  0.15010  Biso   1.000  H
  H112     1.0000 0.65752  0.97792  0.41511  Biso   1.000  H
  H113     1.0000 0.61704  0.10375  0.51664  Biso   1.000  H
  H114     1.0000 0.52639  0.06094  0.38444  Biso   1.000  H
  H115     1.0000 0.38395  0.46280  0.10168  Biso   1.000  H
  H116     1.0000 0.43950  0.59064  0.01687  Biso   1.000  H
  H117     1.0000 0.52270  0.55146  0.14914  Biso   1.000  H
  H118     1.0000 0.88937  0.46882  0.42626  Biso   1.000  H
  H119     1.0000 0.93563  0.59810  0.51858  Biso   1.000  H
  H120     1.0000 0.03603  0.54922  0.38017  Biso   1.000  H
  H121     1.0000 0.13011  0.96934  0.88879  Biso   1.000  H
  H122     1.0000 0.88463  0.04776  0.99696  Biso   1.000  H
  H123     1.0000 0.03818  0.82424  0.10174  Biso   1.000  H
  H124     1.0000 0.62501  0.95852  0.64330  Biso   1.000  H
  H125     1.0000 0.39457  0.05401  0.53136  Biso   1.000  H
  H126     1.0000 0.52244  0.82890  0.42830  Biso   1.000  H
  H127     1.0000 0.43146  0.46779  0.88236  Biso   1.000  H
  H128     1.0000 0.66500  0.55141  0.01943  Biso   1.000  H
  H129     1.0000 0.52310  0.32686  0.09670  Biso   1.000  H
  H130     1.0000 0.93692  0.46673  0.64893  Biso   1.000  H
  H131     1.0000 0.16976  0.55504  0.49819  Biso   1.000  H
  H132     1.0000 0.00655  0.33197  0.42181  Biso   1.000  H
  H133     1.0000 0.92407  0.94553  0.14126  Biso   1.000  H
  H134     1.0000 0.16576  0.87826  0.01620  Biso   1.000  H
  H135     1.0000 0.01694  0.09548  0.92603  Biso   1.000  H
  H136     1.0000 0.42511  0.96372  0.39015  Biso   1.000  H
  H137     1.0000 0.66452  0.88276  0.49639  Biso   1.000  H
  H138     1.0000 0.53291  0.09896  0.60957  Biso   1.000  H
  H139     1.0000 0.61805  0.46789  0.14788  Biso   1.000  H
  H140     1.0000 0.37769  0.37935  0.00382  Biso   1.000  H
  H141     1.0000 0.53202  0.59740  0.91876  Biso   1.000  H
  H142     1.0000 0.12024  0.44903  0.38137  Biso   1.000  H
  H143     1.0000 0.88868  0.37756  0.51643  Biso   1.000  H
  H144     1.0000 0.03003  0.59941  0.59798  Biso   1.000  H
  H145     1.0000 0.62100  0.47056  0.87935  Biso   1.000  H
  H146     1.0000 0.89412  0.55925  0.51279  Biso   1.000  H
  H147     1.0000 0.53078  0.83362  0.60797  Biso   1.000  H
  H148     1.0000 0.11729  0.47401  0.64404  Biso   1.000  H
  H149     1.0000 0.39417  0.55520  0.02555  Biso   1.000  H
  H150     1.0000 0.04090  0.83089  0.92095  Biso   1.000  H
  H151     1.0000 0.94767  0.95839  0.87677  Biso   1.000  H
  H152     1.0000 0.66033  0.06396  0.51325  Biso   1.000  H
  H153     1.0000 0.02758  0.32780  0.60726  Biso   1.000  H
  H154     1.0000 0.44409  0.98249  0.65483  Biso   1.000  H
  H155     1.0000 0.15418  0.05715  0.02183  Biso   1.000  H
  H156     1.0000 0.50804  0.33066  0.92202  Biso   1.000  H
  H157     1.0000 0.42765  0.46756  0.14311  Biso   1.000  H
  H158     1.0000 0.15928  0.37603  0.50474  Biso   1.000  H
  H159     1.0000 0.52403  0.10350  0.42467  Biso   1.000  H
  H160     1.0000 0.93015  0.46403  0.38133  Biso   1.000  H
  H161     1.0000 0.65061  0.37380  0.01423  Biso   1.000  H
  H162     1.0000 0.01007  0.09367  0.10838  Biso   1.000  H
  H163     1.0000 0.11033  0.96658  0.15020  Biso   1.000  H
  H164     1.0000 0.39475  0.87299  0.52928  Biso   1.000  H
  H165     1.0000 0.03356  0.59352  0.41984  Biso   1.000  H
  H166     1.0000 0.60919  0.96906  0.37513  Biso   1.000  H
  H167     1.0000 0.89659  0.86932  0.00420  Biso   1.000  H
  H168     1.0000 0.52450  0.59582  0.10622  Biso   1.000  H
  H169     1.0000 0.02842  0.05537  0.88371  Biso   1.000  H
  H170     1.0000 0.88183  0.96028  0.10020  Biso   1.000  H
  H171     1.0000 0.12616  0.83167  0.01118  Biso   1.000  H
  H172     1.0000 0.54931  0.05956  0.64840  Biso   1.000  H
  H173     1.0000 0.38950  0.96757  0.43397  Biso   1.000  H
  H174     1.0000 0.62608  0.83779  0.51462  Biso   1.000  H
  H175     1.0000 0.52843  0.55776  0.87860  Biso   1.000  H
  H176     1.0000 0.65962  0.47197  0.10575  Biso   1.000  H
  H177     1.0000 0.41874  0.33473  0.00189  Biso   1.000  H
  H178     1.0000 0.02116  0.55499  0.64582  Biso   1.000  H
  H179     1.0000 0.16537  0.45717  0.41949  Biso   1.000  H
  H180     1.0000 0.93139  0.33530  0.52315  Biso   1.000  H
  H181     1.0000 0.03926  0.86595  0.14494  Biso   1.000  H
  H182     1.0000 0.17002  0.96773  0.93295  Biso   1.000  H
  H183     1.0000 0.92364  0.09140  0.00556  Biso   1.000  H
  H184     1.0000 0.52002  0.87050  0.38884  Biso   1.000  H
  H185     1.0000 0.66484  0.96298  0.60017  Biso   1.000  H
  H186     1.0000 0.43600  0.09849  0.53185  Biso   1.000  H
  H187     1.0000 0.51551  0.37513  0.14345  Biso   1.000  H
  H188     1.0000 0.38896  0.47877  0.92143  Biso   1.000  H
  H189     1.0000 0.62464  0.59340  0.02277  Biso   1.000  H
  H190     1.0000 0.00808  0.36976  0.37622  Biso   1.000  H
  H191     1.0000 0.89521  0.47958  0.60656  Biso   1.000  H
  H192     1.0000 0.12564  0.59844  0.50731  Biso   1.000  H
  H193     1.0000 0.30192  0.81714  0.50310  Biso   1.000  H
  H194     1.0000 0.49928  0.23578  0.86860  Biso   1.000  H
  H195     1.0000 0.87855  0.48520  0.28464  Biso   1.000  H
  H196     1.0000 0.80468  0.81201  0.01686  Biso   1.000  H
  H197     1.0000 0.04680  0.23785  0.66557  Biso   1.000  H
  H198     1.0000 0.38020  0.42859  0.23528  Biso   1.000  H
  H199     1.0000 0.25628  0.32227  0.51377  Biso   1.000  H
  H200     1.0000 0.03447  0.73762  0.85974  Biso   1.000  H
  H201     1.0000 0.65673  0.93789  0.28202  Biso   1.000  H
  H202     1.0000 0.74303  0.31699  0.99506  Biso   1.000  H
  H203     1.0000 0.53815  0.74313  0.66774  Biso   1.000  H
  H204     1.0000 0.15357  0.99354  0.24814  Biso   1.000  H
  H205     1.0000 0.75682  0.11546  0.52917  Biso   1.000  H
  H206     1.0000 0.52440  0.69296  0.15516  Biso   1.000  H
  H207     1.0000 0.17408  0.45318  0.74000  Biso   1.000  H
  H208     1.0000 0.24551  0.11097  0.98860  Biso   1.000  H
  H209     1.0000 0.03637  0.68697  0.36428  Biso   1.000  H
  H210     1.0000 0.67058  0.47181  0.78370  Biso   1.000  H
  H211     1.0000 0.79704  0.61335  0.50277  Biso   1.000  H
  H212     1.0000 0.99379  0.18395  0.16753  Biso   1.000  H
  H213     1.0000 0.39858  0.98247  0.75676  Biso   1.000  H
  H214     1.0000 0.30183  0.61945  0.02483  Biso   1.000  H
  H215     1.0000 0.51046  0.19442  0.36845  Biso   1.000  H
  H216     1.0000 0.89299  0.95585  0.77726  Biso   1.000  H
  H217     1.0000 0.25708  0.45786  0.36000  Biso   1.000  H
  H218     1.0000 0.37561  0.19448  0.53466  Biso   1.000  H
  H219     1.0000 0.52357  0.32130  0.24071  Biso   1.000  H
  H220     1.0000 0.75563  0.48314  0.15664  Biso   1.000  H
  H221     1.0000 0.86901  0.18742  0.99463  Biso   1.000  H
  H222     1.0000 0.00952  0.30804  0.28577  Biso   1.000  H
  H223     1.0000 0.28718  0.98032  0.38665  Biso   1.000  H
  H224     1.0000 0.17664  0.69421  0.50453  Biso   1.000  H
  H225     1.0000 0.01813  0.81382  0.23878  Biso   1.000  H
  H226     1.0000 0.78355  0.95770  0.14400  Biso   1.000  H
  H227     1.0000 0.67667  0.68772  0.03628  Biso   1.000  H
  H228     1.0000 0.50061  0.81767  0.29167  Biso   1.000  H
  H229     1.0000 0.79768  0.45852  0.65404  Biso   1.000  H
  H230     1.0000 0.67813  0.74189  0.50953  Biso   1.000  H
  H231     1.0000 0.53087  0.61012  0.78270  Biso   1.000  H
  H232     1.0000 0.29335  0.46551  0.86833  Biso   1.000  H
  H233     1.0000 0.18295  0.73747  0.00963  Biso   1.000  H
  H234     1.0000 0.01426  0.61002  0.74296  Biso   1.000  H
  H235     1.0000 0.76446  0.95234  0.65225  Biso   1.000  H
  H236     1.0000 0.87624  0.24162  0.53357  Biso   1.000  H
  H237     1.0000 0.03285  0.11271  0.78905  Biso   1.000  H
  H238     1.0000 0.26266  0.94476  0.87837  Biso   1.000  H
  H239     1.0000 0.36030  0.24499  0.02359  Biso   1.000  H
  H240     1.0000 0.54703  0.10842  0.74788  Biso   1.000  H
  H241     1.0000 0.75308  0.44401  0.87083  Biso   1.000  H
  H242     1.0000 0.88824  0.69887  0.51763  Biso   1.000  H
  H243     1.0000 0.52142  0.82850  0.74911  Biso   1.000  H
  H244     1.0000 0.25810  0.46127  0.65630  Biso   1.000  H
  H245     1.0000 0.39121  0.69186  0.01561  Biso   1.000  H
  H246     1.0000 0.04237  0.82596  0.77970  Biso   1.000  H
  H247     1.0000 0.80724  0.94327  0.85861  Biso   1.000  H
  H248     1.0000 0.66642  0.20152  0.52704  Biso   1.000  H
  H249     1.0000 0.02823  0.32333  0.74596  Biso   1.000  H
  H250     1.0000 0.30886  0.95956  0.67108  Biso   1.000  H
  H251     1.0000 0.15421  0.19511  0.99553  Biso   1.000  H
  H252     1.0000 0.53164  0.32001  0.78592  Biso   1.000  H
  H253     1.0000 0.29136  0.43455  0.15082  Biso   1.000  H
  H254     1.0000 0.17195  0.23658  0.51684  Biso   1.000  H
  H255     1.0000 0.52892  0.10507  0.28438  Biso   1.000  H
  H256     1.0000 0.79384  0.48548  0.36997  Biso   1.000  H
  H257     1.0000 0.65234  0.23372  0.00849  Biso   1.000  H
  H258     1.0000 0.98882  0.09398  0.24789  Biso   1.000  H
  H259     1.0000 0.24569  0.97239  0.17366  Biso   1.000  H
  H260     1.0000 0.39466  0.73324  0.52583  Biso   1.000  H
  H261     1.0000 0.04733  0.59779  0.28213  Biso   1.000  H
  H262     1.0000 0.74660  0.95816  0.35681  Biso   1.000  H
  H263     1.0000 0.89424  0.72928  0.02181  Biso   1.000  H
  H264     1.0000 0.51844  0.60921  0.24482  Biso   1.000  H
  H265     1.0000 0.01637  0.19457  0.87467  Biso   1.000  H
  H266     1.0000 0.87004  0.92023  0.23199  Biso   1.000  H
  H267     1.0000 0.26350  0.82689  0.03256  Biso   1.000  H
  H268     1.0000 0.52525  0.19566  0.66292  Biso   1.000  H
  H269     1.0000 0.36589  0.96803  0.29633  Biso   1.000  H
  H270     1.0000 0.76332  0.83138  0.48787  Biso   1.000  H
  H271     1.0000 0.53585  0.69345  0.86488  Biso   1.000  H
  H272     1.0000 0.66561  0.48958  0.24493  Biso   1.000  H
  H273     1.0000 0.27835  0.32764  0.99511  Biso   1.000  H
  H274     1.0000 0.03767  0.69206  0.65888  Biso   1.000  H
  H275     1.0000 0.16316  0.43075  0.28145  Biso   1.000  H
  H276     1.0000 0.79202  0.32729  0.52981  Biso   1.000  H
  H277     1.0000 0.03858  0.72670  0.15071  Biso   1.000  H
  H278     1.0000 0.17839  0.96086  0.79288  Biso   1.000  H
  H279     1.0000 0.78428  0.09578  0.98614  Biso   1.000  H
  H280     1.0000 0.53105  0.73428  0.37496  Biso   1.000  H
  H281     1.0000 0.68115  0.93541  0.73676  Biso   1.000  H
  H282     1.0000 0.29750  0.10590  0.53667  Biso   1.000  H
  H283     1.0000 0.51781  0.23362  0.15538  Biso   1.000  H
  H284     1.0000 0.38307  0.44664  0.78452  Biso   1.000  H
  H285     1.0000 0.76554  0.59867  0.02296  Biso   1.000  H
  H286     1.0000 0.99609  0.23301  0.37983  Biso   1.000  H
  H287     1.0000 0.88174  0.45413  0.74182  Biso   1.000  H
  H288     1.0000 0.26119  0.60928  0.47946  Biso   1.000  H
  H289     1.0000 0.10151  0.19254  0.00401  Biso   1.000  H
  H290     1.0000 0.98653  0.04014  0.24262  Biso   1.000  H
  H291     1.0000 0.24963  0.97048  0.11621  Biso   1.000  H
  H292     1.0000 0.61035  0.19965  0.52572  Biso   1.000  H
  H293     1.0000 0.52356  0.04688  0.29151  Biso   1.000  H
  H294     1.0000 0.75197  0.96547  0.41277  Biso   1.000  H
  H295     1.0000 0.44657  0.68503  0.01591  Biso   1.000  H
  H296     1.0000 0.51582  0.55793  0.24715  Biso   1.000  H
  H297     1.0000 0.28961  0.44953  0.09821  Biso   1.000  H
  H298     1.0000 0.94124  0.69339  0.51807  Biso   1.000  H
  H299     1.0000 0.04722  0.53997  0.28754  Biso   1.000  H
  H300     1.0000 0.79380  0.47924  0.42547  Biso   1.000  H
  H301     1.0000 0.95096  0.73194  0.01580  Biso   1.000  H
  H302     1.0000 0.03874  0.87908  0.78274  Biso   1.000  H
  H303     1.0000 0.80644  0.94288  0.91221  Biso   1.000  H
  H304     1.0000 0.44473  0.73583  0.52314  Biso   1.000  H
  H305     1.0000 0.51541  0.88352  0.74864  Biso   1.000  H
  H306     1.0000 0.31114  0.95287  0.61574  Biso   1.000  H
  H307     1.0000 0.59842  0.24012  0.99946  Biso   1.000  H
  H308     1.0000 0.53830  0.37259  0.78570  Biso   1.000  H
  H309     1.0000 0.75219  0.44344  0.92543  Biso   1.000  H
  H310     1.0000 0.11454  0.24088  0.51662  Biso   1.000  H
  H311     1.0000 0.02386  0.37824  0.74385  Biso   1.000  H
  H312     1.0000 0.25898  0.47296  0.60360  Biso   1.000  H
  H313     1.0000 0.26753  0.95793  0.93515  Biso   1.000  H
  H314     1.0000 0.92293  0.18567  0.00123  Biso   1.000  H
  H315     1.0000 0.01287  0.86872  0.23753  Biso   1.000  H
  H316     1.0000 0.76205  0.95851  0.59523  Biso   1.000  H
  H317     1.0000 0.43137  0.19496  0.53099  Biso   1.000  H
  H318     1.0000 0.49546  0.87322  0.29567  Biso   1.000  H
  H319     1.0000 0.29345  0.47345  0.92092  Biso   1.000  H
  H320     1.0000 0.62256  0.68822  0.03782  Biso   1.000  H
  H321     1.0000 0.52855  0.37284  0.23999  Biso   1.000  H
  H322     1.0000 0.79729  0.46935  0.60358  Biso   1.000  H
  H323     1.0000 0.12481  0.69305  0.50719  Biso   1.000  H
  H324     1.0000 0.01626  0.36248  0.28135  Biso   1.000  H
  H325     1.0000 0.78904  0.96847  0.09412  Biso   1.000  H
  H326     1.0000 0.12825  0.73592  0.00751  Biso   1.000  H
  H327     1.0000 0.03998  0.06008  0.78664  Biso   1.000  H
  H328     1.0000 0.29084  0.97531  0.43994  Biso   1.000  H
  H329     1.0000 0.62758  0.74291  0.52236  Biso   1.000  H
  H330     1.0000 0.55917  0.06064  0.74429  Biso   1.000  H
  H331     1.0000 0.75268  0.46801  0.10945  Biso   1.000  H
  H332     1.0000 0.41323  0.24251  0.02762  Biso   1.000  H
  H333     1.0000 0.53270  0.55763  0.78071  Biso   1.000  H
  H334     1.0000 0.26230  0.46244  0.41456  Biso   1.000  H
  H335     1.0000 0.93022  0.23929  0.52647  Biso   1.000  H
  H336     1.0000 0.02164  0.55400  0.74119  Biso   1.000  H
  H337     1.0000 0.01104  0.19097  0.92743  Biso   1.000  H
  H338     1.0000 0.92366  0.92118  0.23198  Biso   1.000  H
  H339     1.0000 0.25727  0.88273  0.03967  Biso   1.000  H
  H340     1.0000 0.52124  0.19260  0.60593  Biso   1.000  H
  H341     1.0000 0.42151  0.96847  0.29265  Biso   1.000  H
  H342     1.0000 0.75979  0.88500  0.48916  Biso   1.000  H
  H343     1.0000 0.53580  0.69522  0.92028  Biso   1.000  H
  H344     1.0000 0.61222  0.48165  0.24255  Biso   1.000  H
  H345     1.0000 0.28047  0.38606  0.99399  Biso   1.000  H
  H346     1.0000 0.04754  0.69282  0.60583  Biso   1.000  H
  H347     1.0000 0.11320  0.43389  0.28511  Biso   1.000  H
  H348     1.0000 0.79423  0.38186  0.51965  Biso   1.000  H
  H349     1.0000 0.04354  0.73166  0.09534  Biso   1.000  H
  H350     1.0000 0.12859  0.97510  0.79310  Biso   1.000  H
  H351     1.0000 0.78838  0.04077  0.98817  Biso   1.000  H
  H352     1.0000 0.54311  0.73713  0.43078  Biso   1.000  H
  H353     1.0000 0.62913  0.94336  0.74040  Biso   1.000  H
  H354     1.0000 0.29921  0.05286  0.53668  Biso   1.000  H
  H355     1.0000 0.51814  0.23489  0.09815  Biso   1.000  H
  H356     1.0000 0.43299  0.44488  0.78576  Biso   1.000  H
  H357     1.0000 0.76202  0.54770  0.02017  Biso   1.000  H
  H358     1.0000 0.99582  0.23647  0.43248  Biso   1.000  H
  H359     1.0000 0.93603  0.46089  0.74608  Biso   1.000  H
  H360     1.0000 0.26465  0.55202  0.48532  Biso   1.000  H
  H361     1.0000 0.03246  0.69211  0.41561  Biso   1.000  H
  H362     1.0000 0.44916  0.98818  0.75273  Biso   1.000  H
  H363     1.0000 0.74229  0.37041  0.99815  Biso   1.000  H
  H364     1.0000 0.52564  0.69046  0.09995  Biso   1.000  H
  H365     1.0000 0.95020  0.95930  0.78216  Biso   1.000  H
  H366     1.0000 0.25591  0.37248  0.50875  Biso   1.000  H
  H367     1.0000 0.50938  0.19548  0.42301  Biso   1.000  H
  H368     1.0000 0.11789  0.45936  0.73958  Biso   1.000  H
  H369     1.0000 0.80275  0.86428  0.00978  Biso   1.000  H
  H370     1.0000 0.99791  0.18544  0.11285  Biso   1.000  H
  H371     1.0000 0.61745  0.47161  0.78246  Biso   1.000  H
  H372     1.0000 0.30042  0.87248  0.50908  Biso   1.000  H
  H373     1.0000 0.04679  0.23168  0.61186  Biso   1.000  H
  H374     1.0000 0.60060  0.94039  0.28495  Biso   1.000  H
  H375     1.0000 0.29857  0.56444  0.03403  Biso   1.000  H
  H376     1.0000 0.49249  0.23743  0.91924  Biso   1.000  H
  H377     1.0000 0.09944  0.99081  0.24518  Biso   1.000  H
  H378     1.0000 0.79883  0.56048  0.50603  Biso   1.000  H
  H379     1.0000 0.53771  0.74038  0.61141  Biso   1.000  H
  H380     1.0000 0.93085  0.47584  0.28444  Biso   1.000  H
  H381     1.0000 0.24724  0.05980  0.99820  Biso   1.000  H
  H382     1.0000 0.03218  0.73658  0.91238  Biso   1.000  H
  H383     1.0000 0.43593  0.44373  0.23538  Biso   1.000  H
  H384     1.0000 0.75606  0.06445  0.52218  Biso   1.000  H
  H385     1.0000 0.25600  0.41898  0.34112  Biso   1.000  H
  H386     1.0000 0.30014  0.13379  0.49954  Biso   1.000  H
  H387     1.0000 0.49433  0.29178  0.23299  Biso   1.000  H
  H388     1.0000 0.70033  0.46395  0.24905  Biso   1.000  H
  H389     1.0000 0.83968  0.17996  0.02788  Biso   1.000  H
  H390     1.0000 0.96521  0.23530  0.34887  Biso   1.000  H
  H391     1.0000 0.28936  0.94949  0.35505  Biso   1.000  H
  H392     1.0000 0.20776  0.68886  0.46641  Biso   1.000  H
  H393     1.0000 0.01034  0.73050  0.18151  Biso   1.000  H
  H394     1.0000 0.78478  0.91924  0.17071  Biso   1.000  H
  H395     1.0000 0.76325  0.62919  0.05372  Biso   1.000  H
  H396     1.0000 0.53854  0.79415  0.28696  Biso   1.000  H
  H397     1.0000 0.80208  0.49097  0.68911  Biso   1.000  H
  H398     1.0000 0.76688  0.80288  0.52386  Biso   1.000  H
  H399     1.0000 0.55617  0.63954  0.78262  Biso   1.000  H
  H400     1.0000 0.35041  0.47882  0.77643  Biso   1.000  H
  H401     1.0000 0.26423  0.79935  0.00140  Biso   1.000  H
  H402     1.0000 0.05733  0.63410  0.73499  Biso   1.000  H
  H403     1.0000 0.76480  0.92038  0.67695  Biso   1.000  H
  H404     1.0000 0.80165  0.29829  0.55938  Biso   1.000  H
  H405     1.0000 0.99037  0.18540  0.83864  Biso   1.000  H
  H406     1.0000 0.26392  0.98403  0.85296  Biso   1.000  H
  H407     1.0000 0.28949  0.29277  0.96679  Biso   1.000  H
  H408     1.0000 0.50507  0.13576  0.74372  Biso   1.000  H
  H409     1.0000 0.29959  0.40521  0.17771  Biso   1.000  H
  H410     1.0000 0.19896  0.23750  0.48659  Biso   1.000  H
  H411     1.0000 0.48045  0.18402  0.33177  Biso   1.000  H
  H412     1.0000 0.84517  0.45734  0.28277  Biso   1.000  H
  H413     1.0000 0.67974  0.23261  0.97639  Biso   1.000  H
  H414     1.0000 0.96141  0.18420  0.19632  Biso   1.000  H
  H415     1.0000 0.18416  0.95116  0.24964  Biso   1.000  H
  H416     1.0000 0.36600  0.73568  0.49314  Biso   1.000  H
  H417     1.0000 0.02131  0.62656  0.28042  Biso   1.000  H
  H418     1.0000 0.74557  0.92139  0.33674  Biso   1.000  H
  H419     1.0000 0.86333  0.73612  0.05412  Biso   1.000  H
  H420     1.0000 0.48660  0.64096  0.23419  Biso   1.000  H
  H421     1.0000 0.75529  0.48117  0.84371  Biso   1.000  H
  H422     1.0000 0.79564  0.64869  0.53211  Biso   1.000  H
  H423     1.0000 0.56882  0.75499  0.70404  Biso   1.000  H
  H424     1.0000 0.20424  0.48739  0.73355  Biso   1.000  H
  H425     1.0000 0.35515  0.68399  0.97694  Biso   1.000  H
  H426     1.0000 0.07284  0.74229  0.83330  Biso   1.000  H
  H427     1.0000 0.82025  0.98681  0.82498  Biso   1.000  H
  H428     1.0000 0.74491  0.14912  0.55925  Biso   1.000  H
  H429     1.0000 0.06563  0.29866  0.74927  Biso   1.000  H
  H430     1.0000 0.37089  0.94415  0.75654  Biso   1.000  H
  H431     1.0000 0.18463  0.18835  0.96583  Biso   1.000  H
  H432     1.0000 0.47417  0.24641  0.82968  Biso   1.000  H
  H433     1.0000 0.30720  0.99419  0.70394  Biso   1.000  H
  H434     1.0000 0.73885  0.28471  0.02715  Biso   1.000  H
  H435     1.0000 0.06955  0.68228  0.33933  Biso   1.000  H
  H436     1.0000 0.86649  0.91220  0.79046  Biso   1.000  H
  H437     1.0000 0.25324  0.29367  0.54314  Biso   1.000  H
  H438     1.0000 0.55817  0.68441  0.19131  Biso   1.000  H
  H439     1.0000 0.24841  0.42180  0.68227  Biso   1.000  H
  H440     1.0000 0.81398  0.77684  0.98262  Biso   1.000  H
  H441     1.0000 0.55523  0.14062  0.29329  Biso   1.000  H
  H442     1.0000 0.69745  0.43463  0.78536  Biso   1.000  H
  H443     1.0000 0.29911  0.78921  0.53857  Biso   1.000  H
  H444     1.0000 0.01819  0.12443  0.24718  Biso   1.000  H
  H445     1.0000 0.68737  0.97385  0.27649  Biso   1.000  H
  H446     1.0000 0.32071  0.65059  0.06069  Biso   1.000  H
  H447     1.0000 0.01159  0.23675  0.69497  Biso   1.000  H
  H448     1.0000 0.23712  0.01154  0.20100  Biso   1.000  H
  H449     1.0000 0.86023  0.68758  0.47107  Biso   1.000  H
  H450     1.0000 0.55898  0.28487  0.80023  Biso   1.000  H
  H451     1.0000 0.80536  0.51837  0.34778  Biso   1.000  H
  H452     1.0000 0.24167  0.14034  0.02603  Biso   1.000  H
  H453     1.0000 0.48223  0.78821  0.73594  Biso   1.000  H
  H454     1.0000 0.34651  0.46280  0.23540  Biso   1.000  H
  H455     1.0000 0.70273  0.19471  0.48646  Biso   1.000  H
  H456     1.0000 0.01027  0.79814  0.78019  Biso   1.000  H
  H457     1.0000 0.70620  0.74489  0.47328  Biso   1.000  H
  H458     1.0000 0.49332  0.68741  0.84110  Biso   1.000  H
  H459     1.0000 0.85175  0.42054  0.73367  Biso   1.000  H
  H460     1.0000 0.20658  0.73791  0.04470  Biso   1.000  H
  H461     1.0000 0.99868  0.69014  0.68669  Biso   1.000  H
  H462     1.0000 0.29508  0.43498  0.84291  Biso   1.000  H
  H463     1.0000 0.84820  0.24790  0.49494  Biso   1.000  H
  H464     1.0000 0.07044  0.14532  0.80491  Biso   1.000  H
  H465     1.0000 0.70932  0.96488  0.73803  Biso   1.000  H
  H466     1.0000 0.32034  0.25618  0.04867  Biso   1.000  H
  H467     1.0000 0.56001  0.19628  0.69274  Biso   1.000  H
  H468     1.0000 0.20857  0.92813  0.79831  Biso   1.000  H
  H469     1.0000 0.34728  0.18705  0.56488  Biso   1.000  H
  H470     1.0000 0.55226  0.23803  0.18399  Biso   1.000  H
  H471     1.0000 0.19416  0.45910  0.27733  Biso   1.000  H
  H472     1.0000 0.78937  0.13646  0.95775  Biso   1.000  H
  H473     1.0000 0.03448  0.27420  0.29164  Biso   1.000  H
  H474     1.0000 0.74992  0.51758  0.18497  Biso   1.000  H
  H475     1.0000 0.26406  0.63272  0.51567  Biso   1.000  H
  H476     1.0000 0.05936  0.78963  0.23938  Biso   1.000  H
  H477     1.0000 0.33856  0.00973  0.30417  Biso   1.000  H
  H478     1.0000 0.70603  0.68789  0.00579  Biso   1.000  H
  H479     1.0000 0.49651  0.73251  0.34722  Biso   1.000  H
  H480     1.0000 0.84293  0.96179  0.23586  Biso   1.000  H
  N1       1.0000 0.70134  0.14946  0.52365  Biso   1.000  N
  N2       1.0000 0.52304  0.64010  0.18915  Biso   1.000  N
  N3       1.0000 0.20344  0.45952  0.68545  Biso   1.000  N
  N4       1.0000 0.18772  0.14189  0.99674  Biso   1.000  N
  N5       1.0000 0.04126  0.63187  0.33422  Biso   1.000  N
  N6       1.0000 0.70382  0.46287  0.83693  Biso   1.000  N
  N7       1.0000 0.85212  0.64507  0.50867  Biso   1.000  N
  N8       1.0000 0.99158  0.12880  0.19706  Biso   1.000  N
  N9       1.0000 0.36183  0.97069  0.70423  Biso   1.000  N
  N10      1.0000 0.35775  0.64280  0.01985  Biso   1.000  N
  N11      1.0000 0.51977  0.14153  0.33674  Biso   1.000  N
  N12      1.0000 0.86366  0.95437  0.82988  Biso   1.000  N
  N13      1.0000 0.35543  0.78662  0.52015  Biso   1.000  N
  N14      1.0000 0.51424  0.28974  0.83663  Biso   1.000  N
  N15      1.0000 0.84668  0.48102  0.33867  Biso   1.000  N
  N16      1.0000 0.85998  0.78083  0.01479  Biso   1.000  N
  N17      1.0000 0.03506  0.28936  0.69633  Biso   1.000  N
  N18      1.0000 0.34536  0.43969  0.18374  Biso   1.000  N
  N19      1.0000 0.20275  0.28964  0.51098  Biso   1.000  N
  N20      1.0000 0.04143  0.79255  0.83201  Biso   1.000  N
  N21      1.0000 0.69287  0.95158  0.32998  Biso   1.000  N
  N22      1.0000 0.68721  0.28367  0.00329  Biso   1.000  N
  N23      1.0000 0.52774  0.79531  0.69606  Biso   1.000  N
  N24      1.0000 0.18980  0.98007  0.20028  Biso   1.000  N
  N25      1.0000 0.85135  0.45768  0.68858  Biso   1.000  N
  N26      1.0000 0.71144  0.79602  0.50213  Biso   1.000  N
  N27      1.0000 0.52984  0.64133  0.83566  Biso   1.000  N
  N28      1.0000 0.34768  0.45961  0.83636  Biso   1.000  N
  N29      1.0000 0.21258  0.79200  0.02106  Biso   1.000  N
  N30      1.0000 0.02430  0.64048  0.68797  Biso   1.000  N
  N31      1.0000 0.71370  0.94738  0.68399  Biso   1.000  N
  N32      1.0000 0.84576  0.29524  0.52646  Biso   1.000  N
  N33      1.0000 0.02512  0.14018  0.84204  Biso   1.000  N
  N34      1.0000 0.21190  0.95872  0.84832  Biso   1.000  N
  N35      1.0000 0.33115  0.29549  0.00457  Biso   1.000  N
  N36      1.0000 0.53776  0.14427  0.69349  Biso   1.000  N
  N37      1.0000 0.20319  0.44187  0.33313  Biso   1.000  N
  N38      1.0000 0.34879  0.13854  0.53487  Biso   1.000  N
  N39      1.0000 0.52378  0.28736  0.18562  Biso   1.000  N
  N40      1.0000 0.70206  0.48566  0.19489  Biso   1.000  N
  N41      1.0000 0.83688  0.13223  0.99352  Biso   1.000  N
  N42      1.0000 0.00333  0.28190  0.34161  Biso   1.000  N
  N43      1.0000 0.33684  0.97850  0.35170  Biso   1.000  N
  N44      1.0000 0.21003  0.63867  0.49407  Biso   1.000  N
  N45      1.0000 0.03336  0.78215  0.18620  Biso   1.000  N
  N46      1.0000 0.83824  0.93970  0.18125  Biso   1.000  N
  N47      1.0000 0.71064  0.63491  0.02756  Biso   1.000  N
  N48      1.0000 0.51691  0.78657  0.34322  Biso   1.000  N
  O1       1.0000 0.36478  0.50862  0.02130  Biso   1.000  O
  O2       1.0000 0.02965  0.30667  0.56141  Biso   1.000  O
  O3       1.0000 0.55775  0.95945  0.35763  Biso   1.000  O
  O4       1.0000 0.86928  0.50772  0.51199  Biso   1.000  O
  O5       1.0000 0.50174  0.30892  0.96822  Biso   1.000  O
  O6       1.0000 0.05767  0.96737  0.16800  Biso   1.000  O
  O7       1.0000 0.18167  0.00816  0.01649  Biso   1.000  O
  O8       1.0000 0.53958  0.81143  0.56264  Biso   1.000  O
  O9       1.0000 0.98171  0.46417  0.35721  Biso   1.000  O
  O10      1.0000 0.68595  0.01299  0.51151  Biso   1.000  O
  O11      1.0000 0.03435  0.80323  0.96743  Biso   1.000  O
  O12      1.0000 0.47911  0.46179  0.16538  Biso   1.000  O
  O13      1.0000 0.67750  0.42141  0.01799  Biso   1.000  O
  O14      1.0000 0.02835  0.61693  0.46912  Biso   1.000  O
  O15      1.0000 0.49532  0.97928  0.67752  Biso   1.000  O
  O16      1.0000 0.18712  0.42547  0.51317  Biso   1.000  O
  O17      1.0000 0.53035  0.61773  0.05224  Biso   1.000  O
  O18      1.0000 0.99717  0.95899  0.85257  Biso   1.000  O
  O19      1.0000 0.87091  0.91772  0.00436  Biso   1.000  O
  O20      1.0000 0.52010  0.12498  0.47148  Biso   1.000  O
  O21      1.0000 0.06818  0.46659  0.66925  Biso   1.000  O
  O22      1.0000 0.37424  0.92104  0.52268  Biso   1.000  O
  O23      1.0000 0.01290  0.11948  0.06287  Biso   1.000  O
  O24      1.0000 0.56910  0.46953  0.85472  Biso   1.000  O
  O25      1.0000 0.97341  0.94553  0.16488  Biso   1.000  O
  O26      1.0000 0.18552  0.92432  0.02061  Biso   1.000  O
  O27      1.0000 0.01216  0.11795  0.97644  Biso   1.000  O
  O28      1.0000 0.47404  0.96933  0.36494  Biso   1.000  O
  O29      1.0000 0.68808  0.93137  0.50365  Biso   1.000  O
  O30      1.0000 0.52922  0.12560  0.55572  Biso   1.000  O
  O31      1.0000 0.56417  0.46879  0.16835  Biso   1.000  O
  O32      1.0000 0.36130  0.42694  0.01059  Biso   1.000  O
  O33      1.0000 0.53334  0.61832  0.96770  Biso   1.000  O
  O34      1.0000 0.06621  0.45038  0.35648  Biso   1.000  O
  O35      1.0000 0.86730  0.42643  0.51335  Biso   1.000  O
  O36      1.0000 0.03680  0.62196  0.55494  Biso   1.000  O
  O37      1.0000 0.07844  0.96971  0.86126  Biso   1.000  O
  O38      1.0000 0.86401  0.99962  0.00481  Biso   1.000  O
  O39      1.0000 0.03453  0.80352  0.04896  Biso   1.000  O
  O40      1.0000 0.57891  0.96658  0.66795  Biso   1.000  O
  O41      1.0000 0.37361  0.00643  0.53230  Biso   1.000  O
  O42      1.0000 0.53089  0.80926  0.47853  Biso   1.000  O
  O43      1.0000 0.48328  0.46368  0.85877  Biso   1.000  O
  O44      1.0000 0.68856  0.50326  0.01267  Biso   1.000  O
  O45      1.0000 0.51508  0.30860  0.05212  Biso   1.000  O
  O46      1.0000 0.98447  0.46507  0.67086  Biso   1.000  O
  O47      1.0000 0.19437  0.50848  0.50496  Biso   1.000  O
  O48      1.0000 0.01631  0.31081  0.47472  Biso   1.000  O
  O49      1.0000 0.02174  0.91374  0.16648  Biso   1.000  O
  O50      1.0000 0.19209  0.96606  0.97919  Biso   1.000  O
  O51      1.0000 0.96986  0.11550  0.01797  Biso   1.000  O
  O52      1.0000 0.51566  0.92133  0.36456  Biso   1.000  O
  O53      1.0000 0.69132  0.96825  0.54919  Biso   1.000  O
  O54      1.0000 0.48311  0.12602  0.52524  Biso   1.000  O
  O55      1.0000 0.52090  0.42131  0.16831  Biso   1.000  O
  O56      1.0000 0.36490  0.47206  0.97316  Biso   1.000  O
  O57      1.0000 0.57401  0.61707  0.01276  Biso   1.000  O
  O58      1.0000 0.01790  0.41542  0.35285  Biso   1.000  O
  O59      1.0000 0.86965  0.46807  0.55589  Biso   1.000  O
  O60      1.0000 0.07731  0.62000  0.50962  Biso   1.000  O
  O61      1.0000 0.03247  0.00710  0.85800  Biso   1.000  O
  O62      1.0000 0.86379  0.96365  0.04877  Biso   1.000  O
  O63      1.0000 0.07865  0.80646  0.00758  Biso   1.000  O
  O64      1.0000 0.54586  0.01204  0.67481  Biso   1.000  O
  O65      1.0000 0.36816  0.96970  0.48474  Biso   1.000  O
  O66      1.0000 0.57430  0.81270  0.51596  Biso   1.000  O
  O67      1.0000 0.52037  0.50909  0.85441  Biso   1.000  O
  O68      1.0000 0.67911  0.46283  0.05872  Biso   1.000  O
  O69      1.0000 0.46499  0.31041  0.01529  Biso   1.000  O
  O70      1.0000 0.02532  0.50643  0.66844  Biso   1.000  O
  O71      1.0000 0.18834  0.46545  0.46551  Biso   1.000  O
  O72      1.0000 0.98084  0.31052  0.52617  Biso   1.000  O
  O73      1.0000 0.02666  0.42094  0.66884  Biso   1.000  O
  O74      1.0000 0.68299  0.97600  0.46629  Biso   1.000  O
  O75      1.0000 0.49127  0.61226  0.00770  Biso   1.000  O
  O76      1.0000 0.52924  0.42423  0.85886  Biso   1.000  O
  O77      1.0000 0.18181  0.96616  0.06338  Biso   1.000  O
  O78      1.0000 0.98748  0.62023  0.51603  Biso   1.000  O
  O79      1.0000 0.53125  0.92958  0.67477  Biso   1.000  O
  O80      1.0000 0.86750  0.46796  0.47239  Biso   1.000  O
  O81      1.0000 0.05462  0.12062  0.02002  Biso   1.000  O
  O82      1.0000 0.04299  0.92357  0.85800  Biso   1.000  O
  O83      1.0000 0.36273  0.46242  0.05480  Biso   1.000  O
  O84      1.0000 0.56734  0.12611  0.50923  Biso   1.000  O
  O85      1.0000 0.02885  0.50125  0.36243  Biso   1.000  O
  O86      1.0000 0.38000  0.95849  0.56798  Biso   1.000  O
  O87      1.0000 0.54992  0.31196  0.00641  Biso   1.000  O
  O88      1.0000 0.51416  0.50646  0.17282  Biso   1.000  O
  O89      1.0000 0.87563  0.96057  0.96704  Biso   1.000  O
  O90      1.0000 0.06514  0.30956  0.51167  Biso   1.000  O
  O91      1.0000 0.52149  0.00549  0.36667  Biso   1.000  O
  O92      1.0000 0.19089  0.47621  0.54960  Biso   1.000  O
  O93      1.0000 0.99433  0.80339  0.00717  Biso   1.000  O
  O94      1.0000 0.00615  0.99714  0.17022  Biso   1.000  O
  O95      1.0000 0.68027  0.46168  0.97246  Biso   1.000  O
  O96      1.0000 0.49078  0.80983  0.52204  Biso   1.000  O
  O97      1.0000 0.48133  0.17354  0.52575  Biso   1.000  O
  O98      1.0000 0.52833  0.42284  0.21598  Biso   1.000  O
  O99      1.0000 0.23650  0.45866  0.46933  Biso   1.000  O
  O100     1.0000 0.96930  0.16374  0.01680  Biso   1.000  O
  O101     1.0000 0.01411  0.41410  0.30458  Biso   1.000  O
  O102     1.0000 0.72820  0.46352  0.05906  Biso   1.000  O
  O103     1.0000 0.07357  0.66807  0.50818  Biso   1.000  O
  O104     1.0000 0.02375  0.91349  0.21681  Biso   1.000  O
  O105     1.0000 0.31834  0.96771  0.48849  Biso   1.000  O
  O106     1.0000 0.57630  0.66615  0.01520  Biso   1.000  O
  O107     1.0000 0.50222  0.92219  0.31776  Biso   1.000  O
  O108     1.0000 0.81585  0.95795  0.04473  Biso   1.000  O
  O109     1.0000 0.57917  0.76490  0.51778  Biso   1.000  O
  O110     1.0000 0.52458  0.50671  0.80444  Biso   1.000  O
  O111     1.0000 0.82172  0.46621  0.55581  Biso   1.000  O
  O112     1.0000 0.07995  0.75946  0.01213  Biso   1.000  O
  O113     1.0000 0.02180  0.50861  0.71708  Biso   1.000  O
  O114     1.0000 0.31598  0.48032  0.97120  Biso   1.000  O
  O115     1.0000 0.98068  0.26177  0.52550  Biso   1.000  O
  O116     1.0000 0.03538  0.00763  0.80943  Biso   1.000  O
  O117     1.0000 0.73925  0.97045  0.54955  Biso   1.000  O
  O118     1.0000 0.46642  0.26173  0.01347  Biso   1.000  O
  O119     1.0000 0.54815  0.01081  0.72420  Biso   1.000  O
  O120     1.0000 0.24066  0.96902  0.98685  Biso   1.000  O
  O121     1.0000 0.06915  0.46592  0.71768  Biso   1.000  O
  O122     1.0000 0.73444  0.01445  0.50860  Biso   1.000  O
  O123     1.0000 0.52691  0.66539  0.05341  Biso   1.000  O
  O124     1.0000 0.56872  0.46435  0.80747  Biso   1.000  O
  O125     1.0000 0.22917  0.01260  0.02189  Biso   1.000  O
  O126     1.0000 0.02919  0.66503  0.46819  Biso   1.000  O
  O127     1.0000 0.49888  0.97872  0.72467  Biso   1.000  O
  O128     1.0000 0.82023  0.51082  0.51961  Biso   1.000  O
  O129     1.0000 0.00786  0.16698  0.06321  Biso   1.000  O
  O130     1.0000 0.99542  0.96659  0.80584  Biso   1.000  O
  O131     1.0000 0.31654  0.51377  0.02000  Biso   1.000  O
  O132     1.0000 0.51680  0.17369  0.47341  Biso   1.000  O
  O133     1.0000 0.97993  0.46346  0.30749  Biso   1.000  O
  O134     1.0000 0.32471  0.92136  0.52764  Biso   1.000  O
  O135     1.0000 0.50365  0.25971  0.96787  Biso   1.000  O
  O136     1.0000 0.48042  0.45384  0.21301  Biso   1.000  O
  O137     1.0000 0.82381  0.91361  0.00719  Biso   1.000  O
  O138     1.0000 0.03577  0.25822  0.56054  Biso   1.000  O
  O139     1.0000 0.55357  0.95515  0.30842  Biso   1.000  O
  O140     1.0000 0.23647  0.42118  0.51556  Biso   1.000  O
  O141     1.0000 0.04405  0.75637  0.96504  Biso   1.000  O
  O142     1.0000 0.05456  0.96479  0.21793  Biso   1.000  O
  O143     1.0000 0.72551  0.41672  0.01715  Biso   1.000  O
  O144     1.0000 0.54114  0.76292  0.56416  Biso   1.000  O
  O145     1.0000 0.56261  0.47008  0.21707  Biso   1.000  O
  O146     1.0000 0.24422  0.50568  0.50282  Biso   1.000  O
  O147     1.0000 0.52982  0.17329  0.55846  Biso   1.000  O
  O148     1.0000 0.06762  0.44987  0.30753  Biso   1.000  O
  O149     1.0000 0.73677  0.49921  0.01459  Biso   1.000  O
  O150     1.0000 0.00918  0.16601  0.97739  Biso   1.000  O
  O151     1.0000 0.97145  0.94278  0.21512  Biso   1.000  O
  O152     1.0000 0.32592  0.00583  0.53784  Biso   1.000  O
  O153     1.0000 0.03701  0.66926  0.55182  Biso   1.000  O
  O154     1.0000 0.47063  0.97278  0.31767  Biso   1.000  O
  O155     1.0000 0.81594  0.99679  0.00022  Biso   1.000  O
  O156     1.0000 0.53684  0.66704  0.96907  Biso   1.000  O
  O157     1.0000 0.48245  0.45950  0.81050  Biso   1.000  O
  O158     1.0000 0.81782  0.42836  0.51301  Biso   1.000  O
  O159     1.0000 0.53335  0.76150  0.48180  Biso   1.000  O
  O160     1.0000 0.98582  0.46294  0.71932  Biso   1.000  O
  O161     1.0000 0.31272  0.43369  0.00621  Biso   1.000  O
  O162     1.0000 0.03254  0.75600  0.04724  Biso   1.000  O
  O163     1.0000 0.08067  0.96870  0.81222  Biso   1.000  O
  O164     1.0000 0.73658  0.93146  0.50302  Biso   1.000  O
  O165     1.0000 0.01577  0.26276  0.47924  Biso   1.000  O
  O166     1.0000 0.58010  0.96175  0.71763  Biso   1.000  O
  O167     1.0000 0.23359  0.92902  0.03154  Biso   1.000  O
  O168     1.0000 0.51361  0.25923  0.04967  Biso   1.000  O
  O169     1.0000 0.00344  0.99381  0.21853  Biso   1.000  O
  O170     1.0000 0.22969  0.97494  0.06923  Biso   1.000  O
  O171     1.0000 0.05188  0.16847  0.01830  Biso   1.000  O
  O172     1.0000 0.52089  0.00348  0.31691  Biso   1.000  O
  O173     1.0000 0.73186  0.97422  0.46235  Biso   1.000  O
  O174     1.0000 0.56358  0.17356  0.50846  Biso   1.000  O
  O175     1.0000 0.51621  0.50396  0.22096  Biso   1.000  O
  O176     1.0000 0.31168  0.46422  0.05272  Biso   1.000  O
  O177     1.0000 0.49230  0.66072  0.00506  Biso   1.000  O
  O178     1.0000 0.03496  0.49553  0.31377  Biso   1.000  O
  O179     1.0000 0.81862  0.47198  0.47319  Biso   1.000  O
  O180     1.0000 0.99046  0.66867  0.51333  Biso   1.000  O
  O181     1.0000 0.03710  0.92650  0.80954  Biso   1.000  O
  O182     1.0000 0.82668  0.95312  0.96187  Biso   1.000  O
  O183     1.0000 0.99580  0.75545  0.00168  Biso   1.000  O
  O184     1.0000 0.52956  0.92914  0.72300  Biso   1.000  O
  O185     1.0000 0.33210  0.95687  0.57038  Biso   1.000  O
  O186     1.0000 0.49256  0.76206  0.52563  Biso   1.000  O
  O187     1.0000 0.52549  0.42333  0.80933  Biso   1.000  O
  O188     1.0000 0.73008  0.45584  0.97390  Biso   1.000  O
  O189     1.0000 0.55121  0.26363  0.00473  Biso   1.000  O
  O190     1.0000 0.02831  0.42478  0.71687  Biso   1.000  O
  O191     1.0000 0.23998  0.46861  0.55332  Biso   1.000  O
  O192     1.0000 0.06736  0.26166  0.51287  Biso   1.000  O
