data_image0
_cell_length_a       46.9463
_cell_length_b       47.6759
_cell_length_c       46.5202
_cell_angle_alpha    90
_cell_angle_beta     90
_cell_angle_gamma    90

_symmetry_space_group_name_H-M    "P 1"
_symmetry_int_tables_number       1

loop_
  _symmetry_equiv_pos_as_xyz
  'x, y, z'

loop_
  _atom_site_label
  _atom_site_occupancy
  _atom_site_fract_x
  _atom_site_fract_y
  _atom_site_fract_z
  _atom_site_thermal_displace_type
  _atom_site_B_iso_or_equiv
  _atom_site_type_symbol
  C1       1.0000 0.56704  0.98198  0.34701  Biso   1.000  C
  C2       1.0000 0.32443  0.53129  0.04704  Biso   1.000  C
  C3       1.0000 0.02908  0.30472  0.58469  Biso   1.000  C
  C4       1.0000 0.06426  0.98548  0.20981  Biso   1.000  C
  C5       1.0000 0.81628  0.51413  0.52486  Biso   1.000  C
  C6       1.0000 0.52027  0.30345  0.96438  Biso   1.000  C
  C7       1.0000 0.95463  0.48583  0.34372  Biso   1.000  C
  C8       1.0000 0.19876  0.03412  0.02680  Biso   1.000  C
  C9       1.0000 0.48738  0.80114  0.58832  Biso   1.000  C
  C10      1.0000 0.45830  0.47362  0.21177  Biso   1.000  C
  C11      1.0000 0.69703  0.01797  0.52084  Biso   1.000  C
  C12      1.0000 0.00608  0.80252  0.96976  Biso   1.000  C
  C13      1.0000 0.45782  0.98746  0.70737  Biso   1.000  C
  C14      1.0000 0.69146  0.43393  0.03247  Biso   1.000  C
  C15      1.0000 0.98466  0.65538  0.47140  Biso   1.000  C
  C16      1.0000 0.96366  0.98480  0.84293  Biso   1.000  C
  C17      1.0000 0.19286  0.44189  0.53753  Biso   1.000  C
  C18      1.0000 0.50887  0.65626  0.09149  Biso   1.000  C
  C19      1.0000 0.05423  0.48643  0.71112  Biso   1.000  C
  C20      1.0000 0.82289  0.93238  0.01907  Biso   1.000  C
  C21      1.0000 0.52213  0.15152  0.46728  Biso   1.000  C
  C22      1.0000 0.55359  0.49231  0.84688  Biso   1.000  C
  C23      1.0000 0.32272  0.93839  0.52605  Biso   1.000  C
  C24      1.0000 0.01619  0.16413  0.08210  Biso   1.000  C
  C25      1.0000 0.32933  0.04708  0.52535  Biso   1.000  C
  C26      1.0000 0.51567  0.29809  0.07418  Biso   1.000  C
  C27      1.0000 0.06375  0.47118  0.34919  Biso   1.000  C
  C28      1.0000 0.83297  0.03930  0.03032  Biso   1.000  C
  C29      1.0000 0.02349  0.29545  0.47656  Biso   1.000  C
  C30      1.0000 0.56621  0.46295  0.21052  Biso   1.000  C
  C31      1.0000 0.18481  0.55186  0.52976  Biso   1.000  C
  C32      1.0000 0.00097  0.80226  0.07753  Biso   1.000  C
  C33      1.0000 0.45745  0.96196  0.35048  Biso   1.000  C
  C34      1.0000 0.68298  0.53972  0.01621  Biso   1.000  C
  C35      1.0000 0.49745  0.79353  0.48057  Biso   1.000  C
  C36      1.0000 0.95551  0.96957  0.20600  Biso   1.000  C
  C37      1.0000 0.68336  0.90914  0.52611  Biso   1.000  C
  C38      1.0000 0.49211  0.65987  0.98437  Biso   1.000  C
  C39      1.0000 0.94356  0.48989  0.70415  Biso   1.000  C
  C40      1.0000 0.19155  0.92432  0.03396  Biso   1.000  C
  C41      1.0000 0.99550  0.66658  0.57678  Biso   1.000  C
  C42      1.0000 0.44627  0.48665  0.84763  Biso   1.000  C
  C43      1.0000 0.83259  0.40751  0.51828  Biso   1.000  C
  C44      1.0000 0.02044  0.16309  0.97312  Biso   1.000  C
  C45      1.0000 0.56825  0.98207  0.70547  Biso   1.000  C
  C46      1.0000 0.33506  0.42527  0.02436  Biso   1.000  C
  C47      1.0000 0.52726  0.16761  0.57449  Biso   1.000  C
  C48      1.0000 0.07062  0.98487  0.84511  Biso   1.000  C
  C49      1.0000 0.01746  0.03815  0.84589  Biso   1.000  C
  C50      1.0000 0.83114  0.98243  0.07770  Biso   1.000  C
  C51      1.0000 0.05733  0.80671  0.02738  Biso   1.000  C
  C52      1.0000 0.51215  0.04014  0.70258  Biso   1.000  C
  C53      1.0000 0.33025  0.99348  0.47316  Biso   1.000  C
  C54      1.0000 0.54455  0.79480  0.54088  Biso   1.000  C
  C55      1.0000 0.49864  0.54432  0.85109  Biso   1.000  C
  C56      1.0000 0.69072  0.49532  0.07954  Biso   1.000  C
  C57      1.0000 0.46468  0.30088  0.02375  Biso   1.000  C
  C58      1.0000 0.00375  0.54148  0.70798  Biso   1.000  C
  C59      1.0000 0.18656  0.49097  0.48025  Biso   1.000  C
  C60      1.0000 0.97293  0.29185  0.53484  Biso   1.000  C
  C61      1.0000 0.01821  0.92379  0.20578  Biso   1.000  C
  C62      1.0000 0.19509  0.98142  0.97750  Biso   1.000  C
  C63      1.0000 0.96121  0.16500  0.02770  Biso   1.000  C
  C64      1.0000 0.52191  0.91888  0.35116  Biso   1.000  C
  C65      1.0000 0.69267  0.96588  0.57724  Biso   1.000  C
  C66      1.0000 0.47016  0.16170  0.51871  Biso   1.000  C
  C67      1.0000 0.50682  0.41716  0.20554  Biso   1.000  C
  C68      1.0000 0.32832  0.49205  0.98169  Biso   1.000  C
  C69      1.0000 0.55399  0.65900  0.03019  Biso   1.000  C
  C70      1.0000 0.00279  0.42401  0.34961  Biso   1.000  C
  C71      1.0000 0.82111  0.45949  0.57713  Biso   1.000  C
  C72      1.0000 0.04359  0.66722  0.51982  Biso   1.000  C
  C73      1.0000 0.01444  0.53082  0.34754  Biso   1.000  C
  C74      1.0000 0.32318  0.99213  0.58242  Biso   1.000  C
  C75      1.0000 0.57290  0.30267  0.02764  Biso   1.000  C
  C76      1.0000 0.51627  0.52484  0.21378  Biso   1.000  C
  C77      1.0000 0.83636  0.98961  0.97041  Biso   1.000  C
  C78      1.0000 0.08219  0.30120  0.52227  Biso   1.000  C
  C79      1.0000 0.49901  0.02645  0.34347  Biso   1.000  C
  C80      1.0000 0.18318  0.49730  0.58772  Biso   1.000  C
  C81      1.0000 0.94628  0.80275  0.02381  Biso   1.000  C
  C82      1.0000 0.99990  0.03296  0.21028  Biso   1.000  C
  C83      1.0000 0.68325  0.48324  0.97317  Biso   1.000  C
  C84      1.0000 0.43886  0.79895  0.52935  Biso   1.000  C
  C85      1.0000 0.00154  0.43365  0.70562  Biso   1.000  C
  C86      1.0000 0.69161  0.96383  0.46909  Biso   1.000  C
  C87      1.0000 0.44718  0.66186  0.05230  Biso   1.000  C
  C88      1.0000 0.50637  0.43513  0.84559  Biso   1.000  C
  C89      1.0000 0.19103  0.98626  0.08539  Biso   1.000  C
  C90      1.0000 0.93500  0.65119  0.52479  Biso   1.000  C
  C91      1.0000 0.51249  0.93080  0.71113  Biso   1.000  C
  C92      1.0000 0.83057  0.46538  0.46959  Biso   1.000  C
  C93      1.0000 0.07343  0.16255  0.03257  Biso   1.000  C
  C94      1.0000 0.01874  0.93093  0.84303  Biso   1.000  C
  C95      1.0000 0.32784  0.46953  0.09054  Biso   1.000  C
  C96      1.0000 0.57880  0.15413  0.52267  Biso   1.000  C
  C97      1.0000 0.70074  0.04981  0.52194  Biso   1.000  C
  C98      1.0000 0.50809  0.65592  0.12367  Biso   1.000  C
  C99      1.0000 0.08652  0.48815  0.71279  Biso   1.000  C
  C100     1.0000 0.19837  0.06651  0.02337  Biso   1.000  C
  C101     1.0000 0.98062  0.65289  0.43879  Biso   1.000  C
  C102     1.0000 0.58531  0.49188  0.84681  Biso   1.000  C
  C103     1.0000 0.81174  0.54644  0.52492  Biso   1.000  C
  C104     1.0000 0.01176  0.16285  0.11367  Biso   1.000  C
  C105     1.0000 0.42525  0.98669  0.70664  Biso   1.000  C
  C106     1.0000 0.32221  0.56232  0.05349  Biso   1.000  C
  C107     1.0000 0.51636  0.15126  0.43514  Biso   1.000  C
  C108     1.0000 0.93117  0.98628  0.84059  Biso   1.000  C
  C109     1.0000 0.32161  0.90530  0.52446  Biso   1.000  C
  C110     1.0000 0.52606  0.30423  0.93278  Biso   1.000  C
  C111     1.0000 0.92246  0.48942  0.34285  Biso   1.000  C
  C112     1.0000 0.82154  0.90000  0.01880  Biso   1.000  C
  C113     1.0000 0.03423  0.30679  0.61608  Biso   1.000  C
  C114     1.0000 0.42591  0.47496  0.21432  Biso   1.000  C
  C115     1.0000 0.19650  0.40871  0.53780  Biso   1.000  C
  C116     1.0000 0.00281  0.80240  0.93784  Biso   1.000  C
  C117     1.0000 0.59923  0.98283  0.34561  Biso   1.000  C
  C118     1.0000 0.69198  0.40124  0.03187  Biso   1.000  C
  C119     1.0000 0.48661  0.80312  0.62146  Biso   1.000  C
  C120     1.0000 0.09583  0.98460  0.21005  Biso   1.000  C
  C121     1.0000 0.82876  0.98408  0.10962  Biso   1.000  C
  C122     1.0000 0.09077  0.80404  0.03013  Biso   1.000  C
  C123     1.0000 0.01599  0.07065  0.84582  Biso   1.000  C
  C124     1.0000 0.33063  0.99349  0.44102  Biso   1.000  C
  C125     1.0000 0.57739  0.79201  0.54052  Biso   1.000  C
  C126     1.0000 0.51137  0.07241  0.70118  Biso   1.000  C
  C127     1.0000 0.69211  0.49428  0.11193  Biso   1.000  C
  C128     1.0000 0.43294  0.30041  0.02665  Biso   1.000  C
  C129     1.0000 0.49500  0.57556  0.85155  Biso   1.000  C
  C130     1.0000 0.18823  0.48604  0.44739  Biso   1.000  C
  C131     1.0000 0.94012  0.28791  0.53500  Biso   1.000  C
  C132     1.0000 0.00594  0.57344  0.70761  Biso   1.000  C
  C133     1.0000 0.19805  0.97722  0.94560  Biso   1.000  C
  C134     1.0000 0.92944  0.16647  0.03317  Biso   1.000  C
  C135     1.0000 0.02244  0.89190  0.20523  Biso   1.000  C
  C136     1.0000 0.69173  0.96517  0.60974  Biso   1.000  C
  C137     1.0000 0.43793  0.16437  0.52316  Biso   1.000  C
  C138     1.0000 0.52299  0.88695  0.35364  Biso   1.000  C
  C139     1.0000 0.32615  0.49539  0.94979  Biso   1.000  C
  C140     1.0000 0.58505  0.66098  0.03049  Biso   1.000  C
  C141     1.0000 0.49917  0.38675  0.20343  Biso   1.000  C
  C142     1.0000 0.81970  0.46370  0.60971  Biso   1.000  C
  C143     1.0000 0.07552  0.66944  0.52094  Biso   1.000  C
  C144     1.0000 0.99741  0.39072  0.35081  Biso   1.000  C
  C145     1.0000 0.32772  0.46789  0.12226  Biso   1.000  C
  C146     1.0000 0.11358  0.30509  0.52042  Biso   1.000  C
  C147     1.0000 0.49576  0.05781  0.34391  Biso   1.000  C
  C148     1.0000 0.82850  0.47035  0.43833  Biso   1.000  C
  C149     1.0000 0.60245  0.30299  0.03643  Biso   1.000  C
  C150     1.0000 0.00332  0.06538  0.21012  Biso   1.000  C
  C151     1.0000 0.19077  0.99318  0.11574  Biso   1.000  C
  C152     1.0000 0.40569  0.80229  0.52766  Biso   1.000  C
  C153     1.0000 0.00799  0.56305  0.34437  Biso   1.000  C
  C154     1.0000 0.69366  0.97280  0.43743  Biso   1.000  C
  C155     1.0000 0.91412  0.80284  0.02188  Biso   1.000  C
  C156     1.0000 0.51911  0.55629  0.21627  Biso   1.000  C
  C157     1.0000 0.68234  0.48158  0.94121  Biso   1.000  C
  C158     1.0000 0.90260  0.64833  0.52438  Biso   1.000  C
  C159     1.0000 0.51160  0.89861  0.71247  Biso   1.000  C
  C160     1.0000 0.18397  0.49481  0.62076  Biso   1.000  C
  C161     1.0000 0.41606  0.66011  0.06102  Biso   1.000  C
  C162     1.0000 0.01576  0.89902  0.84283  Biso   1.000  C
  C163     1.0000 0.83556  0.98758  0.93768  Biso   1.000  C
  C164     1.0000 0.61200  0.15336  0.52220  Biso   1.000  C
  C165     1.0000 0.00486  0.40114  0.70542  Biso   1.000  C
  C166     1.0000 0.32342  0.98949  0.61514  Biso   1.000  C
  C167     1.0000 0.10503  0.16024  0.03685  Biso   1.000  C
  C168     1.0000 0.51099  0.40354  0.84271  Biso   1.000  C
  C169     1.0000 0.00270  0.80146  0.10962  Biso   1.000  C
  C170     1.0000 0.10381  0.98473  0.84738  Biso   1.000  C
  C171     1.0000 0.83455  0.06980  0.03627  Biso   1.000  C
  C172     1.0000 0.50414  0.79166  0.44898  Biso   1.000  C
  C173     1.0000 0.59982  0.98175  0.70600  Biso   1.000  C
  C174     1.0000 0.33041  0.07927  0.53047  Biso   1.000  C
  C175     1.0000 0.51021  0.29638  0.10614  Biso   1.000  C
  C176     1.0000 0.41334  0.48320  0.84882  Biso   1.000  C
  C177     1.0000 0.68112  0.57142  0.00997  Biso   1.000  C
  C178     1.0000 0.01890  0.29423  0.44411  Biso   1.000  C
  C179     1.0000 0.91112  0.49459  0.70362  Biso   1.000  C
  C180     1.0000 0.18067  0.58312  0.52853  Biso   1.000  C
  C181     1.0000 0.01750  0.16412  0.94014  Biso   1.000  C
  C182     1.0000 0.92301  0.97161  0.20477  Biso   1.000  C
  C183     1.0000 0.19177  0.89200  0.03417  Biso   1.000  C
  C184     1.0000 0.52609  0.16832  0.60580  Biso   1.000  C
  C185     1.0000 0.42600  0.96408  0.35033  Biso   1.000  C
  C186     1.0000 0.67936  0.87820  0.52458  Biso   1.000  C
  C187     1.0000 0.49446  0.66112  0.95208  Biso   1.000  C
  C188     1.0000 0.59842  0.46759  0.20808  Biso   1.000  C
  C189     1.0000 0.33748  0.39362  0.01938  Biso   1.000  C
  C190     1.0000 0.99939  0.66766  0.60928  Biso   1.000  C
  C191     1.0000 0.09630  0.46721  0.35091  Biso   1.000  C
  C192     1.0000 0.83622  0.37556  0.51883  Biso   1.000  C
  C193     1.0000 0.86203  0.99035  0.92065  Biso   1.000  C
  C194     1.0000 0.89957  0.83016  0.01929  Biso   1.000  C
  C195     1.0000 0.01236  0.88198  0.86913  Biso   1.000  C
  C196     1.0000 0.35167  0.98386  0.62972  Biso   1.000  C
  C197     1.0000 0.39242  0.83128  0.52878  Biso   1.000  C
  C198     1.0000 0.50901  0.88321  0.68597  Biso   1.000  C
  C199     1.0000 0.65478  0.48350  0.92625  Biso   1.000  C
  C200     1.0000 0.61668  0.33002  0.03579  Biso   1.000  C
  C201     1.0000 0.51672  0.38691  0.86909  Biso   1.000  C
  C202     1.0000 0.15649  0.48990  0.63471  Biso   1.000  C
  C203     1.0000 0.12634  0.33305  0.52041  Biso   1.000  C
  C204     1.0000 0.01022  0.38550  0.67910  Biso   1.000  C
  C205     1.0000 0.16357  0.99048  0.13114  Biso   1.000  C
  C206     1.0000 0.12112  0.13319  0.03191  Biso   1.000  C
  C207     1.0000 0.00429  0.08156  0.18237  Biso   1.000  C
  C208     1.0000 0.66619  0.97875  0.42233  Biso   1.000  C
  C209     1.0000 0.62774  0.12555  0.52054  Biso   1.000  C
  C210     1.0000 0.50382  0.07371  0.36907  Biso   1.000  C
  C211     1.0000 0.35486  0.46712  0.13900  Biso   1.000  C
  C212     1.0000 0.40220  0.63148  0.06061  Biso   1.000  C
  C213     1.0000 0.52076  0.57295  0.18895  Biso   1.000  C
  C214     1.0000 0.85591  0.47404  0.42232  Biso   1.000  C
  C215     1.0000 0.88742  0.62042  0.52295  Biso   1.000  C
  C216     1.0000 0.99960  0.57746  0.37110  Biso   1.000  C
  C217     1.0000 0.11998  0.98297  0.87629  Biso   1.000  C
  C218     1.0000 0.86301  0.08638  0.03518  Biso   1.000  C
  C219     1.0000 0.00661  0.82787  0.12535  Biso   1.000  C
  C220     1.0000 0.61463  0.97960  0.67881  Biso   1.000  C
  C221     1.0000 0.36058  0.09346  0.52750  Biso   1.000  C
  C222     1.0000 0.50960  0.81849  0.43157  Biso   1.000  C
  C223     1.0000 0.39862  0.48766  0.87636  Biso   1.000  C
  C224     1.0000 0.65392  0.58672  0.01404  Biso   1.000  C
  C225     1.0000 0.50809  0.32369  0.12328  Biso   1.000  C
  C226     1.0000 0.89531  0.48912  0.67654  Biso   1.000  C
  C227     1.0000 0.15290  0.59628  0.52387  Biso   1.000  C
  C228     1.0000 0.01167  0.32100  0.42711  Biso   1.000  C
  C229     1.0000 0.90615  0.97524  0.17827  Biso   1.000  C
  C230     1.0000 0.16364  0.87812  0.03384  Biso   1.000  C
  C231     1.0000 0.01992  0.13723  0.92481  Biso   1.000  C
  C232     1.0000 0.40901  0.96695  0.37648  Biso   1.000  C
  C233     1.0000 0.65070  0.86502  0.52696  Biso   1.000  C
  C234     1.0000 0.52229  0.14046  0.62245  Biso   1.000  C
  C235     1.0000 0.61226  0.47379  0.18004  Biso   1.000  C
  C236     1.0000 0.36514  0.37957  0.02122  Biso   1.000  C
  C237     1.0000 0.48790  0.63803  0.93306  Biso   1.000  C
  C238     1.0000 0.11084  0.47205  0.37849  Biso   1.000  C
  C239     1.0000 0.86447  0.36284  0.52530  Biso   1.000  C
  C240     1.0000 0.00078  0.64046  0.62729  Biso   1.000  C
  C241     1.0000 0.60167  0.48966  0.87380  Biso   1.000  C
  C242     1.0000 0.83812  0.56485  0.52332  Biso   1.000  C
  C243     1.0000 0.49436  0.82976  0.63623  Biso   1.000  C
  C244     1.0000 0.10274  0.48746  0.68736  Biso   1.000  C
  C245     1.0000 0.34885  0.57893  0.05938  Biso   1.000  C
  C246     1.0000 0.00148  0.83054  0.92244  Biso   1.000  C
  C247     1.0000 0.91444  0.98944  0.86675  Biso   1.000  C
  C248     1.0000 0.67551  0.06890  0.52127  Biso   1.000  C
  C249     1.0000 0.02652  0.33365  0.63100  Biso   1.000  C
  C250     1.0000 0.40744  0.98435  0.68070  Biso   1.000  C
  C251     1.0000 0.17156  0.08177  0.02549  Biso   1.000  C
  C252     1.0000 0.52563  0.33223  0.91714  Biso   1.000  C
  C253     1.0000 0.40888  0.47292  0.18775  Biso   1.000  C
  C254     1.0000 0.17167  0.39060  0.53122  Biso   1.000  C
  C255     1.0000 0.50898  0.12575  0.41951  Biso   1.000  C
  C256     1.0000 0.90726  0.48435  0.37098  Biso   1.000  C
  C257     1.0000 0.66502  0.38482  0.03396  Biso   1.000  C
  C258     1.0000 0.01047  0.13530  0.12938  Biso   1.000  C
  C259     1.0000 0.11148  0.98407  0.18332  Biso   1.000  C
  C260     1.0000 0.34748  0.88730  0.52448  Biso   1.000  C
  C261     1.0000 0.98620  0.62586  0.42240  Biso   1.000  C
  C262     1.0000 0.61679  0.98264  0.37218  Biso   1.000  C
  C263     1.0000 0.84952  0.88469  0.01889  Biso   1.000  C
  C264     1.0000 0.51099  0.62835  0.13952  Biso   1.000  C
  C265     1.0000 0.01694  0.08654  0.87315  Biso   1.000  C
  C266     1.0000 0.85437  0.97823  0.12662  Biso   1.000  C
  C267     1.0000 0.10878  0.82993  0.03115  Biso   1.000  C
  C268     1.0000 0.51760  0.08920  0.67387  Biso   1.000  C
  C269     1.0000 0.35807  0.98754  0.42552  Biso   1.000  C
  C270     1.0000 0.59498  0.81657  0.53675  Biso   1.000  C
  C271     1.0000 0.49052  0.58935  0.88003  Biso   1.000  C
  C272     1.0000 0.66500  0.48931  0.12745  Biso   1.000  C
  C273     1.0000 0.41661  0.32741  0.02714  Biso   1.000  C
  C274     1.0000 0.00374  0.58913  0.68046  Biso   1.000  C
  C275     1.0000 0.16157  0.48151  0.43061  Biso   1.000  C
  C276     1.0000 0.92207  0.31537  0.53343  Biso   1.000  C
  C277     1.0000 0.02046  0.87631  0.17824  Biso   1.000  C
  C278     1.0000 0.17112  0.97753  0.92917  Biso   1.000  C
  C279     1.0000 0.91495  0.13819  0.03356  Biso   1.000  C
  C280     1.0000 0.51945  0.87057  0.38102  Biso   1.000  C
  C281     1.0000 0.66468  0.96567  0.62643  Biso   1.000  C
  C282     1.0000 0.41910  0.13977  0.52842  Biso   1.000  C
  C283     1.0000 0.50115  0.37362  0.17541  Biso   1.000  C
  C284     1.0000 0.35151  0.49314  0.93130  Biso   1.000  C
  C285     1.0000 0.60175  0.63461  0.02568  Biso   1.000  C
  C286     1.0000 0.00055  0.37408  0.37800  Biso   1.000  C
  C287     1.0000 0.84637  0.47045  0.62530  Biso   1.000  C
  C288     1.0000 0.09412  0.64479  0.52539  Biso   1.000  C
  C289     1.0000 0.34257  0.85632  0.52363  Biso   1.000  C
  C290     1.0000 0.52412  0.33276  0.88487  Biso   1.000  C
  C291     1.0000 0.87626  0.48392  0.37002  Biso   1.000  C
  C292     1.0000 0.84738  0.85251  0.01839  Biso   1.000  C
  C293     1.0000 0.02185  0.33494  0.66143  Biso   1.000  C
  C294     1.0000 0.37742  0.47415  0.19007  Biso   1.000  C
  C295     1.0000 0.17721  0.35927  0.52953  Biso   1.000  C
  C296     1.0000 0.00300  0.83032  0.88988  Biso   1.000  C
  C297     1.0000 0.64743  0.98306  0.36859  Biso   1.000  C
  C298     1.0000 0.66806  0.35357  0.03276  Biso   1.000  C
  C299     1.0000 0.49894  0.83091  0.66751  Biso   1.000  C
  C300     1.0000 0.14259  0.98813  0.18498  Biso   1.000  C
  C301     1.0000 0.67957  0.10062  0.52241  Biso   1.000  C
  C302     1.0000 0.51399  0.62748  0.17106  Biso   1.000  C
  C303     1.0000 0.13354  0.48606  0.68827  Biso   1.000  C
  C304     1.0000 0.17272  0.11247  0.02726  Biso   1.000  C
  C305     1.0000 0.98994  0.62766  0.39137  Biso   1.000  C
  C306     1.0000 0.63327  0.48581  0.87252  Biso   1.000  C
  C307     1.0000 0.83582  0.59672  0.51988  Biso   1.000  C
  C308     1.0000 0.00923  0.13449  0.16206  Biso   1.000  C
  C309     1.0000 0.37663  0.98845  0.68137  Biso   1.000  C
  C310     1.0000 0.34793  0.61072  0.05911  Biso   1.000  C
  C311     1.0000 0.50382  0.12700  0.38790  Biso   1.000  C
  C312     1.0000 0.88306  0.98547  0.86612  Biso   1.000  C
  C313     1.0000 0.16285  0.47535  0.40027  Biso   1.000  C
  C314     1.0000 0.38726  0.14332  0.52932  Biso   1.000  C
  C315     1.0000 0.50061  0.34272  0.17570  Biso   1.000  C
  C316     1.0000 0.66507  0.48823  0.15850  Biso   1.000  C
  C317     1.0000 0.88365  0.13795  0.03877  Biso   1.000  C
  C318     1.0000 0.00218  0.34217  0.37490  Biso   1.000  C
  C319     1.0000 0.35660  0.98369  0.39347  Biso   1.000  C
  C320     1.0000 0.12477  0.64821  0.52406  Biso   1.000  C
  C321     1.0000 0.01702  0.84588  0.17864  Biso   1.000  C
  C322     1.0000 0.85460  0.98425  0.15580  Biso   1.000  C
  C323     1.0000 0.63253  0.63758  0.02065  Biso   1.000  C
  C324     1.0000 0.51614  0.83841  0.37916  Biso   1.000  C
  C325     1.0000 0.84442  0.47584  0.65693  Biso   1.000  C
  C326     1.0000 0.62638  0.81407  0.53055  Biso   1.000  C
  C327     1.0000 0.49281  0.62025  0.88037  Biso   1.000  C
  C328     1.0000 0.34807  0.49080  0.89932  Biso   1.000  C
  C329     1.0000 0.14070  0.82637  0.03154  Biso   1.000  C
  C330     1.0000 0.00512  0.62072  0.68074  Biso   1.000  C
  C331     1.0000 0.66709  0.96791  0.65734  Biso   1.000  C
  C332     1.0000 0.89091  0.31115  0.52941  Biso   1.000  C
  C333     1.0000 0.01626  0.11718  0.87051  Biso   1.000  C
  C334     1.0000 0.17252  0.98414  0.89780  Biso   1.000  C
  C335     1.0000 0.38570  0.32559  0.02696  Biso   1.000  C
  C336     1.0000 0.51909  0.12003  0.67583  Biso   1.000  C
  C337     1.0000 0.65465  0.48351  0.89347  Biso   1.000  C
  C338     1.0000 0.85582  0.61971  0.51987  Biso   1.000  C
  C339     1.0000 0.50514  0.85206  0.68801  Biso   1.000  C
  C340     1.0000 0.15423  0.48721  0.66638  Biso   1.000  C
  C341     1.0000 0.37111  0.63106  0.06071  Biso   1.000  C
  C342     1.0000 0.00678  0.85244  0.86889  Biso   1.000  C
  C343     1.0000 0.86138  0.98676  0.88881  Biso   1.000  C
  C344     1.0000 0.65964  0.12384  0.52166  Biso   1.000  C
  C345     1.0000 0.01303  0.35515  0.68207  Biso   1.000  C
  C346     1.0000 0.35476  0.98828  0.66064  Biso   1.000  C
  C347     1.0000 0.15184  0.13436  0.03082  Biso   1.000  C
  C348     1.0000 0.52165  0.35561  0.86495  Biso   1.000  C
  C349     1.0000 0.35490  0.47178  0.16916  Biso   1.000  C
  C350     1.0000 0.15963  0.33519  0.52392  Biso   1.000  C
  C351     1.0000 0.50246  0.10477  0.36749  Biso   1.000  C
  C352     1.0000 0.85442  0.47802  0.39090  Biso   1.000  C
  C353     1.0000 0.64741  0.33121  0.03424  Biso   1.000  C
  C354     1.0000 0.00649  0.11184  0.18354  Biso   1.000  C
  C355     1.0000 0.16350  0.99162  0.16282  Biso   1.000  C
  C356     1.0000 0.36212  0.83324  0.52380  Biso   1.000  C
  C357     1.0000 0.99684  0.60758  0.37040  Biso   1.000  C
  C358     1.0000 0.66846  0.98317  0.39044  Biso   1.000  C
  C359     1.0000 0.86818  0.82963  0.01800  Biso   1.000  C
  C360     1.0000 0.51627  0.60494  0.19125  Biso   1.000  C
  C361     1.0000 0.01598  0.13862  0.89299  Biso   1.000  C
  C362     1.0000 0.87558  0.98162  0.17785  Biso   1.000  C
  C363     1.0000 0.16282  0.84656  0.03334  Biso   1.000  C
  C364     1.0000 0.52170  0.14249  0.65379  Biso   1.000  C
  C365     1.0000 0.37803  0.97491  0.37279  Biso   1.000  C
  C366     1.0000 0.64846  0.83393  0.52641  Biso   1.000  C
  C367     1.0000 0.49212  0.64070  0.90270  Biso   1.000  C
  C368     1.0000 0.64341  0.48166  0.17887  Biso   1.000  C
  C369     1.0000 0.36471  0.34696  0.02318  Biso   1.000  C
  C370     1.0000 0.00322  0.64163  0.65829  Biso   1.000  C
  C371     1.0000 0.14203  0.47281  0.37786  Biso   1.000  C
  C372     1.0000 0.86729  0.33109  0.52720  Biso   1.000  C
  C373     1.0000 0.01116  0.82548  0.15612  Biso   1.000  C
  C374     1.0000 0.15120  0.98618  0.87549  Biso   1.000  C
  C375     1.0000 0.86144  0.11692  0.03933  Biso   1.000  C
  C376     1.0000 0.51172  0.81750  0.40020  Biso   1.000  C
  C377     1.0000 0.64595  0.97275  0.67943  Biso   1.000  C
  C378     1.0000 0.36290  0.12475  0.52886  Biso   1.000  C
  C379     1.0000 0.50450  0.32161  0.15384  Biso   1.000  C
  C380     1.0000 0.36761  0.48877  0.87641  Biso   1.000  C
  C381     1.0000 0.65557  0.61804  0.01698  Biso   1.000  C
  C382     1.0000 0.00658  0.31932  0.39590  Biso   1.000  C
  C383     1.0000 0.86414  0.48389  0.67843  Biso   1.000  C
  C384     1.0000 0.14896  0.62793  0.52635  Biso   1.000  C
  C385     1.0000 0.20001  0.12823  0.02751  Biso   1.000  C
  C386     1.0000 0.00626  0.16106  0.17801  Biso   1.000  C
  C387     1.0000 0.15850  0.99076  0.21185  Biso   1.000  C
  C388     1.0000 0.70764  0.11387  0.52119  Biso   1.000  C
  C389     1.0000 0.50185  0.15395  0.37224  Biso   1.000  C
  C390     1.0000 0.66182  0.98659  0.34161  Biso   1.000  C
  C391     1.0000 0.32105  0.62665  0.05725  Biso   1.000  C
  C392     1.0000 0.51369  0.65395  0.18737  Biso   1.000  C
  C393     1.0000 0.36342  0.47923  0.21746  Biso   1.000  C
  C394     1.0000 0.80718  0.61094  0.51924  Biso   1.000  C
  C395     1.0000 0.98712  0.65397  0.37468  Biso   1.000  C
  C396     1.0000 0.86149  0.48618  0.34341  Biso   1.000  C
  C397     1.0000 0.81985  0.83699  0.01673  Biso   1.000  C
  C398     1.0000 0.00005  0.80484  0.87418  Biso   1.000  C
  C399     1.0000 0.86787  0.98114  0.83956  Biso   1.000  C
  C400     1.0000 0.31475  0.84390  0.52357  Biso   1.000  C
  C401     1.0000 0.49480  0.80458  0.68454  Biso   1.000  C
  C402     1.0000 0.36275  0.99312  0.70872  Biso   1.000  C
  C403     1.0000 0.69603  0.33899  0.03138  Biso   1.000  C
  C404     1.0000 0.52532  0.30664  0.86864  Biso   1.000  C
  C405     1.0000 0.64880  0.48206  0.84447  Biso   1.000  C
  C406     1.0000 0.20584  0.34520  0.53519  Biso   1.000  C
  C407     1.0000 0.02426  0.30845  0.67806  Biso   1.000  C
  C408     1.0000 0.14878  0.48545  0.71620  Biso   1.000  C
  C409     1.0000 0.16889  0.99040  0.84957  Biso   1.000  C
  C410     1.0000 0.83430  0.13366  0.04327  Biso   1.000  C
  C411     1.0000 0.00727  0.79863  0.17203  Biso   1.000  C
  C412     1.0000 0.66191  0.97084  0.70580  Biso   1.000  C
  C413     1.0000 0.33773  0.14283  0.53042  Biso   1.000  C
  C414     1.0000 0.51156  0.79019  0.38455  Biso   1.000  C
  C415     1.0000 0.35022  0.48669  0.85084  Biso   1.000  C
  C416     1.0000 0.68159  0.63521  0.01439  Biso   1.000  C
  C417     1.0000 0.50370  0.29417  0.16897  Biso   1.000  C
  C418     1.0000 0.84869  0.48430  0.70504  Biso   1.000  C
  C419     1.0000 0.17383  0.64627  0.52610  Biso   1.000  C
  C420     1.0000 0.00912  0.29313  0.37981  Biso   1.000  C
  C421     1.0000 0.86102  0.98650  0.20491  Biso   1.000  C
  C422     1.0000 0.18869  0.82968  0.03570  Biso   1.000  C
  C423     1.0000 0.01251  0.16580  0.87738  Biso   1.000  C
  C424     1.0000 0.36321  0.97439  0.34550  Biso   1.000  C
  C425     1.0000 0.67292  0.81587  0.52278  Biso   1.000  C
  C426     1.0000 0.52140  0.16879  0.66891  Biso   1.000  C
  C427     1.0000 0.65965  0.47873  0.20613  Biso   1.000  C
  C428     1.0000 0.33724  0.33253  0.02204  Biso   1.000  C
  C429     1.0000 0.49617  0.66888  0.88860  Biso   1.000  C
  C430     1.0000 0.15869  0.46883  0.35229  Biso   1.000  C
  C431     1.0000 0.84206  0.31251  0.51929  Biso   1.000  C
  C432     1.0000 0.00559  0.66871  0.67353  Biso   1.000  C
  C433     1.0000 0.01200  0.13337  0.84358  Biso   1.000  C
  C434     1.0000 0.82879  0.99064  0.17227  Biso   1.000  C
  C435     1.0000 0.15444  0.79855  0.03149  Biso   1.000  C
  C436     1.0000 0.51467  0.13560  0.70164  Biso   1.000  C
  C437     1.0000 0.33176  0.98849  0.37698  Biso   1.000  C
  C438     1.0000 0.63965  0.78472  0.53087  Biso   1.000  C
  C439     1.0000 0.49557  0.63864  0.85331  Biso   1.000  C
  C440     1.0000 0.69217  0.48918  0.17440  Biso   1.000  C
  C441     1.0000 0.37033  0.29931  0.02669  Biso   1.000  C
  C442     1.0000 0.00857  0.63644  0.70722  Biso   1.000  C
  C443     1.0000 0.19089  0.47166  0.38656  Biso   1.000  C
  C444     1.0000 0.87725  0.28303  0.52551  Biso   1.000  C
  C445     1.0000 0.01734  0.82896  0.20570  Biso   1.000  C
  C446     1.0000 0.19967  0.98692  0.88348  Biso   1.000  C
  C447     1.0000 0.86857  0.16515  0.04331  Biso   1.000  C
  C448     1.0000 0.51643  0.82288  0.35187  Biso   1.000  C
  C449     1.0000 0.69346  0.96495  0.67340  Biso   1.000  C
  C450     1.0000 0.37464  0.17136  0.52842  Biso   1.000  C
  C451     1.0000 0.49739  0.32540  0.20241  Biso   1.000  C
  C452     1.0000 0.32043  0.49021  0.88551  Biso   1.000  C
  C453     1.0000 0.64781  0.66544  0.02297  Biso   1.000  C
  C454     1.0000 0.00209  0.32734  0.34767  Biso   1.000  C
  C455     1.0000 0.81660  0.47284  0.67275  Biso   1.000  C
  C456     1.0000 0.13801  0.67633  0.52135  Biso   1.000  C
  C457     1.0000 0.99830  0.62453  0.34313  Biso   1.000  C
  C458     1.0000 0.32953  0.99482  0.67704  Biso   1.000  C
  C459     1.0000 0.66459  0.30553  0.03587  Biso   1.000  C
  C460     1.0000 0.51543  0.61994  0.21944  Biso   1.000  C
  C461     1.0000 0.83410  0.98307  0.87238  Biso   1.000  C
  C462     1.0000 0.17708  0.30986  0.52858  Biso   1.000  C
  C463     1.0000 0.49390  0.11982  0.34168  Biso   1.000  C
  C464     1.0000 0.18090  0.48652  0.68321  Biso   1.000  C
  C465     1.0000 0.85196  0.80249  0.01768  Biso   1.000  C
  C466     1.0000 0.00598  0.12737  0.21032  Biso   1.000  C
  C467     1.0000 0.68138  0.48015  0.87622  Biso   1.000  C
  C468     1.0000 0.34360  0.80850  0.52337  Biso   1.000  C
  C469     1.0000 0.01263  0.34018  0.70945  Biso   1.000  C
  C470     1.0000 0.69572  0.98645  0.37623  Biso   1.000  C
  C471     1.0000 0.35488  0.65952  0.06128  Biso   1.000  C
  C472     1.0000 0.52034  0.34189  0.83651  Biso   1.000  C
  C473     1.0000 0.19040  0.99671  0.17858  Biso   1.000  C
  C474     1.0000 0.83856  0.64514  0.51868  Biso   1.000  C
  C475     1.0000 0.50387  0.83751  0.71594  Biso   1.000  C
  C476     1.0000 0.82704  0.48002  0.37507  Biso   1.000  C
  C477     1.0000 0.16767  0.16052  0.03507  Biso   1.000  C
  C478     1.0000 0.00463  0.83865  0.84098  Biso   1.000  C
  C479     1.0000 0.32914  0.47633  0.18537  Biso   1.000  C
  C480     1.0000 0.67655  0.14980  0.52037  Biso   1.000  C
  C481     1.0000 0.35527  0.77900  0.52476  Biso   1.000  C
  C482     1.0000 0.51406  0.35848  0.80986  Biso   1.000  C
  C483     1.0000 0.79971  0.47678  0.39126  Biso   1.000  C
  C484     1.0000 0.86741  0.77585  0.01902  Biso   1.000  C
  C485     1.0000 0.00528  0.35544  0.73454  Biso   1.000  C
  C486     1.0000 0.30093  0.47734  0.16783  Biso   1.000  C
  C487     1.0000 0.16271  0.28186  0.52532  Biso   1.000  C
  C488     1.0000 0.00756  0.85494  0.81351  Biso   1.000  C
  C489     1.0000 0.72207  0.98584  0.39262  Biso   1.000  C
  C490     1.0000 0.64984  0.27784  0.04332  Biso   1.000  C
  C491     1.0000 0.50740  0.85308  0.74236  Biso   1.000  C
  C492     1.0000 0.21693  0.00069  0.16200  Biso   1.000  C
  C493     1.0000 0.66218  0.17807  0.52160  Biso   1.000  C
  C494     1.0000 0.51843  0.60159  0.24644  Biso   1.000  C
  C495     1.0000 0.20926  0.48887  0.66813  Biso   1.000  C
  C496     1.0000 0.15094  0.18777  0.04011  Biso   1.000  C
  C497     1.0000 0.00528  0.61050  0.31666  Biso   1.000  C
  C498     1.0000 0.70898  0.47630  0.89156  Biso   1.000  C
  C499     1.0000 0.85311  0.67371  0.51775  Biso   1.000  C
  C500     1.0000 0.00872  0.11221  0.23839  Biso   1.000  C
  C501     1.0000 0.30041  0.99970  0.66410  Biso   1.000  C
  C502     1.0000 0.37026  0.68653  0.06575  Biso   1.000  C
  C503     1.0000 0.48473  0.10401  0.31585  Biso   1.000  C
  C504     1.0000 0.80673  0.98144  0.88931  Biso   1.000  C
  C505     1.0000 0.63179  0.48629  0.81822  Biso   1.000  C
  C506     1.0000 0.78051  0.59246  0.52085  Biso   1.000  C
  C507     1.0000 0.48712  0.77806  0.66980  Biso   1.000  C
  C508     1.0000 0.13260  0.48439  0.74264  Biso   1.000  C
  C509     1.0000 0.29417  0.60940  0.05556  Biso   1.000  C
  C510     1.0000 0.99691  0.77779  0.88917  Biso   1.000  C
  C511     1.0000 0.88466  0.97862  0.81307  Biso   1.000  C
  C512     1.0000 0.73188  0.09311  0.51848  Biso   1.000  C
  C513     1.0000 0.03450  0.28099  0.66411  Biso   1.000  C
  C514     1.0000 0.37999  0.99266  0.73449  Biso   1.000  C
  C515     1.0000 0.22632  0.11196  0.02109  Biso   1.000  C
  C516     1.0000 0.53015  0.27922  0.88463  Biso   1.000  C
  C517     1.0000 0.38065  0.47884  0.24413  Biso   1.000  C
  C518     1.0000 0.22970  0.36415  0.54235  Biso   1.000  C
  C519     1.0000 0.50989  0.18067  0.38715  Biso   1.000  C
  C520     1.0000 0.87661  0.49259  0.31624  Biso   1.000  C
  C521     1.0000 0.72198  0.35655  0.02911  Biso   1.000  C
  C522     1.0000 0.00174  0.18871  0.16145  Biso   1.000  C
  C523     1.0000 0.14209  0.98960  0.23882  Biso   1.000  C
  C524     1.0000 0.28931  0.86212  0.52201  Biso   1.000  C
  C525     1.0000 0.97845  0.68054  0.39026  Biso   1.000  C
  C526     1.0000 0.64444  0.98692  0.31500  Biso   1.000  C
  C527     1.0000 0.79292  0.85405  0.01719  Biso   1.000  C
  C528     1.0000 0.51008  0.68141  0.17195  Biso   1.000  C
  C529     1.0000 0.80717  0.11817  0.04458  Biso   1.000  C
  C530     1.0000 0.99865  0.77225  0.15569  Biso   1.000  C
  C531     1.0000 0.15498  0.99325  0.82235  Biso   1.000  C
  C532     1.0000 0.30846  0.13060  0.53224  Biso   1.000  C
  C533     1.0000 0.50752  0.76399  0.40177  Biso   1.000  C
  C534     1.0000 0.64780  0.97189  0.73368  Biso   1.000  C
  C535     1.0000 0.70871  0.61987  0.00780  Biso   1.000  C
  C536     1.0000 0.50443  0.26749  0.15230  Biso   1.000  C
  C537     1.0000 0.36397  0.48106  0.82213  Biso   1.000  C
  C538     1.0000 0.20283  0.63268  0.52642  Biso   1.000  C
  C539     1.0000 0.01919  0.26741  0.39543  Biso   1.000  C
  C540     1.0000 0.86377  0.49201  0.73179  Biso   1.000  C
  C541     1.0000 0.21697  0.84338  0.03833  Biso   1.000  C
  C542     1.0000 0.01313  0.19238  0.89367  Biso   1.000  C
  C543     1.0000 0.87876  0.98432  0.23253  Biso   1.000  C
  C544     1.0000 0.70118  0.82788  0.51770  Biso   1.000  C
  C545     1.0000 0.52318  0.19649  0.65137  Biso   1.000  C
  C546     1.0000 0.37818  0.96622  0.31923  Biso   1.000  C
  C547     1.0000 0.30995  0.34715  0.01621  Biso   1.000  C
  C548     1.0000 0.50113  0.69312  0.90597  Biso   1.000  C
  C549     1.0000 0.64577  0.47317  0.23461  Biso   1.000  C
  C550     1.0000 0.81544  0.32565  0.50845  Biso   1.000  C
  C551     1.0000 0.00367  0.69489  0.65706  Biso   1.000  C
  C552     1.0000 0.14384  0.45995  0.32558  Biso   1.000  C
  C553     1.0000 0.01039  0.11685  0.81728  Biso   1.000  C
  C554     1.0000 0.80323  0.99757  0.15684  Biso   1.000  C
  C555     1.0000 0.13681  0.77158  0.03220  Biso   1.000  C
  C556     1.0000 0.50862  0.12084  0.72863  Biso   1.000  C
  C557     1.0000 0.30557  0.99581  0.39243  Biso   1.000  C
  C558     1.0000 0.62248  0.75913  0.53566  Biso   1.000  C
  C559     1.0000 0.49818  0.62426  0.82579  Biso   1.000  C
  C560     1.0000 0.72131  0.49224  0.16044  Biso   1.000  C
  C561     1.0000 0.38629  0.27201  0.02763  Biso   1.000  C
  C562     1.0000 0.01050  0.61950  0.73380  Biso   1.000  C
  C563     1.0000 0.21729  0.47576  0.40354  Biso   1.000  C
  C564     1.0000 0.89615  0.25836  0.52987  Biso   1.000  C
  C565     1.0000 0.02258  0.84480  0.23200  Biso   1.000  C
  C566     1.0000 0.22750  0.98619  0.89850  Biso   1.000  C
  C567     1.0000 0.88246  0.19287  0.04476  Biso   1.000  C
  C568     1.0000 0.52428  0.84039  0.32533  Biso   1.000  C
  C569     1.0000 0.71988  0.96189  0.65742  Biso   1.000  C
  C570     1.0000 0.39318  0.19692  0.52409  Biso   1.000  C
  C571     1.0000 0.49062  0.33795  0.23035  Biso   1.000  C
  C572     1.0000 0.29512  0.49434  0.90334  Biso   1.000  C
  C573     1.0000 0.63106  0.69207  0.03183  Biso   1.000  C
  C574     1.0000 0.99548  0.34527  0.32029  Biso   1.000  C
  C575     1.0000 0.79174  0.46325  0.65656  Biso   1.000  C
  C576     1.0000 0.12077  0.70114  0.51813  Biso   1.000  C
  C577     1.0000 0.30074  0.47246  0.13707  Biso   1.000  C
  C578     1.0000 0.13113  0.28022  0.52175  Biso   1.000  C
  C579     1.0000 0.48489  0.07213  0.31615  Biso   1.000  C
  C580     1.0000 0.80064  0.47066  0.42240  Biso   1.000  C
  C581     1.0000 0.61856  0.27589  0.04088  Biso   1.000  C
  C582     1.0000 0.00473  0.08152  0.23783  Biso   1.000  C
  C583     1.0000 0.21721  0.99832  0.13150  Biso   1.000  C
  C584     1.0000 0.38819  0.77666  0.52714  Biso   1.000  C
  C585     1.0000 0.01151  0.57907  0.31657  Biso   1.000  C
  C586     1.0000 0.72110  0.97763  0.42294  Biso   1.000  C
  C587     1.0000 0.89814  0.77520  0.01982  Biso   1.000  C
  C588     1.0000 0.51945  0.56946  0.24445  Biso   1.000  C
  C589     1.0000 0.70799  0.47782  0.92293  Biso   1.000  C
  C590     1.0000 0.88537  0.67504  0.52249  Biso   1.000  C
  C591     1.0000 0.51207  0.88399  0.74092  Biso   1.000  C
  C592     1.0000 0.21086  0.49410  0.63738  Biso   1.000  C
  C593     1.0000 0.40119  0.68668  0.06493  Biso   1.000  C
  C594     1.0000 0.01176  0.88574  0.81426  Biso   1.000  C
  C595     1.0000 0.80771  0.98379  0.92113  Biso   1.000  C
  C596     1.0000 0.63010  0.17894  0.52252  Biso   1.000  C
  C597     1.0000 0.00243  0.38620  0.73300  Biso   1.000  C
  C598     1.0000 0.29780  0.99625  0.63207  Biso   1.000  C
  C599     1.0000 0.11968  0.18729  0.04181  Biso   1.000  C
  C600     1.0000 0.51138  0.38983  0.81302  Biso   1.000  C
  C601     1.0000 0.22497  0.98099  0.93006  Biso   1.000  C
  C602     1.0000 0.91388  0.19340  0.04041  Biso   1.000  C
  C603     1.0000 0.02447  0.87633  0.23275  Biso   1.000  C
  C604     1.0000 0.72013  0.96173  0.62524  Biso   1.000  C
  C605     1.0000 0.42435  0.19345  0.52012  Biso   1.000  C
  C606     1.0000 0.52721  0.87084  0.32638  Biso   1.000  C
  C607     1.0000 0.29818  0.49778  0.93505  Biso   1.000  C
  C608     1.0000 0.59994  0.68854  0.03584  Biso   1.000  C
  C609     1.0000 0.49211  0.36964  0.23035  Biso   1.000  C
  C610     1.0000 0.79250  0.45997  0.62575  Biso   1.000  C
  C611     1.0000 0.08879  0.69703  0.51700  Biso   1.000  C
  C612     1.0000 0.99328  0.37613  0.32210  Biso   1.000  C
  C613     1.0000 0.80261  0.99274  0.12536  Biso   1.000  C
  C614     1.0000 0.10438  0.77465  0.02969  Biso   1.000  C
  C615     1.0000 0.01341  0.08476  0.81797  Biso   1.000  C
  C616     1.0000 0.30495  0.99680  0.42434  Biso   1.000  C
  C617     1.0000 0.59126  0.76449  0.54100  Biso   1.000  C
  C618     1.0000 0.50676  0.08795  0.72806  Biso   1.000  C
  C619     1.0000 0.71974  0.49501  0.12833  Biso   1.000  C
  C620     1.0000 0.41788  0.27296  0.02734  Biso   1.000  C
  C621     1.0000 0.49602  0.59248  0.82455  Biso   1.000  C
  C622     1.0000 0.21634  0.48226  0.43423  Biso   1.000  C
  C623     1.0000 0.92672  0.25978  0.53428  Biso   1.000  C
  C624     1.0000 0.00933  0.58827  0.73554  Biso   1.000  C
  C625     1.0000 0.01331  0.19194  0.92524  Biso   1.000  C
  C626     1.0000 0.90869  0.97575  0.23227  Biso   1.000  C
  C627     1.0000 0.21776  0.87486  0.03668  Biso   1.000  C
  C628     1.0000 0.52599  0.19593  0.61952  Biso   1.000  C
  C629     1.0000 0.41021  0.96059  0.32230  Biso   1.000  C
  C630     1.0000 0.70350  0.85956  0.51671  Biso   1.000  C
  C631     1.0000 0.50067  0.68899  0.93788  Biso   1.000  C
  C632     1.0000 0.61592  0.46536  0.23529  Biso   1.000  C
  C633     1.0000 0.31078  0.37791  0.01498  Biso   1.000  C
  C634     1.0000 0.00244  0.69488  0.62567  Biso   1.000  C
  C635     1.0000 0.11286  0.45976  0.32573  Biso   1.000  C
  C636     1.0000 0.81210  0.35655  0.50809  Biso   1.000  C
  C637     1.0000 0.99769  0.77310  0.12392  Biso   1.000  C
  C638     1.0000 0.12134  0.98980  0.82093  Biso   1.000  C
  C639     1.0000 0.80707  0.08680  0.03897  Biso   1.000  C
  C640     1.0000 0.50480  0.76443  0.43269  Biso   1.000  C
  C641     1.0000 0.61718  0.97917  0.73289  Biso   1.000  C
  C642     1.0000 0.30530  0.09827  0.53503  Biso   1.000  C
  C643     1.0000 0.50781  0.26852  0.11993  Biso   1.000  C
  C644     1.0000 0.39573  0.47838  0.82292  Biso   1.000  C
  C645     1.0000 0.70898  0.58836  0.00643  Biso   1.000  C
  C646     1.0000 0.02462  0.26805  0.42688  Biso   1.000  C
  C647     1.0000 0.89468  0.49753  0.73040  Biso   1.000  C
  C648     1.0000 0.20578  0.60105  0.53056  Biso   1.000  C
  C649     1.0000 0.97476  0.67869  0.42208  Biso   1.000  C
  C650     1.0000 0.41137  0.99016  0.73512  Biso   1.000  C
  C651     1.0000 0.71932  0.38737  0.03083  Biso   1.000  C
  C652     1.0000 0.50765  0.68262  0.14078  Biso   1.000  C
  C653     1.0000 0.91572  0.98209  0.81426  Biso   1.000  C
  C654     1.0000 0.22611  0.39517  0.54422  Biso   1.000  C
  C655     1.0000 0.51491  0.17889  0.41846  Biso   1.000  C
  C656     1.0000 0.10159  0.48706  0.73953  Biso   1.000  C
  C657     1.0000 0.79402  0.88436  0.01990  Biso   1.000  C
  C658     1.0000 0.00634  0.18952  0.13016  Biso   1.000  C
  C659     1.0000 0.60091  0.49132  0.81962  Biso   1.000  C
  C660     1.0000 0.29285  0.89370  0.52378  Biso   1.000  C
  C661     1.0000 0.03927  0.27997  0.63307  Biso   1.000  C
  C662     1.0000 0.61365  0.98351  0.31888  Biso   1.000  C
  C663     1.0000 0.29311  0.57818  0.05335  Biso   1.000  C
  C664     1.0000 0.52947  0.27803  0.91642  Biso   1.000  C
  C665     1.0000 0.11134  0.98576  0.23935  Biso   1.000  C
  C666     1.0000 0.78318  0.56151  0.52523  Biso   1.000  C
  C667     1.0000 0.48504  0.77631  0.63901  Biso   1.000  C
  C668     1.0000 0.90712  0.49402  0.31601  Biso   1.000  C
  C669     1.0000 0.22552  0.08186  0.01931  Biso   1.000  C
  C670     1.0000 0.00008  0.77552  0.92137  Biso   1.000  C
  C671     1.0000 0.41136  0.47436  0.24280  Biso   1.000  C
  C672     1.0000 0.72954  0.06167  0.51929  Biso   1.000  C
  C673     1.0000 0.21562  0.99197  0.83754  Biso   1.000  C
  C674     1.0000 0.82116  0.17942  0.04516  Biso   1.000  C
  C675     1.0000 0.01009  0.78042  0.21816  Biso   1.000  C
  C676     1.0000 0.70723  0.96519  0.72087  Biso   1.000  C
  C677     1.0000 0.32969  0.19216  0.53041  Biso   1.000  C
  C678     1.0000 0.50997  0.77523  0.33817  Biso   1.000  C
  C679     1.0000 0.30421  0.48840  0.83860  Biso   1.000  C
  C680     1.0000 0.69574  0.68095  0.01735  Biso   1.000  C
  C681     1.0000 0.50106  0.27698  0.21584  Biso   1.000  C
  C682     1.0000 0.80138  0.47900  0.71791  Biso   1.000  C
  C683     1.0000 0.18483  0.69328  0.52414  Biso   1.000  C
  C684     1.0000 0.00809  0.28245  0.33222  Biso   1.000  C
  C685     1.0000 0.81377  0.99284  0.21825  Biso   1.000  C
  C686     1.0000 0.20165  0.78348  0.03681  Biso   1.000  C
  C687     1.0000 0.00876  0.18102  0.83006  Biso   1.000  C
  C688     1.0000 0.31698  0.98387  0.33016  Biso   1.000  C
  C689     1.0000 0.68417  0.76729  0.52270  Biso   1.000  C
  C690     1.0000 0.51474  0.18366  0.71428  Biso   1.000  C
  C691     1.0000 0.70458  0.48673  0.22238  Biso   1.000  C
  C692     1.0000 0.32314  0.28434  0.02437  Biso   1.000  C
  C693     1.0000 0.50104  0.68706  0.84308  Biso   1.000  C
  C694     1.0000 0.20562  0.46936  0.34053  Biso   1.000  C
  C695     1.0000 0.83131  0.26569  0.52160  Biso   1.000  C
  C696     1.0000 0.01051  0.68367  0.71899  Biso   1.000  C
  C697     1.0000 0.70878  0.99059  0.32890  Biso   1.000  C
  C698     1.0000 0.30700  0.67321  0.05881  Biso   1.000  C
  C699     1.0000 0.01570  0.29356  0.72486  Biso   1.000  C
  C700     1.0000 0.20507  0.99530  0.22435  Biso   1.000  C
  C701     1.0000 0.79105  0.65800  0.51675  Biso   1.000  C
  C702     1.0000 0.52155  0.29604  0.82131  Biso   1.000  C
  C703     1.0000 0.81444  0.48856  0.32932  Biso   1.000  C
  C704     1.0000 0.21550  0.17396  0.03222  Biso   1.000  C
  C705     1.0000 0.50062  0.79202  0.73159  Biso   1.000  C
  C706     1.0000 0.31491  0.47926  0.23113  Biso   1.000  C
  C707     1.0000 0.72349  0.15960  0.51817  Biso   1.000  C
  C708     1.0000 0.00128  0.79154  0.82795  Biso   1.000  C
  C709     1.0000 0.31655  0.99755  0.72416  Biso   1.000  C
  C710     1.0000 0.71108  0.29078  0.03274  Biso   1.000  C
  C711     1.0000 0.99446  0.67128  0.32781  Biso   1.000  C
  C712     1.0000 0.82267  0.97754  0.82445  Biso   1.000  C
  C713     1.0000 0.22410  0.30073  0.53519  Biso   1.000  C
  C714     1.0000 0.51301  0.66732  0.23414  Biso   1.000  C
  C715     1.0000 0.19583  0.48577  0.73125  Biso   1.000  C
  C716     1.0000 0.80551  0.79070  0.01827  Biso   1.000  C
  C717     1.0000 0.49764  0.16656  0.32533  Biso   1.000  C
  C718     1.0000 0.69440  0.47852  0.82851  Biso   1.000  C
  C719     1.0000 0.29548  0.80018  0.52451  Biso   1.000  C
  C720     1.0000 0.00399  0.17466  0.22337  Biso   1.000  C
  C721     1.0000 0.49575  0.78233  0.31071  Biso   1.000  C
  C722     1.0000 0.30582  0.50391  0.80997  Biso   1.000  C
  C723     1.0000 0.80070  0.27080  0.53258  Biso   1.000  C
  C724     1.0000 0.02003  0.75047  0.21450  Biso   1.000  C
  C725     1.0000 0.77229  0.49202  0.71123  Biso   1.000  C
  C726     1.0000 0.30019  0.28457  0.00451  Biso   1.000  C
  C727     1.0000 0.99650  0.25372  0.33708  Biso   1.000  C
  C728     1.0000 0.23901  0.01301  0.83894  Biso   1.000  C
  C729     1.0000 0.71486  0.77043  0.53205  Biso   1.000  C
  C730     1.0000 0.47846  0.27665  0.24019  Biso   1.000  C
  C731     1.0000 0.73104  0.94329  0.72062  Biso   1.000  C
  C732     1.0000 0.19927  0.75564  0.02140  Biso   1.000  C
  C733     1.0000 0.49517  0.18278  0.73845  Biso   1.000  C
  C734     1.0000 0.70711  0.46542  0.24567  Biso   1.000  C
  C735     1.0000 0.18131  0.72171  0.50635  Biso   1.000  C
  C736     1.0000 0.98787  0.20449  0.83006  Biso   1.000  C
  C737     1.0000 0.23591  0.45933  0.34431  Biso   1.000  C
  C738     1.0000 0.72379  0.67563  0.03076  Biso   1.000  C
  C739     1.0000 0.03112  0.68308  0.74367  Biso   1.000  C
  C740     1.0000 0.78326  0.98323  0.21401  Biso   1.000  C
  C741     1.0000 0.30112  0.19101  0.51762  Biso   1.000  C
  C742     1.0000 0.51931  0.68455  0.81684  Biso   1.000  C
  C743     1.0000 0.28751  0.97385  0.33561  Biso   1.000  C
  C744     1.0000 0.82134  0.20534  0.06226  Biso   1.000  C
  C745     1.0000 0.00642  0.69815  0.33463  Biso   1.000  C
  C746     1.0000 0.29863  0.02238  0.72669  Biso   1.000  C
  C747     1.0000 0.73966  0.29584  0.04625  Biso   1.000  C
  C748     1.0000 0.52740  0.69577  0.22954  Biso   1.000  C
  C749     1.0000 0.82686  0.95735  0.79985  Biso   1.000  C
  C750     1.0000 0.21917  0.27428  0.55126  Biso   1.000  C
  C751     1.0000 0.50900  0.16032  0.29627  Biso   1.000  C
  C752     1.0000 0.22038  0.46704  0.72810  Biso   1.000  C
  C753     1.0000 0.78260  0.78980  0.99650  Biso   1.000  C
  C754     1.0000 0.01793  0.20261  0.21749  Biso   1.000  C
  C755     1.0000 0.68944  0.46381  0.80104  Biso   1.000  C
  C756     1.0000 0.27159  0.80445  0.54427  Biso   1.000  C
  C757     1.0000 0.00583  0.26462  0.71990  Biso   1.000  C
  C758     1.0000 0.70459  0.01109  0.30332  Biso   1.000  C
  C759     1.0000 0.27906  0.67020  0.07246  Biso   1.000  C
  C760     1.0000 0.53316  0.29933  0.79185  Biso   1.000  C
  C761     1.0000 0.22961  0.01497  0.22208  Biso   1.000  C
  C762     1.0000 0.79379  0.68466  0.50142  Biso   1.000  C
  C763     1.0000 0.47870  0.76988  0.73528  Biso   1.000  C
  C764     1.0000 0.78661  0.50326  0.33295  Biso   1.000  C
  C765     1.0000 0.24434  0.16887  0.04514  Biso   1.000  C
  C766     1.0000 0.98739  0.79635  0.79748  Biso   1.000  C
  C767     1.0000 0.31647  0.49682  0.25771  Biso   1.000  C
  C768     1.0000 0.71914  0.18651  0.50180  Biso   1.000  C
  C769     1.0000 0.48485  0.71443  0.84720  Biso   1.000  C
  C770     1.0000 0.80703  0.46721  0.74649  Biso   1.000  C
  C771     1.0000 0.67567  0.73888  0.51175  Biso   1.000  C
  C772     1.0000 0.98847  0.70638  0.71742  Biso   1.000  C
  C773     1.0000 0.27625  0.47311  0.84570  Biso   1.000  C
  C774     1.0000 0.22561  0.78708  0.05724  Biso   1.000  C
  C775     1.0000 0.03102  0.17950  0.80813  Biso   1.000  C
  C776     1.0000 0.70882  0.98791  0.74242  Biso   1.000  C
  C777     1.0000 0.83714  0.23663  0.50940  Biso   1.000  C
  C778     1.0000 0.53406  0.21001  0.71120  Biso   1.000  C
  C779     1.0000 0.21529  0.97390  0.81259  Biso   1.000  C
  C780     1.0000 0.32509  0.26133  0.04831  Biso   1.000  C
  C781     1.0000 0.51991  0.25005  0.21469  Biso   1.000  C
  C782     1.0000 0.19931  0.48216  0.31176  Biso   1.000  C
  C783     1.0000 0.33796  0.21780  0.54581  Biso   1.000  C
  C784     1.0000 0.02058  0.28737  0.30350  Biso   1.000  C
  C785     1.0000 0.72550  0.50901  0.22323  Biso   1.000  C
  C786     1.0000 0.80038  0.17868  0.02112  Biso   1.000  C
  C787     1.0000 0.99605  0.78662  0.24707  Biso   1.000  C
  C788     1.0000 0.32356  0.99425  0.30065  Biso   1.000  C
  C789     1.0000 0.21072  0.69182  0.54173  Biso   1.000  C
  C790     1.0000 0.51951  0.74601  0.34427  Biso   1.000  C
  C791     1.0000 0.81942  0.00598  0.24645  Biso   1.000  C
  C792     1.0000 0.68999  0.70983  0.00669  Biso   1.000  C
  C793     1.0000 0.48683  0.19540  0.33050  Biso   1.000  C
  C794     1.0000 0.29150  0.45797  0.22809  Biso   1.000  C
  C795     1.0000 0.25354  0.30649  0.52412  Biso   1.000  C
  C796     1.0000 0.98683  0.17127  0.24952  Biso   1.000  C
  C797     1.0000 0.81917  0.47292  0.30155  Biso   1.000  C
  C798     1.0000 0.70800  0.26286  0.01909  Biso   1.000  C
  C799     1.0000 0.98328  0.66789  0.29820  Biso   1.000  C
  C800     1.0000 0.20382  0.97504  0.24865  Biso   1.000  C
  C801     1.0000 0.29386  0.77528  0.50426  Biso   1.000  C
  C802     1.0000 0.49564  0.66340  0.26088  Biso   1.000  C
  C803     1.0000 0.73472  0.97314  0.32746  Biso   1.000  C
  C804     1.0000 0.80568  0.76681  0.04056  Biso   1.000  C
  C805     1.0000 0.52546  0.79292  0.75155  Biso   1.000  C
  C806     1.0000 0.72398  0.49173  0.83173  Biso   1.000  C
  C807     1.0000 0.76327  0.65245  0.53359  Biso   1.000  C
  C808     1.0000 0.01836  0.76439  0.83245  Biso   1.000  C
  C809     1.0000 0.19342  0.50228  0.75699  Biso   1.000  C
  C810     1.0000 0.31182  0.69866  0.04166  Biso   1.000  C
  C811     1.0000 0.02423  0.29912  0.75498  Biso   1.000  C
  C812     1.0000 0.79509  0.99085  0.82677  Biso   1.000  C
  C813     1.0000 0.75077  0.15668  0.53746  Biso   1.000  C
  C814     1.0000 0.50792  0.26866  0.82772  Biso   1.000  C
  C815     1.0000 0.31833  0.97439  0.74659  Biso   1.000  C
  C816     1.0000 0.21036  0.20259  0.01737  Biso   1.000  C
  C817     1.0000 0.99214  0.22649  0.80954  Biso   1.000  C
  C818     1.0000 0.76218  0.98775  0.23440  Biso   1.000  C
  C819     1.0000 0.21875  0.73341  0.03013  Biso   1.000  C
  C820     1.0000 0.49641  0.20544  0.75820  Biso   1.000  C
  C821     1.0000 0.26643  0.97911  0.31380  Biso   1.000  C
  C822     1.0000 0.73402  0.74750  0.52859  Biso   1.000  C
  C823     1.0000 0.52220  0.70794  0.79835  Biso   1.000  C
  C824     1.0000 0.72833  0.46462  0.26623  Biso   1.000  C
  C825     1.0000 0.27930  0.26219  0.00672  Biso   1.000  C
  C826     1.0000 0.03037  0.70588  0.76345  Biso   1.000  C
  C827     1.0000 0.25682  0.46144  0.32351  Biso   1.000  C
  C828     1.0000 0.77960  0.25022  0.52812  Biso   1.000  C
  C829     1.0000 0.01614  0.72962  0.23568  Biso   1.000  C
  C830     1.0000 0.25967  0.01476  0.81734  Biso   1.000  C
  C831     1.0000 0.80032  0.22654  0.05899  Biso   1.000  C
  C832     1.0000 0.49392  0.76104  0.28843  Biso   1.000  C
  C833     1.0000 0.75389  0.94594  0.73970  Biso   1.000  C
  C834     1.0000 0.28101  0.21177  0.52342  Biso   1.000  C
  C835     1.0000 0.47845  0.25369  0.25983  Biso   1.000  C
  C836     1.0000 0.28426  0.50058  0.78958  Biso   1.000  C
  C837     1.0000 0.74536  0.69630  0.03001  Biso   1.000  C
  C838     1.0000 0.99621  0.23304  0.31517  Biso   1.000  C
  C839     1.0000 0.75067  0.49111  0.73308  Biso   1.000  C
  C840     1.0000 0.20055  0.74332  0.50947  Biso   1.000  C
  C841     1.0000 0.23626  0.97645  0.79085  Biso   1.000  C
  C842     1.0000 0.77870  0.20057  0.01843  Biso   1.000  C
  C843     1.0000 0.99540  0.76410  0.26843  Biso   1.000  C
  C844     1.0000 0.73063  0.98755  0.76338  Biso   1.000  C
  C845     1.0000 0.31773  0.23991  0.54715  Biso   1.000  C
  C846     1.0000 0.51718  0.72589  0.32286  Biso   1.000  C
  C847     1.0000 0.25737  0.46969  0.82211  Biso   1.000  C
  C848     1.0000 0.71135  0.73057  0.00629  Biso   1.000  C
  C849     1.0000 0.51738  0.22861  0.23609  Biso   1.000  C
  C850     1.0000 0.78505  0.46876  0.76675  Biso   1.000  C
  C851     1.0000 0.22977  0.71465  0.54500  Biso   1.000  C
  C852     1.0000 0.01932  0.26589  0.28158  Biso   1.000  C
  C853     1.0000 0.79802  0.00755  0.26679  Biso   1.000  C
  C854     1.0000 0.24513  0.76457  0.06256  Biso   1.000  C
  C855     1.0000 0.03396  0.20288  0.78703  Biso   1.000  C
  C856     1.0000 0.30185  0.99504  0.27852  Biso   1.000  C
  C857     1.0000 0.69615  0.71642  0.51067  Biso   1.000  C
  C858     1.0000 0.53327  0.23099  0.73149  Biso   1.000  C
  C859     1.0000 0.74992  0.50813  0.24152  Biso   1.000  C
  C860     1.0000 0.30280  0.24085  0.04816  Biso   1.000  C
  C861     1.0000 0.48651  0.73628  0.82658  Biso   1.000  C
  C862     1.0000 0.22010  0.48362  0.29110  Biso   1.000  C
  C863     1.0000 0.81678  0.21500  0.50836  Biso   1.000  C
  C864     1.0000 0.98783  0.72772  0.73870  Biso   1.000  C
  C865     1.0000 0.71051  0.46235  0.78021  Biso   1.000  C
  C866     1.0000 0.77107  0.70474  0.49958  Biso   1.000  C
  C867     1.0000 0.48147  0.75127  0.75905  Biso   1.000  C
  C868     1.0000 0.24227  0.46725  0.75009  Biso   1.000  C
  C869     1.0000 0.25746  0.69208  0.06905  Biso   1.000  C
  C870     1.0000 0.99181  0.77582  0.77679  Biso   1.000  C
  C871     1.0000 0.80306  0.95390  0.78022  Biso   1.000  C
  C872     1.0000 0.74066  0.20624  0.50091  Biso   1.000  C
  C873     1.0000 0.00567  0.24392  0.74241  Biso   1.000  C
  C874     1.0000 0.27840  0.02213  0.74946  Biso   1.000  C
  C875     1.0000 0.26358  0.19116  0.04315  Biso   1.000  C
  C876     1.0000 0.53219  0.27641  0.77309  Biso   1.000  C
  C877     1.0000 0.29526  0.49282  0.27801  Biso   1.000  C
  C878     1.0000 0.24026  0.25376  0.55386  Biso   1.000  C
  C879     1.0000 0.51045  0.18243  0.27523  Biso   1.000  C
  C880     1.0000 0.76653  0.50558  0.31074  Biso   1.000  C
  C881     1.0000 0.76101  0.27527  0.04491  Biso   1.000  C
  C882     1.0000 0.01819  0.22330  0.23842  Biso   1.000  C
  C883     1.0000 0.25093  0.01319  0.24278  Biso   1.000  C
  C884     1.0000 0.24763  0.78558  0.54486  Biso   1.000  C
  C885     1.0000 0.01055  0.71926  0.31465  Biso   1.000  C
  C886     1.0000 0.72544  0.01400  0.28334  Biso   1.000  C
  C887     1.0000 0.76151  0.76865  0.99802  Biso   1.000  C
  C888     1.0000 0.51870  0.71821  0.24632  Biso   1.000  C
  C889     1.0000 0.75526  0.97613  0.30613  Biso   1.000  C
  C890     1.0000 0.28994  0.71997  0.03917  Biso   1.000  C
  C891     1.0000 0.02551  0.27745  0.77506  Biso   1.000  C
  C892     1.0000 0.22686  0.97260  0.26922  Biso   1.000  C
  C893     1.0000 0.74071  0.67207  0.53063  Biso   1.000  C
  C894     1.0000 0.50597  0.24599  0.80724  Biso   1.000  C
  C895     1.0000 0.79834  0.47361  0.28160  Biso   1.000  C
  C896     1.0000 0.23114  0.22334  0.01596  Biso   1.000  C
  C897     1.0000 0.52668  0.77525  0.77554  Biso   1.000  C
  C898     1.0000 0.26863  0.45834  0.24807  Biso   1.000  C
  C899     1.0000 0.77062  0.17858  0.53602  Biso   1.000  C
  C900     1.0000 0.02110  0.74418  0.81063  Biso   1.000  C
  C901     1.0000 0.29774  0.97674  0.76850  Biso   1.000  C
  C902     1.0000 0.73103  0.24141  0.01961  Biso   1.000  C
  C903     1.0000 0.98874  0.68837  0.27785  Biso   1.000  C
  C904     1.0000 0.77351  0.98876  0.80680  Biso   1.000  C
  C905     1.0000 0.27470  0.28446  0.52724  Biso   1.000  C
  C906     1.0000 0.49151  0.68618  0.27902  Biso   1.000  C
  C907     1.0000 0.21451  0.49996  0.77771  Biso   1.000  C
  C908     1.0000 0.78258  0.74711  0.04113  Biso   1.000  C
  C909     1.0000 0.48688  0.21511  0.30850  Biso   1.000  C
  C910     1.0000 0.74370  0.49174  0.80957  Biso   1.000  C
  C911     1.0000 0.27083  0.75633  0.50521  Biso   1.000  C
  C912     1.0000 0.98835  0.19338  0.27047  Biso   1.000  C
  C913     1.0000 0.75650  0.47883  0.76063  Biso   1.000  C
  C914     1.0000 0.72438  0.72182  0.51737  Biso   1.000  C
  C915     1.0000 0.50505  0.73329  0.80241  Biso   1.000  C
  C916     1.0000 0.26055  0.48361  0.79553  Biso   1.000  C
  C917     1.0000 0.24079  0.73801  0.05085  Biso   1.000  C
  C918     1.0000 0.00899  0.72834  0.76036  Biso   1.000  C
  C919     1.0000 0.75406  0.96751  0.76098  Biso   1.000  C
  C920     1.0000 0.78824  0.22303  0.51659  Biso   1.000  C
  C921     1.0000 0.01467  0.22515  0.78923  Biso   1.000  C
  C922     1.0000 0.25822  0.99617  0.79417  Biso   1.000  C
  C923     1.0000 0.28023  0.23977  0.02830  Biso   1.000  C
  C924     1.0000 0.51535  0.22855  0.75661  Biso   1.000  C
  C925     1.0000 0.24884  0.47312  0.29708  Biso   1.000  C
  C926     1.0000 0.28889  0.23508  0.54020  Biso   1.000  C
  C927     1.0000 0.49736  0.23081  0.25796  Biso   1.000  C
  C928     1.0000 0.74890  0.48611  0.26435  Biso   1.000  C
  C929     1.0000 0.77963  0.22523  0.03649  Biso   1.000  C
  C930     1.0000 0.00512  0.24004  0.28728  Biso   1.000  C
  C931     1.0000 0.27343  0.98903  0.28569  Biso   1.000  C
  C932     1.0000 0.22559  0.73904  0.52726  Biso   1.000  C
  C933     1.0000 0.00532  0.73648  0.26280  Biso   1.000  C
  C934     1.0000 0.76947  0.99851  0.26130  Biso   1.000  C
  C935     1.0000 0.73786  0.72399  0.01902  Biso   1.000  C
  C936     1.0000 0.50552  0.73305  0.29567  Biso   1.000  C
  C937     1.0000 0.75726  0.24833  0.03367  Biso   1.000  C
  C938     1.0000 0.00256  0.71386  0.28543  Biso   1.000  C
  C939     1.0000 0.27873  0.99972  0.77021  Biso   1.000  C
  C940     1.0000 0.26738  0.25888  0.54273  Biso   1.000  C
  C941     1.0000 0.50454  0.71186  0.27206  Biso   1.000  C
  C942     1.0000 0.77714  0.96950  0.78353  Biso   1.000  C
  C943     1.0000 0.76088  0.74754  0.01982  Biso   1.000  C
  C944     1.0000 0.49807  0.20972  0.28147  Biso   1.000  C
  C945     1.0000 0.23763  0.48229  0.77486  Biso   1.000  C
  C946     1.0000 0.24820  0.76045  0.52516  Biso   1.000  C
  C947     1.0000 0.00483  0.21813  0.26491  Biso   1.000  C
  C948     1.0000 0.73654  0.47743  0.78443  Biso   1.000  C
  C949     1.0000 0.26425  0.71725  0.05434  Biso   1.000  C
  C950     1.0000 0.01777  0.24899  0.76785  Biso   1.000  C
  C951     1.0000 0.75070  0.99725  0.28613  Biso   1.000  C
  C952     1.0000 0.74476  0.69867  0.51441  Biso   1.000  C
  C953     1.0000 0.51547  0.25240  0.77847  Biso   1.000  C
  C954     1.0000 0.24994  0.99149  0.26440  Biso   1.000  C
  C955     1.0000 0.25751  0.21796  0.03017  Biso   1.000  C
  C956     1.0000 0.50363  0.75543  0.77948  Biso   1.000  C
  C957     1.0000 0.77212  0.48872  0.28678  Biso   1.000  C
  C958     1.0000 0.76633  0.20083  0.51626  Biso   1.000  C
  C959     1.0000 0.00823  0.75072  0.78397  Biso   1.000  C
  C960     1.0000 0.27161  0.47521  0.27313  Biso   1.000  C
  Cu1      1.0000 0.00059  0.48867  0.67815  Biso   1.000  Cu
  Cu2      1.0000 0.66227  0.96768  0.52443  Biso   1.000  Cu
  Cu3      1.0000 0.50073  0.63222  0.03864  Biso   1.000  Cu
  Cu4      1.0000 0.50121  0.48757  0.87641  Biso   1.000  Cu
  Cu5      1.0000 0.16752  0.97982  0.02831  Biso   1.000  Cu
  Cu6      1.0000 0.99211  0.63291  0.52617  Biso   1.000  Cu
  Cu7      1.0000 0.51285  0.98488  0.67847  Biso   1.000  Cu
  Cu8      1.0000 0.85275  0.46446  0.52384  Biso   1.000  Cu
  Cu9      1.0000 0.01729  0.13743  0.02640  Biso   1.000  Cu
  Cu10     1.0000 0.01572  0.98331  0.87103  Biso   1.000  Cu
  Cu11     1.0000 0.35594  0.48170  0.03590  Biso   1.000  Cu
  Cu12     1.0000 0.52355  0.13044  0.52319  Biso   1.000  Cu
  Cu13     1.0000 0.00739  0.47744  0.37539  Biso   1.000  Cu
  Cu14     1.0000 0.35369  0.99112  0.52860  Biso   1.000  Cu
  Cu15     1.0000 0.51890  0.33003  0.02169  Biso   1.000  Cu
  Cu16     1.0000 0.51083  0.47252  0.18397  Biso   1.000  Cu
  Cu17     1.0000 0.85913  0.98277  0.02385  Biso   1.000  Cu
  Cu18     1.0000 0.02432  0.32443  0.52777  Biso   1.000  Cu
  Cu19     1.0000 0.51217  0.97286  0.37547  Biso   1.000  Cu
  Cu20     1.0000 0.16070  0.49421  0.53428  Biso   1.000  Cu
  Cu21     1.0000 0.00293  0.83168  0.02232  Biso   1.000  Cu
  Cu22     1.0000 0.00998  0.97878  0.18005  Biso   1.000  Cu
  Cu23     1.0000 0.66147  0.48805  0.02712  Biso   1.000  Cu
  Cu24     1.0000 0.49270  0.82362  0.53241  Biso   1.000  Cu
  Cu25     1.0000 0.22109  0.97880  0.03327  Biso   1.000  Cu
  Cu26     1.0000 0.01917  0.19029  0.02738  Biso   1.000  Cu
  Cu27     1.0000 0.00853  0.97639  0.23403  Biso   1.000  Cu
  Cu28     1.0000 0.71660  0.96040  0.52248  Biso   1.000  Cu
  Cu29     1.0000 0.52576  0.18409  0.51904  Biso   1.000  Cu
  Cu30     1.0000 0.51207  0.97010  0.32057  Biso   1.000  Cu
  Cu31     1.0000 0.30191  0.47616  0.03578  Biso   1.000  Cu
  Cu32     1.0000 0.50209  0.68620  0.03932  Biso   1.000  Cu
  Cu33     1.0000 0.51414  0.46885  0.23764  Biso   1.000  Cu
  Cu34     1.0000 0.79668  0.45751  0.52280  Biso   1.000  Cu
  Cu35     1.0000 0.98712  0.68829  0.52219  Biso   1.000  Cu
  Cu36     1.0000 0.01079  0.47774  0.32052  Biso   1.000  Cu
  Cu37     1.0000 0.80420  0.98980  0.02167  Biso   1.000  Cu
  Cu38     1.0000 0.00187  0.77912  0.02359  Biso   1.000  Cu
  Cu39     1.0000 0.01786  0.98664  0.81533  Biso   1.000  Cu
  Cu40     1.0000 0.29885  0.99397  0.52557  Biso   1.000  Cu
  Cu41     1.0000 0.48921  0.77016  0.53605  Biso   1.000  Cu
  Cu42     1.0000 0.51380  0.98706  0.73210  Biso   1.000  Cu
  Cu43     1.0000 0.71527  0.48775  0.02552  Biso   1.000  Cu
  Cu44     1.0000 0.52115  0.27542  0.01963  Biso   1.000  Cu
  Cu45     1.0000 0.49925  0.49046  0.82048  Biso   1.000  Cu
  Cu46     1.0000 0.21336  0.49746  0.53417  Biso   1.000  Cu
  Cu47     1.0000 0.03059  0.27176  0.53238  Biso   1.000  Cu
  Cu48     1.0000 0.99904  0.48795  0.73180  Biso   1.000  Cu
  H1       1.0000 0.22875  0.78888  0.55867  Biso   1.000  H
  H2       1.0000 0.54147  0.28370  0.75148  Biso   1.000  H
  H3       1.0000 0.74539  0.51683  0.30941  Biso   1.000  H
  H4       1.0000 0.74745  0.76583  0.97930  Biso   1.000  H
  H5       1.0000 0.99925  0.22151  0.74059  Biso   1.000  H
  H6       1.0000 0.29632  0.50331  0.29842  Biso   1.000  H
  H7       1.0000 0.23489  0.23475  0.56705  Biso   1.000  H
  H8       1.0000 0.98060  0.78179  0.75680  Biso   1.000  H
  H9       1.0000 0.72044  0.02884  0.26547  Biso   1.000  H
  H10      1.0000 0.78182  0.27871  0.05615  Biso   1.000  H
  H11      1.0000 0.46381  0.73577  0.76361  Biso   1.000  H
  H12      1.0000 0.26819  0.02924  0.24367  Biso   1.000  H
  H13      1.0000 0.74287  0.22448  0.48616  Biso   1.000  H
  H14      1.0000 0.52648  0.74010  0.23976  Biso   1.000  H
  H15      1.0000 0.26021  0.45232  0.74931  Biso   1.000  H
  H16      1.0000 0.28655  0.18579  0.05012  Biso   1.000  H
  H17      1.0000 0.02028  0.73979  0.32000  Biso   1.000  H
  H18      1.0000 0.70536  0.45157  0.76092  Biso   1.000  H
  H19      1.0000 0.77308  0.72615  0.48805  Biso   1.000  H
  H20      1.0000 0.03280  0.24199  0.23392  Biso   1.000  H
  H21      1.0000 0.26156  0.03875  0.75038  Biso   1.000  H
  H22      1.0000 0.23703  0.68764  0.08083  Biso   1.000  H
  H23      1.0000 0.51534  0.17775  0.25272  Biso   1.000  H
  H24      1.0000 0.80704  0.93978  0.76256  Biso   1.000  H
  H25      1.0000 0.27518  0.03136  0.81807  Biso   1.000  H
  H26      1.0000 0.79865  0.24412  0.07504  Biso   1.000  H
  H27      1.0000 0.02490  0.70905  0.23174  Biso   1.000  H
  H28      1.0000 0.77211  0.93050  0.73802  Biso   1.000  H
  H29      1.0000 0.25860  0.20851  0.51704  Biso   1.000  H
  H30      1.0000 0.48510  0.76514  0.26646  Biso   1.000  H
  H31      1.0000 0.28615  0.50919  0.76755  Biso   1.000  H
  H32      1.0000 0.76581  0.69197  0.04134  Biso   1.000  H
  H33      1.0000 0.46048  0.25366  0.27581  Biso   1.000  H
  H34      1.0000 0.72864  0.49973  0.72799  Biso   1.000  H
  H35      1.0000 0.19992  0.76215  0.49760  Biso   1.000  H
  H36      1.0000 0.98736  0.21202  0.32243  Biso   1.000  H
  H37      1.0000 0.73873  0.98133  0.23108  Biso   1.000  H
  H38      1.0000 0.22010  0.71361  0.01872  Biso   1.000  H
  H39      1.0000 0.97706  0.24474  0.80748  Biso   1.000  H
  H40      1.0000 0.24493  0.97652  0.32024  Biso   1.000  H
  H41      1.0000 0.75644  0.74818  0.53535  Biso   1.000  H
  H42      1.0000 0.48012  0.20551  0.77651  Biso   1.000  H
  H43      1.0000 0.72996  0.44790  0.28268  Biso   1.000  H
  H44      1.0000 0.26220  0.26076  0.98940  Biso   1.000  H
  H45      1.0000 0.53437  0.70594  0.77761  Biso   1.000  H
  H46      1.0000 0.27772  0.44922  0.32739  Biso   1.000  H
  H47      1.0000 0.75846  0.25517  0.53708  Biso   1.000  H
  H48      1.0000 0.04730  0.70658  0.78008  Biso   1.000  H
  H49      1.0000 0.21491  0.49481  0.27045  Biso   1.000  H
  H50      1.0000 0.32606  0.25897  0.55961  Biso   1.000  H
  H51      1.0000 0.53100  0.20973  0.23438  Biso   1.000  H
  H52      1.0000 0.76687  0.52387  0.24258  Biso   1.000  H
  H53      1.0000 0.76188  0.19686  0.00176  Biso   1.000  H
  H54      1.0000 0.02763  0.27378  0.26066  Biso   1.000  H
  H55      1.0000 0.30691  0.00236  0.25624  Biso   1.000  H
  H56      1.0000 0.24838  0.71503  0.55786  Biso   1.000  H
  H57      1.0000 0.98495  0.76579  0.28839  Biso   1.000  H
  H58      1.0000 0.80272  0.01487  0.28835  Biso   1.000  H
  H59      1.0000 0.70703  0.75198  0.99709  Biso   1.000  H
  H60      1.0000 0.52555  0.70402  0.32853  Biso   1.000  H
  H61      1.0000 0.79145  0.45820  0.78747  Biso   1.000  H
  H62      1.0000 0.69107  0.69644  0.50138  Biso   1.000  H
  H63      1.0000 0.47395  0.75655  0.83059  Biso   1.000  H
  H64      1.0000 0.24069  0.45391  0.82422  Biso   1.000  H
  H65      1.0000 0.26404  0.76541  0.07586  Biso   1.000  H
  H66      1.0000 0.96879  0.74258  0.73642  Biso   1.000  H
  H67      1.0000 0.72951  0.00526  0.77848  Biso   1.000  H
  H68      1.0000 0.82178  0.19474  0.49676  Biso   1.000  H
  H69      1.0000 0.05039  0.20237  0.77085  Biso   1.000  H
  H70      1.0000 0.23534  0.96176  0.77144  Biso   1.000  H
  H71      1.0000 0.30467  0.22435  0.06471  Biso   1.000  H
  H72      1.0000 0.54908  0.24832  0.72913  Biso   1.000  H
  H73      1.0000 0.76462  0.50421  0.81184  Biso   1.000  H
  H74      1.0000 0.72091  0.66658  0.54283  Biso   1.000  H
  H75      1.0000 0.54484  0.77644  0.79010  Biso   1.000  H
  H76      1.0000 0.21205  0.50905  0.79906  Biso   1.000  H
  H77      1.0000 0.29359  0.73741  0.02214  Biso   1.000  H
  H78      1.0000 0.03165  0.72325  0.81537  Biso   1.000  H
  H79      1.0000 0.75464  0.99983  0.81107  Biso   1.000  H
  H80      1.0000 0.79193  0.17510  0.54723  Biso   1.000  H
  H81      1.0000 0.03577  0.28223  0.79527  Biso   1.000  H
  H82      1.0000 0.29635  0.95904  0.78469  Biso   1.000  H
  H83      1.0000 0.22559  0.24381  0.00798  Biso   1.000  H
  H84      1.0000 0.49472  0.22635  0.81154  Biso   1.000  H
  H85      1.0000 0.24899  0.44276  0.24567  Biso   1.000  H
  H86      1.0000 0.29614  0.28788  0.51779  Biso   1.000  H
  H87      1.0000 0.47901  0.23758  0.31531  Biso   1.000  H
  H88      1.0000 0.79919  0.46050  0.26192  Biso   1.000  H
  H89      1.0000 0.72902  0.21896  0.01178  Biso   1.000  H
  H90      1.0000 0.97855  0.18822  0.29007  Biso   1.000  H
  H91      1.0000 0.22624  0.95798  0.28743  Biso   1.000  H
  H92      1.0000 0.26843  0.73886  0.48982  Biso   1.000  H
  H93      1.0000 0.98083  0.68391  0.25691  Biso   1.000  H
  H94      1.0000 0.77466  0.96200  0.30454  Biso   1.000  H
  H95      1.0000 0.78268  0.73033  0.05726  Biso   1.000  H
  H96      1.0000 0.47962  0.68345  0.30004  Biso   1.000  H
  H97      1.0000 0.88238  0.98980  0.93337  Biso   1.000  H
  H98      1.0000 0.90918  0.85267  0.01907  Biso   1.000  H
  H99      1.0000 0.01415  0.89117  0.89220  Biso   1.000  H
  H100     1.0000 0.37155  0.97815  0.61701  Biso   1.000  H
  H101     1.0000 0.40634  0.85010  0.53008  Biso   1.000  H
  H102     1.0000 0.50769  0.89626  0.66601  Biso   1.000  H
  H103     1.0000 0.63493  0.48556  0.93755  Biso   1.000  H
  H104     1.0000 0.60346  0.35054  0.03402  Biso   1.000  H
  H105     1.0000 0.51275  0.39776  0.88956  Biso   1.000  H
  H106     1.0000 0.13691  0.48534  0.62330  Biso   1.000  H
  H107     1.0000 0.11195  0.35247  0.52147  Biso   1.000  H
  H108     1.0000 0.01238  0.39628  0.65843  Biso   1.000  H
  H109     1.0000 0.14273  0.98527  0.11914  Biso   1.000  H
  H110     1.0000 0.10866  0.11285  0.03179  Biso   1.000  H
  H111     1.0000 0.00415  0.06946  0.16174  Biso   1.000  H
  H112     1.0000 0.64584  0.97517  0.43533  Biso   1.000  H
  H113     1.0000 0.61592  0.10550  0.51664  Biso   1.000  H
  H114     1.0000 0.51010  0.06339  0.38946  Biso   1.000  H
  H115     1.0000 0.37641  0.46437  0.12843  Biso   1.000  H
  H116     1.0000 0.41430  0.61079  0.05880  Biso   1.000  H
  H117     1.0000 0.52052  0.56037  0.16880  Biso   1.000  H
  H118     1.0000 0.87691  0.47393  0.43254  Biso   1.000  H
  H119     1.0000 0.89844  0.60038  0.52297  Biso   1.000  H
  H120     1.0000 0.99490  0.56704  0.39140  Biso   1.000  H
  H121     1.0000 0.10970  0.98062  0.89734  Biso   1.000  H
  H122     1.0000 0.88483  0.07900  0.03182  Biso   1.000  H
  H123     1.0000 0.00573  0.84784  0.11289  Biso   1.000  H
  H124     1.0000 0.60549  0.98679  0.65851  Biso   1.000  H
  H125     1.0000 0.38056  0.08043  0.52611  Biso   1.000  H
  H126     1.0000 0.51131  0.83882  0.44248  Biso   1.000  H
  H127     1.0000 0.40959  0.49156  0.89678  Biso   1.000  H
  H128     1.0000 0.63389  0.57427  0.01469  Biso   1.000  H
  H129     1.0000 0.50820  0.34455  0.11312  Biso   1.000  H
  H130     1.0000 0.90839  0.48757  0.65531  Biso   1.000  H
  H131     1.0000 0.13330  0.58369  0.52076  Biso   1.000  H
  H132     1.0000 0.00979  0.34253  0.43704  Biso   1.000  H
  H133     1.0000 0.91717  0.97037  0.15699  Biso   1.000  H
  H134     1.0000 0.14282  0.88962  0.03419  Biso   1.000  H
  H135     1.0000 0.02121  0.11688  0.93680  Biso   1.000  H
  H136     1.0000 0.41764  0.96475  0.39776  Biso   1.000  H
  H137     1.0000 0.63256  0.87979  0.52747  Biso   1.000  H
  H138     1.0000 0.52026  0.11948  0.61255  Biso   1.000  H
  H139     1.0000 0.59982  0.47380  0.16005  Biso   1.000  H
  H140     1.0000 0.38625  0.38893  0.02109  Biso   1.000  H
  H141     1.0000 0.48197  0.61771  0.94318  Biso   1.000  H
  H142     1.0000 0.09990  0.47983  0.39747  Biso   1.000  H
  H143     1.0000 0.88315  0.37662  0.53120  Biso   1.000  H
  H144     1.0000 0.00155  0.61905  0.61697  Biso   1.000  H
  H145     1.0000 0.59166  0.49223  0.89431  Biso   1.000  H
  H146     1.0000 0.85902  0.55437  0.52458  Biso   1.000  H
  H147     1.0000 0.49611  0.84903  0.62244  Biso   1.000  H
  H148     1.0000 0.09245  0.48610  0.66438  Biso   1.000  H
  H149     1.0000 0.36851  0.56601  0.06173  Biso   1.000  H
  H150     1.0000 0.00539  0.85198  0.93380  Biso   1.000  H
  H151     1.0000 0.92502  0.99225  0.88779  Biso   1.000  H
  H152     1.0000 0.65418  0.05940  0.52201  Biso   1.000  H
  H153     1.0000 0.02475  0.35286  0.61814  Biso   1.000  H
  H154     1.0000 0.41803  0.98236  0.65976  Biso   1.000  H
  H155     1.0000 0.14984  0.07261  0.02429  Biso   1.000  H
  H156     1.0000 0.52136  0.35208  0.92853  Biso   1.000  H
  H157     1.0000 0.41704  0.46674  0.16732  Biso   1.000  H
  H158     1.0000 0.15072  0.39971  0.52434  Biso   1.000  H
  H159     1.0000 0.50544  0.10554  0.43038  Biso   1.000  H
  H160     1.0000 0.91658  0.48072  0.39357  Biso   1.000  H
  H161     1.0000 0.64330  0.39528  0.03463  Biso   1.000  H
  H162     1.0000 0.01307  0.11374  0.11792  Biso   1.000  H
  H163     1.0000 0.10207  0.98213  0.16184  Biso   1.000  H
  H164     1.0000 0.36792  0.89657  0.52932  Biso   1.000  H
  H165     1.0000 0.98665  0.60326  0.43482  Biso   1.000  H
  H166     1.0000 0.60775  0.98052  0.39348  Biso   1.000  H
  H167     1.0000 0.87055  0.89496  0.01597  Biso   1.000  H
  H168     1.0000 0.51148  0.60854  0.12684  Biso   1.000  H
  H169     1.0000 0.01919  0.07411  0.89376  Biso   1.000  H
  H170     1.0000 0.87437  0.97129  0.11622  Biso   1.000  H
  H171     1.0000 0.09785  0.85024  0.03330  Biso   1.000  H
  H172     1.0000 0.51982  0.07801  0.65236  Biso   1.000  H
  H173     1.0000 0.37947  0.98707  0.43580  Biso   1.000  H
  H174     1.0000 0.58532  0.83795  0.54062  Biso   1.000  H
  H175     1.0000 0.48683  0.57555  0.89998  Biso   1.000  H
  H176     1.0000 0.64461  0.48650  0.11477  Biso   1.000  H
  H177     1.0000 0.42673  0.34856  0.02784  Biso   1.000  H
  H178     1.0000 0.99982  0.57881  0.65896  Biso   1.000  H
  H179     1.0000 0.14103  0.48321  0.44191  Biso   1.000  H
  H180     1.0000 0.92998  0.33680  0.53559  Biso   1.000  H
  H181     1.0000 0.02533  0.88905  0.15751  Biso   1.000  H
  H182     1.0000 0.15024  0.97286  0.94011  Biso   1.000  H
  H183     1.0000 0.92399  0.11602  0.02952  Biso   1.000  H
  H184     1.0000 0.51577  0.88209  0.40159  Biso   1.000  H
  H185     1.0000 0.64368  0.96793  0.61575  Biso   1.000  H
  H186     1.0000 0.42935  0.11861  0.53201  Biso   1.000  H
  H187     1.0000 0.50247  0.38656  0.15530  Biso   1.000  H
  H188     1.0000 0.37387  0.49144  0.93744  Biso   1.000  H
  H189     1.0000 0.59282  0.61321  0.02516  Biso   1.000  H
  H190     1.0000 0.00167  0.38515  0.39869  Biso   1.000  H
  H191     1.0000 0.86739  0.47594  0.61431  Biso   1.000  H
  H192     1.0000 0.08409  0.62414  0.52923  Biso   1.000  H
  H193     1.0000 0.26687  0.85502  0.51982  Biso   1.000  H
  H194     1.0000 0.53485  0.26031  0.87395  Biso   1.000  H
  H195     1.0000 0.86654  0.49585  0.29374  Biso   1.000  H
  H196     1.0000 0.77258  0.84215  0.02254  Biso   1.000  H
  H197     1.0000 0.03948  0.26177  0.67800  Biso   1.000  H
  H198     1.0000 0.36885  0.47858  0.26510  Biso   1.000  H
  H199     1.0000 0.25057  0.35511  0.54753  Biso   1.000  H
  H200     1.0000 0.99316  0.75728  0.87967  Biso   1.000  H
  H201     1.0000 0.65226  0.99145  0.29324  Biso   1.000  H
  H202     1.0000 0.74262  0.34725  0.02587  Biso   1.000  H
  H203     1.0000 0.48383  0.75862  0.68281  Biso   1.000  H
  H204     1.0000 0.15353  0.99064  0.25967  Biso   1.000  H
  H205     1.0000 0.75404  0.09935  0.51869  Biso   1.000  H
  H206     1.0000 0.50633  0.70184  0.18402  Biso   1.000  H
  H207     1.0000 0.14131  0.48537  0.76394  Biso   1.000  H
  H208     1.0000 0.24622  0.12431  0.01673  Biso   1.000  H
  H209     1.0000 0.97370  0.70153  0.37949  Biso   1.000  H
  H210     1.0000 0.64134  0.48381  0.79697  Biso   1.000  H
  H211     1.0000 0.75962  0.60148  0.52037  Biso   1.000  H
  H212     1.0000 0.99626  0.20756  0.17368  Biso   1.000  H
  H213     1.0000 0.37025  0.99607  0.75489  Biso   1.000  H
  H214     1.0000 0.27297  0.62138  0.05527  Biso   1.000  H
  H215     1.0000 0.51052  0.20184  0.37583  Biso   1.000  H
  H216     1.0000 0.87616  0.97391  0.79156  Biso   1.000  H
  H217     1.0000 0.23895  0.47329  0.39383  Biso   1.000  H
  H218     1.0000 0.38504  0.21809  0.52096  Biso   1.000  H
  H219     1.0000 0.48702  0.32527  0.24982  Biso   1.000  H
  H220     1.0000 0.74184  0.49484  0.17296  Biso   1.000  H
  H221     1.0000 0.86821  0.21145  0.04776  Biso   1.000  H
  H222     1.0000 0.99399  0.33659  0.29979  Biso   1.000  H
  H223     1.0000 0.28550  0.00156  0.38115  Biso   1.000  H
  H224     1.0000 0.12745  0.72353  0.51821  Biso   1.000  H
  H225     1.0000 0.02438  0.83162  0.25188  Biso   1.000  H
  H226     1.0000 0.78309  0.00419  0.16748  Biso   1.000  H
  H227     1.0000 0.64300  0.71378  0.03387  Biso   1.000  H
  H228     1.0000 0.52960  0.82897  0.30600  Biso   1.000  H
  H229     1.0000 0.77164  0.46024  0.66738  Biso   1.000  H
  H230     1.0000 0.62862  0.73618  0.53794  Biso   1.000  H
  H231     1.0000 0.50096  0.63486  0.80472  Biso   1.000  H
  H232     1.0000 0.27306  0.49674  0.89433  Biso   1.000  H
  H233     1.0000 0.14865  0.75193  0.03334  Biso   1.000  H
  H234     1.0000 0.01643  0.63150  0.75324  Biso   1.000  H
  H235     1.0000 0.74078  0.96342  0.66876  Biso   1.000  H
  H236     1.0000 0.88755  0.23694  0.52855  Biso   1.000  H
  H237     1.0000 0.00548  0.12771  0.79658  Biso   1.000  H
  H238     1.0000 0.24823  0.99340  0.88919  Biso   1.000  H
  H239     1.0000 0.37492  0.25129  0.02693  Biso   1.000  H
  H240     1.0000 0.50395  0.13313  0.74854  Biso   1.000  H
  H241     1.0000 0.72736  0.46895  0.87840  Biso   1.000  H
  H242     1.0000 0.84116  0.69474  0.51885  Biso   1.000  H
  H243     1.0000 0.50733  0.84224  0.76349  Biso   1.000  H
  H244     1.0000 0.22880  0.49030  0.67983  Biso   1.000  H
  H245     1.0000 0.35708  0.70554  0.06821  Biso   1.000  H
  H246     1.0000 0.00604  0.84311  0.79292  Biso   1.000  H
  H247     1.0000 0.78670  0.97589  0.87904  Biso   1.000  H
  H248     1.0000 0.67416  0.19895  0.51960  Biso   1.000  H
  H249     1.0000 0.00046  0.34608  0.75635  Biso   1.000  H
  H250     1.0000 0.28090  0.00436  0.67759  Biso   1.000  H
  H251     1.0000 0.16030  0.20883  0.04552  Biso   1.000  H
  H252     1.0000 0.51164  0.35022  0.78860  Biso   1.000  H
  H253     1.0000 0.28063  0.48134  0.17790  Biso   1.000  H
  H254     1.0000 0.17579  0.26197  0.52627  Biso   1.000  H
  H255     1.0000 0.47508  0.11668  0.29726  Biso   1.000  H
  H256     1.0000 0.77815  0.48173  0.38282  Biso   1.000  H
  H257     1.0000 0.66230  0.25750  0.04862  Biso   1.000  H
  H258     1.0000 0.01065  0.12513  0.25817  Biso   1.000  H
  H259     1.0000 0.23907  0.00162  0.17062  Biso   1.000  H
  H260     1.0000 0.34043  0.75887  0.52645  Biso   1.000  H
  H261     1.0000 0.00710  0.62240  0.29604  Biso   1.000  H
  H262     1.0000 0.74369  0.98695  0.38309  Biso   1.000  H
  H263     1.0000 0.85442  0.75676  0.01826  Biso   1.000  H
  H264     1.0000 0.51998  0.61047  0.26791  Biso   1.000  H
  H265     1.0000 0.00987  0.21308  0.88350  Biso   1.000  H
  H266     1.0000 0.86886  0.98640  0.25345  Biso   1.000  H
  H267     1.0000 0.23773  0.83057  0.03825  Biso   1.000  H
  H268     1.0000 0.52329  0.21793  0.66126  Biso   1.000  H
  H269     1.0000 0.36823  0.96545  0.29811  Biso   1.000  H
  H270     1.0000 0.72094  0.81547  0.51100  Biso   1.000  H
  H271     1.0000 0.50494  0.71442  0.89734  Biso   1.000  H
  H272     1.0000 0.65950  0.46944  0.25408  Biso   1.000  H
  H273     1.0000 0.28840  0.33742  0.01639  Biso   1.000  H
  H274     1.0000 0.00400  0.71688  0.66830  Biso   1.000  H
  H275     1.0000 0.15769  0.45575  0.30628  Biso   1.000  H
  H276     1.0000 0.79692  0.31357  0.50108  Biso   1.000  H
  H277     1.0000 0.99233  0.75370  0.16890  Biso   1.000  H
  H278     1.0000 0.16885  0.99910  0.80339  Biso   1.000  H
  H279     1.0000 0.78525  0.12901  0.04789  Biso   1.000  H
  H280     1.0000 0.50564  0.74226  0.39337  Biso   1.000  H
  H281     1.0000 0.65817  0.96792  0.75509  Biso   1.000  H
  H282     1.0000 0.28954  0.14309  0.53153  Biso   1.000  H
  H283     1.0000 0.50115  0.24744  0.16373  Biso   1.000  H
  H284     1.0000 0.35029  0.47846  0.80259  Biso   1.000  H
  H285     1.0000 0.72844  0.63035  0.00159  Biso   1.000  H
  H286     1.0000 0.02489  0.24776  0.38423  Biso   1.000  H
  H287     1.0000 0.85142  0.49675  0.75087  Biso   1.000  H
  H288     1.0000 0.22225  0.64490  0.52381  Biso   1.000  H
  H289     1.0000 0.10724  0.20327  0.05158  Biso   1.000  H
  H290     1.0000 0.99968  0.06968  0.25876  Biso   1.000  H
  H291     1.0000 0.23797  0.99661  0.12129  Biso   1.000  H
  H292     1.0000 0.62006  0.19983  0.51934  Biso   1.000  H
  H293     1.0000 0.47744  0.05913  0.29810  Biso   1.000  H
  H294     1.0000 0.74197  0.97500  0.43468  Biso   1.000  H
  H295     1.0000 0.41317  0.70668  0.06626  Biso   1.000  H
  H296     1.0000 0.51938  0.55858  0.26512  Biso   1.000  H
  H297     1.0000 0.27974  0.47384  0.12455  Biso   1.000  H
  H298     1.0000 0.89446  0.69746  0.52210  Biso   1.000  H
  H299     1.0000 0.02277  0.56849  0.29741  Biso   1.000  H
  H300     1.0000 0.78001  0.46719  0.43422  Biso   1.000  H
  H301     1.0000 0.91105  0.75484  0.02018  Biso   1.000  H
  H302     1.0000 0.01347  0.89921  0.79502  Biso   1.000  H
  H303     1.0000 0.78718  0.98283  0.93372  Biso   1.000  H
  H304     1.0000 0.39953  0.75507  0.52948  Biso   1.000  H
  H305     1.0000 0.51092  0.89626  0.76087  Biso   1.000  H
  H306     1.0000 0.27686  0.99736  0.62152  Biso   1.000  H
  H307     1.0000 0.60903  0.25378  0.04210  Biso   1.000  H
  H308     1.0000 0.50660  0.40241  0.79316  Biso   1.000  H
  H309     1.0000 0.72857  0.47586  0.93529  Biso   1.000  H
  H310     1.0000 0.12272  0.25870  0.52049  Biso   1.000  H
  H311     1.0000 0.99614  0.39926  0.75174  Biso   1.000  H
  H312     1.0000 0.23227  0.49289  0.62680  Biso   1.000  H
  H313     1.0000 0.24602  0.98362  0.94106  Biso   1.000  H
  H314     1.0000 0.92703  0.21288  0.04322  Biso   1.000  H
  H315     1.0000 0.03192  0.88779  0.25183  Biso   1.000  H
  H316     1.0000 0.74000  0.96106  0.61281  Biso   1.000  H
  H317     1.0000 0.43603  0.21265  0.51244  Biso   1.000  H
  H318     1.0000 0.53686  0.88240  0.30942  Biso   1.000  H
  H319     1.0000 0.27909  0.50368  0.94812  Biso   1.000  H
  H320     1.0000 0.58795  0.70923  0.04028  Biso   1.000  H
  H321     1.0000 0.49107  0.38090  0.25154  Biso   1.000  H
  H322     1.0000 0.77517  0.45179  0.61252  Biso   1.000  H
  H323     1.0000 0.07693  0.71674  0.51050  Biso   1.000  H
  H324     1.0000 0.99019  0.39044  0.30457  Biso   1.000  H
  H325     1.0000 0.78036  0.99626  0.11418  Biso   1.000  H
  H326     1.0000 0.08875  0.75380  0.03089  Biso   1.000  H
  H327     1.0000 0.01298  0.06905  0.79957  Biso   1.000  H
  H328     1.0000 0.28528  0.00016  0.43560  Biso   1.000  H
  H329     1.0000 0.57857  0.74577  0.54861  Biso   1.000  H
  H330     1.0000 0.50101  0.07625  0.74929  Biso   1.000  H
  H331     1.0000 0.73895  0.49976  0.11646  Biso   1.000  H
  H332     1.0000 0.42968  0.25341  0.02378  Biso   1.000  H
  H333     1.0000 0.49810  0.58404  0.80418  Biso   1.000  H
  H334     1.0000 0.23622  0.48780  0.44627  Biso   1.000  H
  H335     1.0000 0.93935  0.24051  0.53684  Biso   1.000  H
  H336     1.0000 0.01156  0.57735  0.75668  Biso   1.000  H
  H337     1.0000 0.01470  0.21239  0.93532  Biso   1.000  H
  H338     1.0000 0.91941  0.97415  0.25227  Biso   1.000  H
  H339     1.0000 0.23728  0.88462  0.03900  Biso   1.000  H
  H340     1.0000 0.52901  0.21592  0.60878  Biso   1.000  H
  H341     1.0000 0.42138  0.95710  0.30096  Biso   1.000  H
  H342     1.0000 0.72449  0.87059  0.50968  Biso   1.000  H
  H343     1.0000 0.50945  0.70575  0.95052  Biso   1.000  H
  H344     1.0000 0.60331  0.45974  0.25508  Biso   1.000  H
  H345     1.0000 0.29020  0.39034  0.01219  Biso   1.000  H
  H346     1.0000 0.00282  0.71658  0.61377  Biso   1.000  H
  H347     1.0000 0.10196  0.45460  0.30631  Biso   1.000  H
  H348     1.0000 0.79235  0.36519  0.49947  Biso   1.000  H
  H349     1.0000 0.99379  0.75395  0.11128  Biso   1.000  H
  H350     1.0000 0.11028  0.99075  0.79941  Biso   1.000  H
  H351     1.0000 0.78605  0.07690  0.04138  Biso   1.000  H
  H352     1.0000 0.50342  0.74210  0.44330  Biso   1.000  H
  H353     1.0000 0.60494  0.98416  0.75256  Biso   1.000  H
  H354     1.0000 0.28331  0.09040  0.53716  Biso   1.000  H
  H355     1.0000 0.50828  0.24876  0.10879  Biso   1.000  H
  H356     1.0000 0.40582  0.47104  0.80354  Biso   1.000  H
  H357     1.0000 0.72991  0.57754  0.00241  Biso   1.000  H
  H358     1.0000 0.03410  0.24968  0.43809  Biso   1.000  H
  H359     1.0000 0.90357  0.50599  0.74956  Biso   1.000  H
  H360     1.0000 0.22793  0.59273  0.53392  Biso   1.000  H
  H361     1.0000 0.96367  0.69705  0.43169  Biso   1.000  H
  H362     1.0000 0.42300  0.99297  0.75535  Biso   1.000  H
  H363     1.0000 0.73896  0.39867  0.03049  Biso   1.000  H
  H364     1.0000 0.50603  0.70415  0.12962  Biso   1.000  H
  H365     1.0000 0.92557  0.98014  0.79287  Biso   1.000  H
  H366     1.0000 0.24368  0.40951  0.55097  Biso   1.000  H
  H367     1.0000 0.51606  0.19940  0.42983  Biso   1.000  H
  H368     1.0000 0.08924  0.48826  0.76049  Biso   1.000  H
  H369     1.0000 0.77325  0.89598  0.02299  Biso   1.000  H
  H370     1.0000 0.00772  0.20964  0.11636  Biso   1.000  H
  H371     1.0000 0.59020  0.49872  0.79869  Biso   1.000  H
  H372     1.0000 0.27252  0.90560  0.52621  Biso   1.000  H
  H373     1.0000 0.04645  0.26031  0.62111  Biso   1.000  H
  H374     1.0000 0.60011  0.98161  0.29864  Biso   1.000  H
  H375     1.0000 0.27260  0.56560  0.05065  Biso   1.000  H
  H376     1.0000 0.53323  0.25701  0.92700  Biso   1.000  H
  H377     1.0000 0.09994  0.98745  0.26051  Biso   1.000  H
  H378     1.0000 0.76415  0.54828  0.52868  Biso   1.000  H
  H379     1.0000 0.47749  0.75453  0.63024  Biso   1.000  H
  H380     1.0000 0.91855  0.50168  0.29722  Biso   1.000  H
  H381     1.0000 0.24535  0.07111  0.01373  Biso   1.000  H
  H382     1.0000 0.99974  0.75420  0.93110  Biso   1.000  H
  H383     1.0000 0.42267  0.47151  0.26447  Biso   1.000  H
  H384     1.0000 0.75072  0.04948  0.51928  Biso   1.000  H
  H385     1.0000 0.24333  0.44418  0.36204  Biso   1.000  H
  H386     1.0000 0.29368  0.17508  0.50266  Biso   1.000  H
  H387     1.0000 0.46091  0.29311  0.24284  Biso   1.000  H
  H388     1.0000 0.69430  0.44564  0.24654  Biso   1.000  H
  H389     1.0000 0.83417  0.20759  0.08036  Biso   1.000  H
  H390     1.0000 0.98843  0.24502  0.35871  Biso   1.000  H
  H391     1.0000 0.28222  0.96633  0.35717  Biso   1.000  H
  H392     1.0000 0.16381  0.72322  0.49118  Biso   1.000  H
  H393     1.0000 0.03410  0.74738  0.19541  Biso   1.000  H
  H394     1.0000 0.77674  0.97401  0.19340  Biso   1.000  H
  H395     1.0000 0.72791  0.65509  0.04315  Biso   1.000  H
  H396     1.0000 0.49018  0.80523  0.30440  Biso   1.000  H
  H397     1.0000 0.76798  0.50174  0.69024  Biso   1.000  H
  H398     1.0000 0.72340  0.78943  0.54334  Biso   1.000  H
  H399     1.0000 0.52812  0.66340  0.81125  Biso   1.000  H
  H400     1.0000 0.32374  0.51664  0.80556  Biso   1.000  H
  H401     1.0000 0.18427  0.75238  0.00453  Biso   1.000  H
  H402     1.0000 0.04782  0.66743  0.74426  Biso   1.000  H
  H403     1.0000 0.73177  0.92474  0.70503  Biso   1.000  H
  H404     1.0000 0.79439  0.29148  0.54125  Biso   1.000  H
  H405     1.0000 0.97211  0.20620  0.84881  Biso   1.000  H
  H406     1.0000 0.24261  0.02805  0.85582  Biso   1.000  H
  H407     1.0000 0.30049  0.30027  0.98762  Biso   1.000  H
  H408     1.0000 0.48066  0.16551  0.74071  Biso   1.000  H
  H409     1.0000 0.28638  0.44452  0.20955  Biso   1.000  H
  H410     1.0000 0.26208  0.32680  0.51157  Biso   1.000  H
  H411     1.0000 0.47480  0.20296  0.34990  Biso   1.000  H
  H412     1.0000 0.83887  0.46008  0.29620  Biso   1.000  H
  H413     1.0000 0.68840  0.25866  0.00647  Biso   1.000  H
  H414     1.0000 0.97224  0.15393  0.25311  Biso   1.000  H
  H415     1.0000 0.18568  0.95969  0.25137  Biso   1.000  H
  H416     1.0000 0.31205  0.77055  0.48956  Biso   1.000  H
  H417     1.0000 0.97188  0.64724  0.29296  Biso   1.000  H
  H418     1.0000 0.74064  0.95664  0.34438  Biso   1.000  H
  H419     1.0000 0.82277  0.76542  0.05705  Biso   1.000  H
  H420     1.0000 0.48534  0.64146  0.26597  Biso   1.000  H
  H421     1.0000 0.73218  0.50681  0.84939  Biso   1.000  H
  H422     1.0000 0.76284  0.63557  0.55007  Biso   1.000  H
  H423     1.0000 0.54316  0.80884  0.74797  Biso   1.000  H
  H424     1.0000 0.17693  0.51858  0.76198  Biso   1.000  H
  H425     1.0000 0.33176  0.70077  0.02747  Biso   1.000  H
  H426     1.0000 0.03126  0.76113  0.85339  Biso   1.000  H
  H427     1.0000 0.79173  0.00617  0.84345  Biso   1.000  H
  H428     1.0000 0.75399  0.13910  0.55185  Biso   1.000  H
  H429     1.0000 0.03108  0.32086  0.76002  Biso   1.000  H
  H430     1.0000 0.33413  0.95680  0.74520  Biso   1.000  H
  H431     1.0000 0.19119  0.20831  0.00280  Biso   1.000  H
  H432     1.0000 0.49638  0.26426  0.84858  Biso   1.000  H
  H433     1.0000 0.29995  0.03913  0.71095  Biso   1.000  H
  H434     1.0000 0.74403  0.31512  0.05792  Biso   1.000  H
  H435     1.0000 0.01370  0.70226  0.35674  Biso   1.000  H
  H436     1.0000 0.84625  0.94464  0.79582  Biso   1.000  H
  H437     1.0000 0.19872  0.26916  0.56269  Biso   1.000  H
  H438     1.0000 0.54273  0.70032  0.21216  Biso   1.000  H
  H439     1.0000 0.22299  0.45252  0.70963  Biso   1.000  H
  H440     1.0000 0.78160  0.80336  0.97767  Biso   1.000  H
  H441     1.0000 0.51970  0.14005  0.29150  Biso   1.000  H
  H442     1.0000 0.66962  0.45246  0.79902  Biso   1.000  H
  H443     1.0000 0.27199  0.82133  0.56077  Biso   1.000  H
  H444     1.0000 0.03234  0.20713  0.19953  Biso   1.000  H
  H445     1.0000 0.68356  0.02363  0.29716  Biso   1.000  H
  H446     1.0000 0.27436  0.65148  0.08712  Biso   1.000  H
  H447     1.0000 0.99634  0.25813  0.69946  Biso   1.000  H
  H448     1.0000 0.23150  0.03063  0.20518  Biso   1.000  H
  H449     1.0000 0.81450  0.68691  0.49238  Biso   1.000  H
  H450     1.0000 0.54445  0.31884  0.78433  Biso   1.000  H
  H451     1.0000 0.78603  0.51565  0.35305  Biso   1.000  H
  H452     1.0000 0.25182  0.14843  0.05568  Biso   1.000  H
  H453     1.0000 0.45897  0.76772  0.72256  Biso   1.000  H
  H454     1.0000 0.33127  0.51315  0.26082  Biso   1.000  H
  H455     1.0000 0.70106  0.18912  0.48644  Biso   1.000  H
  H456     1.0000 0.97480  0.81633  0.79141  Biso   1.000  H
  H457     1.0000 0.65514  0.73642  0.50096  Biso   1.000  H
  H458     1.0000 0.47268  0.71604  0.86682  Biso   1.000  H
  H459     1.0000 0.82727  0.45781  0.75475  Biso   1.000  H
  H460     1.0000 0.23159  0.80461  0.07143  Biso   1.000  H
  H461     1.0000 0.97022  0.70688  0.70200  Biso   1.000  H
  H462     1.0000 0.27322  0.46084  0.86578  Biso   1.000  H
  H463     1.0000 0.85785  0.23330  0.50145  Biso   1.000  H
  H464     1.0000 0.04553  0.16109  0.80647  Biso   1.000  H
  H465     1.0000 0.68966  0.00284  0.74247  Biso   1.000  H
  H466     1.0000 0.34171  0.26131  0.06313  Biso   1.000  H
  H467     1.0000 0.54947  0.21282  0.69212  Biso   1.000  H
  H468     1.0000 0.19805  0.95981  0.81142  Biso   1.000  H
  H469     1.0000 0.35924  0.22067  0.55655  Biso   1.000  H
  H470     1.0000 0.53477  0.24677  0.19649  Biso   1.000  H
  H471     1.0000 0.17877  0.49287  0.30565  Biso   1.000  H
  H472     1.0000 0.80013  0.16056  0.00681  Biso   1.000  H
  H473     1.0000 0.03156  0.30742  0.29564  Biso   1.000  H
  H474     1.0000 0.72454  0.52816  0.20829  Biso   1.000  H
  H475     1.0000 0.21503  0.67278  0.55484  Biso   1.000  H
  H476     1.0000 0.98679  0.80762  0.25155  Biso   1.000  H
  H477     1.0000 0.34541  0.00123  0.29440  Biso   1.000  H
  H478     1.0000 0.66808  0.71710  0.99841  Biso   1.000  H
  H479     1.0000 0.53342  0.73883  0.36246  Biso   1.000  H
  H480     1.0000 0.84043  0.01328  0.25205  Biso   1.000  H
  N1       1.0000 0.70347  0.14138  0.52012  Biso   1.000  N
  N2       1.0000 0.51483  0.64768  0.21463  Biso   1.000  N
  N3       1.0000 0.17639  0.48613  0.71122  Biso   1.000  N
  N4       1.0000 0.19528  0.15540  0.03241  Biso   1.000  N
  N5       1.0000 0.99235  0.65045  0.34671  Biso   1.000  N
  N6       1.0000 0.67550  0.48058  0.84921  Biso   1.000  N
  N7       1.0000 0.81111  0.63858  0.51872  Biso   1.000  N
  N8       1.0000 0.00609  0.15503  0.20471  Biso   1.000  N
  N9       1.0000 0.33556  0.99629  0.70410  Biso   1.000  N
  N10      1.0000 0.32727  0.65410  0.05917  Biso   1.000  N
  N11      1.0000 0.49736  0.14748  0.34516  Biso   1.000  N
  N12      1.0000 0.84045  0.97967  0.84519  Biso   1.000  N
  N13      1.0000 0.31723  0.81583  0.52349  Biso   1.000  N
  N14      1.0000 0.52364  0.31432  0.84099  Biso   1.000  N
  N15      1.0000 0.83434  0.48631  0.34900  Biso   1.000  N
  N16      1.0000 0.82523  0.80977  0.01814  Biso   1.000  N
  N17      1.0000 0.01821  0.31324  0.70508  Biso   1.000  N
  N18      1.0000 0.33589  0.47833  0.21278  Biso   1.000  N
  N19      1.0000 0.20266  0.31777  0.53334  Biso   1.000  N
  N20      1.0000 0.00124  0.81200  0.84625  Biso   1.000  N
  N21      1.0000 0.68965  0.98834  0.34841  Biso   1.000  N
  N22      1.0000 0.69184  0.31111  0.03293  Biso   1.000  N
  N23      1.0000 0.49952  0.81041  0.71104  Biso   1.000  N
  N24      1.0000 0.18485  0.99475  0.20519  Biso   1.000  N
  N25      1.0000 0.82155  0.47849  0.69988  Biso   1.000  N
  N26      1.0000 0.66689  0.78875  0.52589  Biso   1.000  N
  N27      1.0000 0.49687  0.66526  0.86028  Biso   1.000  N
  N28      1.0000 0.32438  0.48798  0.85803  Biso   1.000  N
  N29      1.0000 0.18191  0.80331  0.03400  Biso   1.000  N
  N30      1.0000 0.00904  0.66409  0.70053  Biso   1.000  N
  N31      1.0000 0.68823  0.96643  0.69995  Biso   1.000  N
  N32      1.0000 0.84959  0.28572  0.52244  Biso   1.000  N
  N33      1.0000 0.00969  0.16017  0.84940  Biso   1.000  N
  N34      1.0000 0.19637  0.99051  0.85627  Biso   1.000  N
  N35      1.0000 0.34267  0.30403  0.02359  Biso   1.000  N
  N36      1.0000 0.51718  0.16341  0.69573  Biso   1.000  N
  N37      1.0000 0.18590  0.46949  0.35927  Biso   1.000  N
  N38      1.0000 0.34661  0.16993  0.52939  Biso   1.000  N
  N39      1.0000 0.50087  0.29769  0.19644  Biso   1.000  N
  N40      1.0000 0.68574  0.48553  0.20166  Biso   1.000  N
  N41      1.0000 0.84071  0.16051  0.04449  Biso   1.000  N
  N42      1.0000 0.00621  0.30013  0.35315  Biso   1.000  N
  N43      1.0000 0.33701  0.98217  0.35010  Biso   1.000  N
  N44      1.0000 0.16560  0.67263  0.52371  Biso   1.000  N
  N45      1.0000 0.01141  0.80146  0.19988  Biso   1.000  N
  N46      1.0000 0.83371  0.98904  0.19943  Biso   1.000  N
  N47      1.0000 0.67564  0.66133  0.01861  Biso   1.000  N
  N48      1.0000 0.51352  0.79531  0.35732  Biso   1.000  N
  O1       1.0000 0.34981  0.52205  0.04585  Biso   1.000  O
  O2       1.0000 0.02489  0.32682  0.57019  Biso   1.000  O
  O3       1.0000 0.55440  0.98270  0.37149  Biso   1.000  O
  O4       1.0000 0.84222  0.50510  0.52178  Biso   1.000  O
  O5       1.0000 0.51912  0.32794  0.97723  Biso   1.000  O
  O6       1.0000 0.05201  0.98764  0.18549  Biso   1.000  O
  O7       1.0000 0.17438  0.02317  0.02732  Biso   1.000  O
  O8       1.0000 0.48566  0.82369  0.57427  Biso   1.000  O
  O9       1.0000 0.96554  0.48311  0.36817  Biso   1.000  O
  O10      1.0000 0.67135  0.00793  0.52032  Biso   1.000  O
  O11      1.0000 0.00677  0.82725  0.98113  Biso   1.000  O
  O12      1.0000 0.46809  0.47544  0.18612  Biso   1.000  O
  O13      1.0000 0.66836  0.44740  0.03347  Biso   1.000  O
  O14      1.0000 0.98854  0.63126  0.48382  Biso   1.000  O
  O15      1.0000 0.47040  0.98615  0.68333  Biso   1.000  O
  O16      1.0000 0.16623  0.45233  0.53618  Biso   1.000  O
  O17      1.0000 0.50940  0.63259  0.07864  Biso   1.000  O
  O18      1.0000 0.97600  0.98464  0.86783  Biso   1.000  O
  O19      1.0000 0.84793  0.94242  0.02148  Biso   1.000  O
  O20      1.0000 0.51923  0.12780  0.48205  Biso   1.000  O
  O21      1.0000 0.04269  0.48315  0.68644  Biso   1.000  O
  O22      1.0000 0.34639  0.95174  0.52688  Biso   1.000  O
  O23      1.0000 0.01370  0.14071  0.06920  Biso   1.000  O
  O24      1.0000 0.54141  0.49339  0.87157  Biso   1.000  O
  O25      1.0000 0.96861  0.96903  0.18043  Biso   1.000  O
  O26      1.0000 0.16692  0.93819  0.03133  Biso   1.000  O
  O27      1.0000 0.01790  0.13883  0.98595  Biso   1.000  O
  O28      1.0000 0.47162  0.96264  0.37390  Biso   1.000  O
  O29      1.0000 0.66141  0.92533  0.52954  Biso   1.000  O
  O30      1.0000 0.52740  0.14217  0.56318  Biso   1.000  O
  O31      1.0000 0.55233  0.46470  0.18714  Biso   1.000  O
  O32      1.0000 0.35791  0.44005  0.02615  Biso   1.000  O
  O33      1.0000 0.48874  0.63657  0.99894  Biso   1.000  O
  O34      1.0000 0.04895  0.47362  0.37204  Biso   1.000  O
  O35      1.0000 0.85582  0.42196  0.52241  Biso   1.000  O
  O36      1.0000 0.99589  0.64104  0.56735  Biso   1.000  O
  O37      1.0000 0.05739  0.98510  0.86905  Biso   1.000  O
  O38      1.0000 0.85469  0.02241  0.03249  Biso   1.000  O
  O39      1.0000 0.00247  0.82647  0.06534  Biso   1.000  O
  O40      1.0000 0.55616  0.98287  0.68114  Biso   1.000  O
  O41      1.0000 0.35313  0.03278  0.52521  Biso   1.000  O
  O42      1.0000 0.49635  0.81809  0.49166  Biso   1.000  O
  O43      1.0000 0.45978  0.48506  0.87133  Biso   1.000  O
  O44      1.0000 0.65916  0.52751  0.01916  Biso   1.000  O
  O45      1.0000 0.51432  0.32306  0.06112  Biso   1.000  O
  O46      1.0000 0.95815  0.49194  0.68034  Biso   1.000  O
  O47      1.0000 0.16239  0.53682  0.53215  Biso   1.000  O
  O48      1.0000 0.02226  0.32041  0.48714  Biso   1.000  O
  O49      1.0000 0.01963  0.93781  0.18247  Biso   1.000  O
  O50      1.0000 0.16975  0.98280  0.98905  Biso   1.000  O
  O51      1.0000 0.97225  0.14070  0.02548  Biso   1.000  O
  O52      1.0000 0.52136  0.93207  0.37430  Biso   1.000  O
  O53      1.0000 0.66729  0.96960  0.56501  Biso   1.000  O
  O54      1.0000 0.48122  0.13756  0.52595  Biso   1.000  O
  O55      1.0000 0.50991  0.43023  0.18195  Biso   1.000  O
  O56      1.0000 0.35279  0.49560  0.99390  Biso   1.000  O
  O57      1.0000 0.54092  0.63523  0.02894  Biso   1.000  O
  O58      1.0000 0.00199  0.43768  0.37311  Biso   1.000  O
  O59      1.0000 0.84629  0.46442  0.56570  Biso   1.000  O
  O60      1.0000 0.03271  0.64274  0.52001  Biso   1.000  O
  O61      1.0000 0.01786  0.02429  0.86873  Biso   1.000  O
  O62      1.0000 0.85467  0.97763  0.06602  Biso   1.000  O
  O63      1.0000 0.04556  0.83139  0.02537  Biso   1.000  O
  O64      1.0000 0.50847  0.02807  0.67954  Biso   1.000  O
  O65      1.0000 0.35474  0.99272  0.48660  Biso   1.000  O
  O66      1.0000 0.53375  0.81973  0.53827  Biso   1.000  O
  O67      1.0000 0.49443  0.53032  0.87533  Biso   1.000  O
  O68      1.0000 0.66579  0.49484  0.06702  Biso   1.000  O
  O69      1.0000 0.47593  0.32484  0.02271  Biso   1.000  O
  O70      1.0000 0.00496  0.52873  0.68382  Biso   1.000  O
  O71      1.0000 0.16251  0.49235  0.49330  Biso   1.000  O
  O72      1.0000 0.98233  0.31785  0.53237  Biso   1.000  O
  O73      1.0000 0.00096  0.44681  0.68060  Biso   1.000  O
  O74      1.0000 0.66667  0.96612  0.48135  Biso   1.000  O
  O75      1.0000 0.45960  0.63752  0.04872  Biso   1.000  O
  O76      1.0000 0.50818  0.44518  0.87030  Biso   1.000  O
  O77      1.0000 0.16706  0.98897  0.07096  Biso   1.000  O
  O78      1.0000 0.94799  0.62781  0.52710  Biso   1.000  O
  O79      1.0000 0.51132  0.94170  0.68554  Biso   1.000  O
  O80      1.0000 0.85509  0.46338  0.48191  Biso   1.000  O
  O81      1.0000 0.06136  0.13834  0.03021  Biso   1.000  O
  O82      1.0000 0.02074  0.94198  0.86828  Biso   1.000  O
  O83      1.0000 0.35295  0.47041  0.07777  Biso   1.000  O
  O84      1.0000 0.56540  0.13027  0.52265  Biso   1.000  O
  O85      1.0000 0.00965  0.51820  0.37319  Biso   1.000  O
  O86      1.0000 0.34805  0.99175  0.57029  Biso   1.000  O
  O87      1.0000 0.55944  0.32752  0.02630  Biso   1.000  O
  O88      1.0000 0.51582  0.51521  0.18787  Biso   1.000  O
  O89      1.0000 0.86016  0.98683  0.98323  Biso   1.000  O
  O90      1.0000 0.06504  0.32402  0.52380  Biso   1.000  O
  O91      1.0000 0.50108  0.01533  0.36849  Biso   1.000  O
  O92      1.0000 0.16061  0.49495  0.57351  Biso   1.000  O
  O93      1.0000 0.95809  0.82730  0.02326  Biso   1.000  O
  O94      1.0000 0.99915  0.01994  0.18666  Biso   1.000  O
  O95      1.0000 0.65888  0.48501  0.98604  Biso   1.000  O
  O96      1.0000 0.45247  0.82161  0.52193  Biso   1.000  O
  O97      1.0000 0.48385  0.18438  0.51421  Biso   1.000  O
  O98      1.0000 0.50641  0.42656  0.23085  Biso   1.000  O
  O99      1.0000 0.21180  0.49161  0.49268  Biso   1.000  O
  O100     1.0000 0.97474  0.18843  0.02455  Biso   1.000  O
  O101     1.0000 0.00777  0.43497  0.32409  Biso   1.000  O
  O102     1.0000 0.71439  0.49411  0.06635  Biso   1.000  O
  O103     1.0000 0.02943  0.69123  0.52070  Biso   1.000  O
  O104     1.0000 0.01222  0.93367  0.23082  Biso   1.000  O
  O105     1.0000 0.30467  0.99377  0.48426  Biso   1.000  O
  O106     1.0000 0.54213  0.68328  0.03194  Biso   1.000  O
  O107     1.0000 0.52062  0.93064  0.32582  Biso   1.000  O
  O108     1.0000 0.80732  0.98753  0.06411  Biso   1.000  O
  O109     1.0000 0.53060  0.77129  0.54025  Biso   1.000  O
  O110     1.0000 0.49959  0.53362  0.82550  Biso   1.000  O
  O111     1.0000 0.79790  0.45325  0.56426  Biso   1.000  O
  O112     1.0000 0.04469  0.78290  0.02767  Biso   1.000  O
  O113     1.0000 0.00187  0.52941  0.73258  Biso   1.000  O
  O114     1.0000 0.30585  0.48416  0.99580  Biso   1.000  O
  O115     1.0000 0.98857  0.26971  0.53324  Biso   1.000  O
  O116     1.0000 0.01571  0.02787  0.82133  Biso   1.000  O
  O117     1.0000 0.71722  0.96389  0.56368  Biso   1.000  O
  O118     1.0000 0.47775  0.27727  0.02184  Biso   1.000  O
  O119     1.0000 0.51463  0.02821  0.72825  Biso   1.000  O
  O120     1.0000 0.21907  0.97946  0.99178  Biso   1.000  O
  O121     1.0000 0.04146  0.48898  0.73421  Biso   1.000  O
  O122     1.0000 0.71911  0.00168  0.52143  Biso   1.000  O
  O123     1.0000 0.50699  0.68023  0.07938  Biso   1.000  O
  O124     1.0000 0.54053  0.48981  0.82199  Biso   1.000  O
  O125     1.0000 0.22188  0.02126  0.02997  Biso   1.000  O
  O126     1.0000 0.98395  0.68046  0.48168  Biso   1.000  O
  O127     1.0000 0.47096  0.98656  0.73145  Biso   1.000  O
  O128     1.0000 0.79302  0.49936  0.52623  Biso   1.000  O
  O129     1.0000 0.01853  0.18766  0.06886  Biso   1.000  O
  O130     1.0000 0.97571  0.98519  0.81823  Biso   1.000  O
  O131     1.0000 0.30085  0.51720  0.04380  Biso   1.000  O
  O132     1.0000 0.52705  0.17611  0.47714  Biso   1.000  O
  O133     1.0000 0.96878  0.48573  0.32046  Biso   1.000  O
  O134     1.0000 0.29830  0.95220  0.52923  Biso   1.000  O
  O135     1.0000 0.51993  0.27924  0.97744  Biso   1.000  O
  O136     1.0000 0.47152  0.47125  0.23546  Biso   1.000  O
  O137     1.0000 0.80055  0.94712  0.01653  Biso   1.000  O
  O138     1.0000 0.03123  0.28022  0.57359  Biso   1.000  O
  O139     1.0000 0.55355  0.97910  0.32325  Biso   1.000  O
  O140     1.0000 0.21560  0.45569  0.53957  Biso   1.000  O
  O141     1.0000 0.00540  0.77855  0.98261  Biso   1.000  O
  O142     1.0000 0.05228  0.98201  0.23407  Biso   1.000  O
  O143     1.0000 0.71556  0.44616  0.03207  Biso   1.000  O
  O144     1.0000 0.48934  0.77663  0.57778  Biso   1.000  O
  O145     1.0000 0.55492  0.46231  0.23479  Biso   1.000  O
  O146     1.0000 0.21162  0.54198  0.52950  Biso   1.000  O
  O147     1.0000 0.52710  0.19116  0.55940  Biso   1.000  O
  O148     1.0000 0.05506  0.47189  0.32427  Biso   1.000  O
  O149     1.0000 0.70869  0.52980  0.02140  Biso   1.000  O
  O150     1.0000 0.02412  0.18555  0.98753  Biso   1.000  O
  O151     1.0000 0.96723  0.96827  0.23098  Biso   1.000  O
  O152     1.0000 0.30443  0.03631  0.52652  Biso   1.000  O
  O153     1.0000 0.99163  0.69025  0.56372  Biso   1.000  O
  O154     1.0000 0.46985  0.96299  0.32502  Biso   1.000  O
  O155     1.0000 0.80792  0.03043  0.02324  Biso   1.000  O
  O156     1.0000 0.49616  0.68292  0.99653  Biso   1.000  O
  O157     1.0000 0.45748  0.48860  0.82252  Biso   1.000  O
  O158     1.0000 0.80715  0.41832  0.51793  Biso   1.000  O
  O159     1.0000 0.49398  0.76971  0.49357  Biso   1.000  O
  O160     1.0000 0.95482  0.48568  0.72928  Biso   1.000  O
  O161     1.0000 0.31028  0.43725  0.02550  Biso   1.000  O
  O162     1.0000 0.99968  0.77881  0.06361  Biso   1.000  O
  O163     1.0000 0.05907  0.98276  0.81983  Biso   1.000  O
  O164     1.0000 0.70913  0.91686  0.52430  Biso   1.000  O
  O165     1.0000 0.02776  0.27091  0.48995  Biso   1.000  O
  O166     1.0000 0.55613  0.98155  0.72883  Biso   1.000  O
  O167     1.0000 0.21540  0.93653  0.03644  Biso   1.000  O
  O168     1.0000 0.51861  0.27391  0.06176  Biso   1.000  O
  O169     1.0000 0.99972  0.02069  0.23586  Biso   1.000  O
  O170     1.0000 0.21494  0.97970  0.07474  Biso   1.000  O
  O171     1.0000 0.06227  0.18699  0.03176  Biso   1.000  O
  O172     1.0000 0.50285  0.01131  0.32109  Biso   1.000  O
  O173     1.0000 0.71505  0.95600  0.48156  Biso   1.000  O
  O174     1.0000 0.56763  0.17858  0.52156  Biso   1.000  O
  O175     1.0000 0.51489  0.51074  0.23766  Biso   1.000  O
  O176     1.0000 0.30309  0.47101  0.07717  Biso   1.000  O
  O177     1.0000 0.45893  0.68611  0.05059  Biso   1.000  O
  O178     1.0000 0.01719  0.51964  0.32293  Biso   1.000  O
  O179     1.0000 0.80540  0.46271  0.48222  Biso   1.000  O
  O180     1.0000 0.94763  0.67485  0.52198  Biso   1.000  O
  O181     1.0000 0.01758  0.94424  0.81849  Biso   1.000  O
  O182     1.0000 0.81222  0.99338  0.98151  Biso   1.000  O
  O183     1.0000 0.95994  0.77848  0.02291  Biso   1.000  O
  O184     1.0000 0.51318  0.94449  0.73429  Biso   1.000  O
  O185     1.0000 0.29884  0.99298  0.56864  Biso   1.000  O
  O186     1.0000 0.44973  0.77478  0.53684  Biso   1.000  O
  O187     1.0000 0.50100  0.44961  0.82263  Biso   1.000  O
  O188     1.0000 0.70717  0.48347  0.98559  Biso   1.000  O
  O189     1.0000 0.56316  0.27807  0.02300  Biso   1.000  O
  O190     1.0000 0.99958  0.44540  0.73050  Biso   1.000  O
  O191     1.0000 0.20884  0.49997  0.57681  Biso   1.000  O
  O192     1.0000 0.07391  0.27586  0.52778  Biso   1.000  O
