data_image0
_cell_length_a       46.7037
_cell_length_b       46.6314
_cell_length_c       46.4281
_cell_angle_alpha    90
_cell_angle_beta     90
_cell_angle_gamma    90

_symmetry_space_group_name_H-M    "P 1"
_symmetry_int_tables_number       1

loop_
  _symmetry_equiv_pos_as_xyz
  'x, y, z'

loop_
  _atom_site_label
  _atom_site_occupancy
  _atom_site_fract_x
  _atom_site_fract_y
  _atom_site_fract_z
  _atom_site_thermal_displace_type
  _atom_site_B_iso_or_equiv
  _atom_site_type_symbol
  C1       1.0000 0.55036  0.97798  0.31629  Biso   1.000  C
  C2       1.0000 0.31031  0.53095  0.03016  Biso   1.000  C
  C3       1.0000 0.00432  0.31877  0.54154  Biso   1.000  C
  C4       1.0000 0.05614  0.02388  0.17816  Biso   1.000  C
  C5       1.0000 0.81526  0.54725  0.49757  Biso   1.000  C
  C6       1.0000 0.51253  0.32085  0.92954  Biso   1.000  C
  C7       1.0000 0.95840  0.51083  0.31602  Biso   1.000  C
  C8       1.0000 0.18384  0.03512  0.99041  Biso   1.000  C
  C9       1.0000 0.49057  0.82062  0.57461  Biso   1.000  C
  C10      1.0000 0.46030  0.48811  0.18671  Biso   1.000  C
  C11      1.0000 0.68268  0.04537  0.49624  Biso   1.000  C
  C12      1.0000 0.97533  0.81407  0.96004  Biso   1.000  C
  C13      1.0000 0.44135  0.00989  0.68425  Biso   1.000  C
  C14      1.0000 0.68152  0.46383  0.98582  Biso   1.000  C
  C15      1.0000 0.99820  0.68289  0.45871  Biso   1.000  C
  C16      1.0000 0.94023  0.98509  0.82205  Biso   1.000  C
  C17      1.0000 0.17456  0.44239  0.52106  Biso   1.000  C
  C18      1.0000 0.47939  0.67030  0.07328  Biso   1.000  C
  C19      1.0000 0.03357  0.49609  0.69138  Biso   1.000  C
  C20      1.0000 0.81579  0.96263  0.99596  Biso   1.000  C
  C21      1.0000 0.51056  0.16997  0.43220  Biso   1.000  C
  C22      1.0000 0.53203  0.50513  0.81558  Biso   1.000  C
  C23      1.0000 0.31298  0.94272  0.49223  Biso   1.000  C
  C24      1.0000 0.00948  0.18249  0.04289  Biso   1.000  C
  C25      1.0000 0.32106  0.04989  0.50669  Biso   1.000  C
  C26      1.0000 0.51951  0.31187  0.03766  Biso   1.000  C
  C27      1.0000 0.06878  0.51356  0.32477  Biso   1.000  C
  C28      1.0000 0.82027  0.07068  0.01414  Biso   1.000  C
  C29      1.0000 0.99814  0.32373  0.43299  Biso   1.000  C
  C30      1.0000 0.56849  0.48888  0.17347  Biso   1.000  C
  C31      1.0000 0.17758  0.54972  0.51584  Biso   1.000  C
  C32      1.0000 0.98026  0.82394  0.06659  Biso   1.000  C
  C33      1.0000 0.44061  0.98675  0.31075  Biso   1.000  C
  C34      1.0000 0.66888  0.57300  0.97472  Biso   1.000  C
  C35      1.0000 0.49827  0.82013  0.46703  Biso   1.000  C
  C36      1.0000 0.94780  0.00241  0.17845  Biso   1.000  C
  C37      1.0000 0.67535  0.93713  0.49487  Biso   1.000  C
  C38      1.0000 0.47432  0.67673  0.96427  Biso   1.000  C
  C39      1.0000 0.92591  0.48075  0.67733  Biso   1.000  C
  C40      1.0000 0.17036  0.92945  0.00735  Biso   1.000  C
  C41      1.0000 0.99457  0.67632  0.56693  Biso   1.000  C
  C42      1.0000 0.42273  0.51307  0.82648  Biso   1.000  C
  C43      1.0000 0.81918  0.43947  0.47631  Biso   1.000  C
  C44      1.0000 0.00362  0.17573  0.93322  Biso   1.000  C
  C45      1.0000 0.55028  0.01043  0.67614  Biso   1.000  C
  C46      1.0000 0.32455  0.42646  0.00331  Biso   1.000  C
  C47      1.0000 0.49195  0.17841  0.53830  Biso   1.000  C
  C48      1.0000 0.05006  0.98556  0.81682  Biso   1.000  C
  C49      1.0000 0.99101  0.04212  0.81494  Biso   1.000  C
  C50      1.0000 0.81636  0.00725  0.05832  Biso   1.000  C
  C51      1.0000 0.03099  0.81408  0.01417  Biso   1.000  C
  C52      1.0000 0.49437  0.06579  0.67505  Biso   1.000  C
  C53      1.0000 0.32044  0.00565  0.44918  Biso   1.000  C
  C54      1.0000 0.54650  0.81731  0.52132  Biso   1.000  C
  C55      1.0000 0.48244  0.56431  0.82091  Biso   1.000  C
  C56      1.0000 0.68319  0.52142  0.03731  Biso   1.000  C
  C57      1.0000 0.46087  0.30787  0.98335  Biso   1.000  C
  C58      1.0000 0.97061  0.54247  0.68732  Biso   1.000  C
  C59      1.0000 0.18313  0.49341  0.46466  Biso   1.000  C
  C60      1.0000 0.94689  0.31777  0.48997  Biso   1.000  C
  C61      1.0000 0.00874  0.95658  0.17840  Biso   1.000  C
  C62      1.0000 0.17515  0.96967  0.94429  Biso   1.000  C
  C63      1.0000 0.95219  0.18400  0.98466  Biso   1.000  C
  C64      1.0000 0.49344  0.92844  0.32070  Biso   1.000  C
  C65      1.0000 0.67681  0.99258  0.55182  Biso   1.000  C
  C66      1.0000 0.44770  0.17372  0.47804  Biso   1.000  C
  C67      1.0000 0.51124  0.43113  0.17284  Biso   1.000  C
  C68      1.0000 0.31391  0.49671  0.96586  Biso   1.000  C
  C69      1.0000 0.53166  0.68126  0.01638  Biso   1.000  C
  C70      1.0000 0.01273  0.45891  0.31674  Biso   1.000  C
  C71      1.0000 0.81276  0.47928  0.53791  Biso   1.000  C
  C72      1.0000 0.05003  0.67907  0.51881  Biso   1.000  C
  C73      1.0000 0.01133  0.56821  0.32359  Biso   1.000  C
  C74      1.0000 0.31706  0.98617  0.55375  Biso   1.000  C
  C75      1.0000 0.56903  0.32803  0.97867  Biso   1.000  C
  C76      1.0000 0.51671  0.53790  0.18517  Biso   1.000  C
  C77      1.0000 0.82126  0.02484  0.95003  Biso   1.000  C
  C78      1.0000 0.05650  0.31522  0.48435  Biso   1.000  C
  C79      1.0000 0.49921  0.03813  0.31279  Biso   1.000  C
  C80      1.0000 0.16968  0.49954  0.57415  Biso   1.000  C
  C81      1.0000 0.92298  0.82284  0.01898  Biso   1.000  C
  C82      1.0000 0.99410  0.06611  0.17962  Biso   1.000  C
  C83      1.0000 0.67217  0.50914  0.92796  Biso   1.000  C
  C84      1.0000 0.43898  0.81702  0.51608  Biso   1.000  C
  C85      1.0000 0.98927  0.43587  0.68136  Biso   1.000  C
  C86      1.0000 0.67684  0.99190  0.44389  Biso   1.000  C
  C87      1.0000 0.42480  0.66400  0.02064  Biso   1.000  C
  C88      1.0000 0.47097  0.45704  0.81236  Biso   1.000  C
  C89      1.0000 0.18129  0.99555  0.05242  Biso   1.000  C
  C90      1.0000 0.94320  0.67613  0.50823  Biso   1.000  C
  C91      1.0000 0.49993  0.95925  0.68804  Biso   1.000  C
  C92      1.0000 0.82212  0.50468  0.43115  Biso   1.000  C
  C93      1.0000 0.06213  0.17176  0.98937  Biso   1.000  C
  C94      1.0000 0.00114  0.93233  0.82192  Biso   1.000  C
  C95      1.0000 0.32495  0.46446  0.06903  Biso   1.000  C
  C96      1.0000 0.55586  0.17193  0.49292  Biso   1.000  C
  C97      1.0000 0.68580  0.07929  0.49392  Biso   1.000  C
  C98      1.0000 0.47894  0.66649  0.10497  Biso   1.000  C
  C99      1.0000 0.06554  0.50205  0.69477  Biso   1.000  C
  C100     1.0000 0.18693  0.06940  0.98830  Biso   1.000  C
  C101     1.0000 0.99658  0.68627  0.42723  Biso   1.000  C
  C102     1.0000 0.56322  0.50785  0.81150  Biso   1.000  C
  C103     1.0000 0.81465  0.57943  0.50416  Biso   1.000  C
  C104     1.0000 0.00861  0.18523  0.07605  Biso   1.000  C
  C105     1.0000 0.40945  0.00956  0.68491  Biso   1.000  C
  C106     1.0000 0.30556  0.56224  0.03063  Biso   1.000  C
  C107     1.0000 0.51347  0.16917  0.39944  Biso   1.000  C
  C108     1.0000 0.90821  0.98900  0.82368  Biso   1.000  C
  C109     1.0000 0.31178  0.90899  0.49436  Biso   1.000  C
  C110     1.0000 0.50459  0.32348  0.89765  Biso   1.000  C
  C111     1.0000 0.92717  0.50865  0.31016  Biso   1.000  C
  C112     1.0000 0.81063  0.92976  0.99602  Biso   1.000  C
  C113     1.0000 0.00482  0.31616  0.57395  Biso   1.000  C
  C114     1.0000 0.42772  0.49092  0.19005  Biso   1.000  C
  C115     1.0000 0.17761  0.40957  0.51918  Biso   1.000  C
  C116     1.0000 0.97562  0.81371  0.92671  Biso   1.000  C
  C117     1.0000 0.58198  0.97886  0.31475  Biso   1.000  C
  C118     1.0000 0.68408  0.43313  0.98076  Biso   1.000  C
  C119     1.0000 0.48848  0.82242  0.60649  Biso   1.000  C
  C120     1.0000 0.08766  0.03339  0.17672  Biso   1.000  C
  C121     1.0000 0.81581  0.00213  0.08919  Biso   1.000  C
  C122     1.0000 0.06301  0.81111  0.01679  Biso   1.000  C
  C123     1.0000 0.98314  0.07303  0.81196  Biso   1.000  C
  C124     1.0000 0.31983  0.00904  0.41708  Biso   1.000  C
  C125     1.0000 0.57861  0.81608  0.52206  Biso   1.000  C
  C126     1.0000 0.49335  0.09812  0.67293  Biso   1.000  C
  C127     1.0000 0.68572  0.52438  0.06994  Biso   1.000  C
  C128     1.0000 0.42872  0.30628  0.98615  Biso   1.000  C
  C129     1.0000 0.48565  0.59610  0.82408  Biso   1.000  C
  C130     1.0000 0.18586  0.49444  0.43288  Biso   1.000  C
  C131     1.0000 0.91507  0.31575  0.49159  Biso   1.000  C
  C132     1.0000 0.97443  0.57337  0.69100  Biso   1.000  C
  C133     1.0000 0.17540  0.96314  0.91065  Biso   1.000  C
  C134     1.0000 0.92069  0.18920  0.98928  Biso   1.000  C
  C135     1.0000 0.00915  0.92405  0.18357  Biso   1.000  C
  C136     1.0000 0.67568  0.99712  0.58386  Biso   1.000  C
  C137     1.0000 0.41570  0.17347  0.47908  Biso   1.000  C
  C138     1.0000 0.49778  0.89643  0.32442  Biso   1.000  C
  C139     1.0000 0.30972  0.50634  0.93395  Biso   1.000  C
  C140     1.0000 0.56429  0.68514  0.01205  Biso   1.000  C
  C141     1.0000 0.50811  0.39867  0.17014  Biso   1.000  C
  C142     1.0000 0.80938  0.47354  0.56905  Biso   1.000  C
  C143     1.0000 0.08131  0.67898  0.52431  Biso   1.000  C
  C144     1.0000 0.01255  0.42700  0.31447  Biso   1.000  C
  C145     1.0000 0.32933  0.46816  0.10118  Biso   1.000  C
  C146     1.0000 0.08849  0.31522  0.48337  Biso   1.000  C
  C147     1.0000 0.50463  0.06974  0.31094  Biso   1.000  C
  C148     1.0000 0.82400  0.50613  0.39876  Biso   1.000  C
  C149     1.0000 0.60113  0.33260  0.97587  Biso   1.000  C
  C150     1.0000 0.99442  0.09887  0.17690  Biso   1.000  C
  C151     1.0000 0.18350  0.00375  0.08348  Biso   1.000  C
  C152     1.0000 0.40736  0.81609  0.51309  Biso   1.000  C
  C153     1.0000 0.01509  0.59995  0.32732  Biso   1.000  C
  C154     1.0000 0.67805  0.98745  0.41204  Biso   1.000  C
  C155     1.0000 0.89099  0.82561  0.01545  Biso   1.000  C
  C156     1.0000 0.51198  0.56884  0.18830  Biso   1.000  C
  C157     1.0000 0.66934  0.50226  0.89678  Biso   1.000  C
  C158     1.0000 0.90995  0.67589  0.50440  Biso   1.000  C
  C159     1.0000 0.50510  0.92704  0.69216  Biso   1.000  C
  C160     1.0000 0.16730  0.50363  0.60707  Biso   1.000  C
  C161     1.0000 0.39254  0.66178  0.01929  Biso   1.000  C
  C162     1.0000 0.99617  0.90075  0.82518  Biso   1.000  C
  C163     1.0000 0.81937  0.02198  0.91773  Biso   1.000  C
  C164     1.0000 0.58696  0.17238  0.49409  Biso   1.000  C
  C165     1.0000 0.99409  0.40517  0.67555  Biso   1.000  C
  C166     1.0000 0.31713  0.98957  0.58533  Biso   1.000  C
  C167     1.0000 0.09391  0.16915  0.99284  Biso   1.000  C
  C168     1.0000 0.47103  0.42362  0.81129  Biso   1.000  C
  C169     1.0000 0.98676  0.82595  0.09684  Biso   1.000  C
  C170     1.0000 0.08228  0.98131  0.81462  Biso   1.000  C
  C171     1.0000 0.82110  0.10367  0.01208  Biso   1.000  C
  C172     1.0000 0.50395  0.81691  0.43500  Biso   1.000  C
  C173     1.0000 0.58205  0.00561  0.67742  Biso   1.000  C
  C174     1.0000 0.32265  0.08205  0.51045  Biso   1.000  C
  C175     1.0000 0.51986  0.31104  0.06919  Biso   1.000  C
  C176     1.0000 0.39026  0.51556  0.82945  Biso   1.000  C
  C177     1.0000 0.66589  0.60508  0.97371  Biso   1.000  C
  C178     1.0000 0.00279  0.32530  0.40088  Biso   1.000  C
  C179     1.0000 0.89433  0.48063  0.67375  Biso   1.000  C
  C180     1.0000 0.17753  0.58186  0.51633  Biso   1.000  C
  C181     1.0000 0.99529  0.17462  0.90098  Biso   1.000  C
  C182     1.0000 0.91517  0.00005  0.18032  Biso   1.000  C
  C183     1.0000 0.16741  0.89770  0.00579  Biso   1.000  C
  C184     1.0000 0.48495  0.18133  0.57032  Biso   1.000  C
  C185     1.0000 0.40894  0.98703  0.31309  Biso   1.000  C
  C186     1.0000 0.67350  0.90495  0.49708  Biso   1.000  C
  C187     1.0000 0.47428  0.68015  0.93212  Biso   1.000  C
  C188     1.0000 0.60023  0.49575  0.17095  Biso   1.000  C
  C189     1.0000 0.32672  0.39472  0.99638  Biso   1.000  C
  C190     1.0000 0.99126  0.67327  0.59812  Biso   1.000  C
  C191     1.0000 0.10025  0.51077  0.32783  Biso   1.000  C
  C192     1.0000 0.81974  0.40733  0.47093  Biso   1.000  C
  C193     1.0000 0.84393  0.01235  0.90235  Biso   1.000  C
  C194     1.0000 0.87754  0.85401  0.01185  Biso   1.000  C
  C195     1.0000 0.99149  0.88850  0.85304  Biso   1.000  C
  C196     1.0000 0.34449  0.99468  0.60205  Biso   1.000  C
  C197     1.0000 0.39084  0.84165  0.50526  Biso   1.000  C
  C198     1.0000 0.49941  0.90841  0.66758  Biso   1.000  C
  C199     1.0000 0.64195  0.50779  0.88217  Biso   1.000  C
  C200     1.0000 0.61318  0.36106  0.97490  Biso   1.000  C
  C201     1.0000 0.48335  0.40802  0.83671  Biso   1.000  C
  C202     1.0000 0.13868  0.50252  0.61958  Biso   1.000  C
  C203     1.0000 0.10296  0.34198  0.49186  Biso   1.000  C
  C204     1.0000 0.99113  0.39112  0.64721  Biso   1.000  C
  C205     1.0000 0.15660  0.01467  0.09682  Biso   1.000  C
  C206     1.0000 0.10892  0.14120  0.99201  Biso   1.000  C
  C207     1.0000 0.99629  0.11281  0.14868  Biso   1.000  C
  C208     1.0000 0.65107  0.98533  0.39466  Biso   1.000  C
  C209     1.0000 0.60378  0.14578  0.49287  Biso   1.000  C
  C210     1.0000 0.51011  0.08742  0.33618  Biso   1.000  C
  C211     1.0000 0.35766  0.47631  0.11455  Biso   1.000  C
  C212     1.0000 0.37848  0.63392  0.01764  Biso   1.000  C
  C213     1.0000 0.50562  0.58659  0.16178  Biso   1.000  C
  C214     1.0000 0.85308  0.50609  0.38573  Biso   1.000  C
  C215     1.0000 0.89458  0.64901  0.50097  Biso   1.000  C
  C216     1.0000 0.01380  0.61324  0.35589  Biso   1.000  C
  C217     1.0000 0.09771  0.97301  0.84102  Biso   1.000  C
  C218     1.0000 0.84923  0.11799  0.00951  Biso   1.000  C
  C219     1.0000 0.99262  0.85257  0.11002  Biso   1.000  C
  C220     1.0000 0.59744  0.00587  0.65091  Biso   1.000  C
  C221     1.0000 0.34935  0.09777  0.50573  Biso   1.000  C
  C222     1.0000 0.50533  0.84072  0.41395  Biso   1.000  C
  C223     1.0000 0.37777  0.51349  0.85768  Biso   1.000  C
  C224     1.0000 0.63908  0.61772  0.98287  Biso   1.000  C
  C225     1.0000 0.51979  0.33722  0.08773  Biso   1.000  C
  C226     1.0000 0.88064  0.47698  0.64526  Biso   1.000  C
  C227     1.0000 0.15005  0.59932  0.52075  Biso   1.000  C
  C228     1.0000 0.00724  0.35374  0.38710  Biso   1.000  C
  C229     1.0000 0.89708  0.00381  0.15310  Biso   1.000  C
  C230     1.0000 0.13912  0.88302  0.00418  Biso   1.000  C
  C231     1.0000 0.99132  0.14598  0.88765  Biso   1.000  C
  C232     1.0000 0.39484  0.99055  0.34318  Biso   1.000  C
  C233     1.0000 0.64646  0.89094  0.50258  Biso   1.000  C
  C234     1.0000 0.48514  0.15591  0.58869  Biso   1.000  C
  C235     1.0000 0.61283  0.50413  0.14381  Biso   1.000  C
  C236     1.0000 0.35401  0.38017  0.99292  Biso   1.000  C
  C237     1.0000 0.47615  0.65444  0.91239  Biso   1.000  C
  C238     1.0000 0.11251  0.50987  0.35666  Biso   1.000  C
  C239     1.0000 0.84599  0.39251  0.47491  Biso   1.000  C
  C240     1.0000 0.98820  0.64519  0.61231  Biso   1.000  C
  C241     1.0000 0.58363  0.50901  0.83571  Biso   1.000  C
  C242     1.0000 0.84165  0.59625  0.50192  Biso   1.000  C
  C243     1.0000 0.48858  0.85120  0.62089  Biso   1.000  C
  C244     1.0000 0.08396  0.50070  0.66789  Biso   1.000  C
  C245     1.0000 0.32979  0.58117  0.02560  Biso   1.000  C
  C246     1.0000 0.98314  0.83955  0.91044  Biso   1.000  C
  C247     1.0000 0.89283  0.99770  0.84929  Biso   1.000  C
  C248     1.0000 0.65837  0.09573  0.49302  Biso   1.000  C
  C249     1.0000 0.00025  0.34188  0.59251  Biso   1.000  C
  C250     1.0000 0.39633  0.00523  0.65690  Biso   1.000  C
  C251     1.0000 0.16012  0.08714  0.98574  Biso   1.000  C
  C252     1.0000 0.49742  0.35134  0.88334  Biso   1.000  C
  C253     1.0000 0.40982  0.48738  0.16469  Biso   1.000  C
  C254     1.0000 0.15140  0.39383  0.50905  Biso   1.000  C
  C255     1.0000 0.51306  0.14147  0.38440  Biso   1.000  C
  C256     1.0000 0.90951  0.50837  0.33625  Biso   1.000  C
  C257     1.0000 0.65768  0.41597  0.97843  Biso   1.000  C
  C258     1.0000 0.00250  0.16022  0.09398  Biso   1.000  C
  C259     1.0000 0.10271  0.03015  0.14938  Biso   1.000  C
  C260     1.0000 0.33907  0.89199  0.49605  Biso   1.000  C
  C261     1.0000 0.00298  0.66159  0.40896  Biso   1.000  C
  C262     1.0000 0.59864  0.98313  0.34050  Biso   1.000  C
  C263     1.0000 0.83453  0.90999  0.99990  Biso   1.000  C
  C264     1.0000 0.48623  0.63860  0.11736  Biso   1.000  C
  C265     1.0000 0.98351  0.08984  0.83853  Biso   1.000  C
  C266     1.0000 0.84398  0.00113  0.10362  Biso   1.000  C
  C267     1.0000 0.08189  0.83636  0.01403  Biso   1.000  C
  C268     1.0000 0.49359  0.11204  0.64424  Biso   1.000  C
  C269     1.0000 0.34475  0.00460  0.39830  Biso   1.000  C
  C270     1.0000 0.59551  0.84205  0.51703  Biso   1.000  C
  C271     1.0000 0.47903  0.61003  0.85221  Biso   1.000  C
  C272     1.0000 0.65929  0.52266  0.08773  Biso   1.000  C
  C273     1.0000 0.40999  0.33108  0.98917  Biso   1.000  C
  C274     1.0000 0.98019  0.59083  0.66418  Biso   1.000  C
  C275     1.0000 0.15786  0.49647  0.41572  Biso   1.000  C
  C276     1.0000 0.89733  0.34268  0.48694  Biso   1.000  C
  C277     1.0000 0.00352  0.90627  0.15783  Biso   1.000  C
  C278     1.0000 0.14849  0.96611  0.89354  Biso   1.000  C
  C279     1.0000 0.90290  0.16354  0.99569  Biso   1.000  C
  C280     1.0000 0.50068  0.88446  0.35486  Biso   1.000  C
  C281     1.0000 0.64895  0.99921  0.59969  Biso   1.000  C
  C282     1.0000 0.39938  0.14831  0.48502  Biso   1.000  C
  C283     1.0000 0.51219  0.38557  0.14288  Biso   1.000  C
  C284     1.0000 0.33464  0.50941  0.91489  Biso   1.000  C
  C285     1.0000 0.58384  0.66053  0.00338  Biso   1.000  C
  C286     1.0000 0.01108  0.40988  0.34070  Biso   1.000  C
  C287     1.0000 0.83513  0.47277  0.58758  Biso   1.000  C
  C288     1.0000 0.09827  0.65215  0.52450  Biso   1.000  C
  C289     1.0000 0.33779  0.86123  0.50297  Biso   1.000  C
  C290     1.0000 0.49402  0.35274  0.85229  Biso   1.000  C
  C291     1.0000 0.87770  0.51009  0.33324  Biso   1.000  C
  C292     1.0000 0.82819  0.87923  0.00074  Biso   1.000  C
  C293     1.0000 0.99768  0.33877  0.62368  Biso   1.000  C
  C294     1.0000 0.37873  0.48211  0.16678  Biso   1.000  C
  C295     1.0000 0.15351  0.36395  0.50428  Biso   1.000  C
  C296     1.0000 0.98280  0.83900  0.87821  Biso   1.000  C
  C297     1.0000 0.63058  0.98291  0.34010  Biso   1.000  C
  C298     1.0000 0.66382  0.38573  0.97753  Biso   1.000  C
  C299     1.0000 0.49673  0.85474  0.65188  Biso   1.000  C
  C300     1.0000 0.13489  0.02997  0.14954  Biso   1.000  C
  C301     1.0000 0.65822  0.12761  0.49316  Biso   1.000  C
  C302     1.0000 0.49104  0.64024  0.14865  Biso   1.000  C
  C303     1.0000 0.11575  0.50462  0.67094  Biso   1.000  C
  C304     1.0000 0.16279  0.11854  0.98799  Biso   1.000  C
  C305     1.0000 0.00346  0.66436  0.37771  Biso   1.000  C
  C306     1.0000 0.61469  0.50528  0.83049  Biso   1.000  C
  C307     1.0000 0.84137  0.62660  0.50193  Biso   1.000  C
  C308     1.0000 0.00267  0.16470  0.12517  Biso   1.000  C
  C309     1.0000 0.36552  0.99911  0.65639  Biso   1.000  C
  C310     1.0000 0.32627  0.61229  0.02281  Biso   1.000  C
  C311     1.0000 0.51240  0.14068  0.35315  Biso   1.000  C
  C312     1.0000 0.86161  0.00049  0.84833  Biso   1.000  C
  C313     1.0000 0.16107  0.49777  0.38396  Biso   1.000  C
  C314     1.0000 0.36894  0.14983  0.49245  Biso   1.000  C
  C315     1.0000 0.51070  0.35321  0.14152  Biso   1.000  C
  C316     1.0000 0.66333  0.51777  0.11982  Biso   1.000  C
  C317     1.0000 0.87325  0.16760  0.00092  Biso   1.000  C
  C318     1.0000 0.01093  0.37769  0.33553  Biso   1.000  C
  C319     1.0000 0.34253  0.00230  0.36705  Biso   1.000  C
  C320     1.0000 0.12975  0.65172  0.52255  Biso   1.000  C
  C321     1.0000 0.00225  0.87440  0.16094  Biso   1.000  C
  C322     1.0000 0.84373  0.99989  0.13515  Biso   1.000  C
  C323     1.0000 0.61596  0.66573  0.99984  Biso   1.000  C
  C324     1.0000 0.50323  0.85393  0.35897  Biso   1.000  C
  C325     1.0000 0.83061  0.47299  0.62008  Biso   1.000  C
  C326     1.0000 0.62571  0.83971  0.50949  Biso   1.000  C
  C327     1.0000 0.48466  0.64048  0.85756  Biso   1.000  C
  C328     1.0000 0.32850  0.51481  0.88480  Biso   1.000  C
  C329     1.0000 0.11378  0.83361  0.01231  Biso   1.000  C
  C330     1.0000 0.98062  0.62231  0.66573  Biso   1.000  C
  C331     1.0000 0.64994  0.00154  0.63072  Biso   1.000  C
  C332     1.0000 0.86672  0.34064  0.48325  Biso   1.000  C
  C333     1.0000 0.98446  0.12119  0.83547  Biso   1.000  C
  C334     1.0000 0.14916  0.96943  0.86223  Biso   1.000  C
  C335     1.0000 0.37812  0.32846  0.98866  Biso   1.000  C
  C336     1.0000 0.48799  0.14188  0.64215  Biso   1.000  C
  C337     1.0000 0.63799  0.50637  0.85067  Biso   1.000  C
  C338     1.0000 0.86294  0.64878  0.50141  Biso   1.000  C
  C339     1.0000 0.49916  0.87746  0.67146  Biso   1.000  C
  C340     1.0000 0.13829  0.50706  0.65105  Biso   1.000  C
  C341     1.0000 0.34713  0.63513  0.01929  Biso   1.000  C
  C342     1.0000 0.98670  0.85760  0.85469  Biso   1.000  C
  C343     1.0000 0.84162  0.00760  0.87041  Biso   1.000  C
  C344     1.0000 0.63562  0.14812  0.49354  Biso   1.000  C
  C345     1.0000 0.99452  0.35910  0.64628  Biso   1.000  C
  C346     1.0000 0.34472  0.99549  0.63424  Biso   1.000  C
  C347     1.0000 0.14067  0.14134  0.98987  Biso   1.000  C
  C348     1.0000 0.48577  0.37590  0.83303  Biso   1.000  C
  C349     1.0000 0.35740  0.47837  0.14515  Biso   1.000  C
  C350     1.0000 0.13339  0.34189  0.49711  Biso   1.000  C
  C351     1.0000 0.51100  0.11824  0.33248  Biso   1.000  C
  C352     1.0000 0.85520  0.51111  0.35369  Biso   1.000  C
  C353     1.0000 0.64401  0.36263  0.97593  Biso   1.000  C
  C354     1.0000 0.99880  0.14427  0.14841  Biso   1.000  C
  C355     1.0000 0.15638  0.02300  0.12770  Biso   1.000  C
  C356     1.0000 0.36000  0.84047  0.50775  Biso   1.000  C
  C357     1.0000 0.00783  0.64434  0.35544  Biso   1.000  C
  C358     1.0000 0.65266  0.98240  0.36269  Biso   1.000  C
  C359     1.0000 0.84724  0.85572  0.00594  Biso   1.000  C
  C360     1.0000 0.50079  0.61781  0.16747  Biso   1.000  C
  C361     1.0000 0.98634  0.14419  0.85548  Biso   1.000  C
  C362     1.0000 0.86565  0.00120  0.15678  Biso   1.000  C
  C363     1.0000 0.13797  0.85120  0.00732  Biso   1.000  C
  C364     1.0000 0.48439  0.16093  0.61866  Biso   1.000  C
  C365     1.0000 0.36285  0.99755  0.34456  Biso   1.000  C
  C366     1.0000 0.64756  0.86009  0.50479  Biso   1.000  C
  C367     1.0000 0.48316  0.65946  0.88223  Biso   1.000  C
  C368     1.0000 0.64432  0.51040  0.14188  Biso   1.000  C
  C369     1.0000 0.35557  0.34910  0.98879  Biso   1.000  C
  C370     1.0000 0.98526  0.64552  0.64408  Biso   1.000  C
  C371     1.0000 0.14260  0.50188  0.35963  Biso   1.000  C
  C372     1.0000 0.84529  0.36098  0.47809  Biso   1.000  C
  C373     1.0000 0.99720  0.85265  0.14126  Biso   1.000  C
  C374     1.0000 0.12835  0.97354  0.83946  Biso   1.000  C
  C375     1.0000 0.84986  0.14852  0.00750  Biso   1.000  C
  C376     1.0000 0.50382  0.83378  0.38323  Biso   1.000  C
  C377     1.0000 0.62880  0.00386  0.65288  Biso   1.000  C
  C378     1.0000 0.34892  0.12883  0.49980  Biso   1.000  C
  C379     1.0000 0.51300  0.33348  0.11838  Biso   1.000  C
  C380     1.0000 0.34681  0.51742  0.86056  Biso   1.000  C
  C381     1.0000 0.63861  0.64863  0.99114  Biso   1.000  C
  C382     1.0000 0.00976  0.35488  0.35547  Biso   1.000  C
  C383     1.0000 0.84950  0.47601  0.64358  Biso   1.000  C
  C384     1.0000 0.15142  0.63067  0.52109  Biso   1.000  C
  C385     1.0000 0.19057  0.13115  0.98861  Biso   1.000  C
  C386     1.0000 0.00456  0.19155  0.13980  Biso   1.000  C
  C387     1.0000 0.15099  0.03386  0.17608  Biso   1.000  C
  C388     1.0000 0.68538  0.14310  0.49324  Biso   1.000  C
  C389     1.0000 0.51353  0.16695  0.33578  Biso   1.000  C
  C390     1.0000 0.64631  0.97827  0.31319  Biso   1.000  C
  C391     1.0000 0.29841  0.62505  0.02307  Biso   1.000  C
  C392     1.0000 0.48718  0.66455  0.16725  Biso   1.000  C
  C393     1.0000 0.36509  0.48180  0.19515  Biso   1.000  C
  C394     1.0000 0.81320  0.64195  0.50411  Biso   1.000  C
  C395     1.0000 0.99791  0.69212  0.36288  Biso   1.000  C
  C396     1.0000 0.86399  0.51120  0.30493  Biso   1.000  C
  C397     1.0000 0.80007  0.86714  0.99821  Biso   1.000  C
  C398     1.0000 0.97719  0.81086  0.86353  Biso   1.000  C
  C399     1.0000 0.84409  0.99405  0.82364  Biso   1.000  C
  C400     1.0000 0.31133  0.84591  0.50599  Biso   1.000  C
  C401     1.0000 0.50026  0.82782  0.66894  Biso   1.000  C
  C402     1.0000 0.34908  0.99758  0.68361  Biso   1.000  C
  C403     1.0000 0.69251  0.37197  0.97751  Biso   1.000  C
  C404     1.0000 0.49200  0.32716  0.83581  Biso   1.000  C
  C405     1.0000 0.62880  0.50013  0.80276  Biso   1.000  C
  C406     1.0000 0.18132  0.34874  0.50730  Biso   1.000  C
  C407     1.0000 0.99718  0.31076  0.63849  Biso   1.000  C
  C408     1.0000 0.12789  0.51102  0.69864  Biso   1.000  C
  C409     1.0000 0.14608  0.97607  0.81265  Biso   1.000  C
  C410     1.0000 0.82452  0.16613  0.00665  Biso   1.000  C
  C411     1.0000 0.99779  0.82643  0.15773  Biso   1.000  C
  C412     1.0000 0.64420  0.00411  0.68030  Biso   1.000  C
  C413     1.0000 0.32203  0.14563  0.50209  Biso   1.000  C
  C414     1.0000 0.50351  0.80589  0.37189  Biso   1.000  C
  C415     1.0000 0.32794  0.52429  0.83704  Biso   1.000  C
  C416     1.0000 0.66317  0.66681  0.99251  Biso   1.000  C
  C417     1.0000 0.50916  0.30577  0.13126  Biso   1.000  C
  C418     1.0000 0.83116  0.47623  0.66862  Biso   1.000  C
  C419     1.0000 0.17849  0.64638  0.51785  Biso   1.000  C
  C420     1.0000 0.01221  0.32967  0.33807  Biso   1.000  C
  C421     1.0000 0.85095  0.99545  0.18385  Biso   1.000  C
  C422     1.0000 0.16391  0.83393  0.00960  Biso   1.000  C
  C423     1.0000 0.98389  0.17048  0.83803  Biso   1.000  C
  C424     1.0000 0.34538  0.99972  0.31892  Biso   1.000  C
  C425     1.0000 0.67514  0.84370  0.50268  Biso   1.000  C
  C426     1.0000 0.47994  0.18922  0.63255  Biso   1.000  C
  C427     1.0000 0.66145  0.51140  0.16873  Biso   1.000  C
  C428     1.0000 0.32945  0.33171  0.98772  Biso   1.000  C
  C429     1.0000 0.49094  0.68678  0.87030  Biso   1.000  C
  C430     1.0000 0.16106  0.49950  0.33451  Biso   1.000  C
  C431     1.0000 0.81853  0.34429  0.47695  Biso   1.000  C
  C432     1.0000 0.98590  0.67093  0.66110  Biso   1.000  C
  C433     1.0000 0.98165  0.13541  0.80747  Biso   1.000  C
  C434     1.0000 0.81736  0.99852  0.15135  Biso   1.000  C
  C435     1.0000 0.12808  0.80505  0.01548  Biso   1.000  C
  C436     1.0000 0.48551  0.15958  0.66789  Biso   1.000  C
  C437     1.0000 0.31522  0.00632  0.35292  Biso   1.000  C
  C438     1.0000 0.64100  0.81250  0.50950  Biso   1.000  C
  C439     1.0000 0.49518  0.65899  0.83494  Biso   1.000  C
  C440     1.0000 0.69112  0.51993  0.13342  Biso   1.000  C
  C441     1.0000 0.36461  0.30003  0.98691  Biso   1.000  C
  C442     1.0000 0.97986  0.63581  0.69405  Biso   1.000  C
  C443     1.0000 0.19090  0.49482  0.37115  Biso   1.000  C
  C444     1.0000 0.85131  0.31212  0.48561  Biso   1.000  C
  C445     1.0000 0.00538  0.85977  0.18849  Biso   1.000  C
  C446     1.0000 0.17682  0.96896  0.84704  Biso   1.000  C
  C447     1.0000 0.86007  0.19583  0.99856  Biso   1.000  C
  C448     1.0000 0.50247  0.83473  0.33359  Biso   1.000  C
  C449     1.0000 0.67761  0.00121  0.64686  Biso   1.000  C
  C450     1.0000 0.35360  0.17715  0.49159  Biso   1.000  C
  C451     1.0000 0.50568  0.33554  0.16690  Biso   1.000  C
  C452     1.0000 0.29985  0.51967  0.87255  Biso   1.000  C
  C453     1.0000 0.62826  0.69296  0.00646  Biso   1.000  C
  C454     1.0000 0.01245  0.36476  0.30712  Biso   1.000  C
  C455     1.0000 0.80192  0.47223  0.63168  Biso   1.000  C
  C456     1.0000 0.14469  0.67832  0.52178  Biso   1.000  C
  C457     1.0000 0.00447  0.66114  0.32901  Biso   1.000  C
  C458     1.0000 0.31822  0.99112  0.64995  Biso   1.000  C
  C459     1.0000 0.66248  0.33785  0.97568  Biso   1.000  C
  C460     1.0000 0.50244  0.63012  0.19536  Biso   1.000  C
  C461     1.0000 0.81441  0.00772  0.85487  Biso   1.000  C
  C462     1.0000 0.15183  0.31565  0.49366  Biso   1.000  C
  C463     1.0000 0.51006  0.13327  0.30495  Biso   1.000  C
  C464     1.0000 0.16306  0.51391  0.66952  Biso   1.000  C
  C465     1.0000 0.82836  0.83056  0.00421  Biso   1.000  C
  C466     1.0000 0.00003  0.16133  0.17531  Biso   1.000  C
  C467     1.0000 0.66363  0.49990  0.83241  Biso   1.000  C
  C468     1.0000 0.34505  0.81413  0.51505  Biso   1.000  C
  C469     1.0000 0.99403  0.34205  0.67310  Biso   1.000  C
  C470     1.0000 0.67986  0.98032  0.34767  Biso   1.000  C
  C471     1.0000 0.32963  0.65986  0.01888  Biso   1.000  C
  C472     1.0000 0.47949  0.36185  0.80678  Biso   1.000  C
  C473     1.0000 0.18300  0.02130  0.14475  Biso   1.000  C
  C474     1.0000 0.84640  0.67500  0.50334  Biso   1.000  C
  C475     1.0000 0.50406  0.86428  0.70038  Biso   1.000  C
  C476     1.0000 0.82979  0.51523  0.33593  Biso   1.000  C
  C477     1.0000 0.15906  0.16653  0.98900  Biso   1.000  C
  C478     1.0000 0.98739  0.84024  0.82939  Biso   1.000  C
  C479     1.0000 0.33097  0.47524  0.16437  Biso   1.000  C
  C480     1.0000 0.65090  0.17569  0.49395  Biso   1.000  C
  C481     1.0000 0.36225  0.78726  0.52224  Biso   1.000  C
  C482     1.0000 0.46704  0.37816  0.78124  Biso   1.000  C
  C483     1.0000 0.80155  0.51664  0.34847  Biso   1.000  C
  C484     1.0000 0.84199  0.80216  0.00749  Biso   1.000  C
  C485     1.0000 0.99715  0.35655  0.70136  Biso   1.000  C
  C486     1.0000 0.30337  0.47045  0.15005  Biso   1.000  C
  C487     1.0000 0.13725  0.28843  0.48394  Biso   1.000  C
  C488     1.0000 0.99327  0.85243  0.80090  Biso   1.000  C
  C489     1.0000 0.70676  0.98151  0.36571  Biso   1.000  C
  C490     1.0000 0.65072  0.30889  0.97768  Biso   1.000  C
  C491     1.0000 0.50943  0.88169  0.72622  Biso   1.000  C
  C492     1.0000 0.20988  0.01042  0.13289  Biso   1.000  C
  C493     1.0000 0.63392  0.20178  0.49592  Biso   1.000  C
  C494     1.0000 0.50979  0.61239  0.22178  Biso   1.000  C
  C495     1.0000 0.19257  0.51625  0.65670  Biso   1.000  C
  C496     1.0000 0.14341  0.19411  0.98760  Biso   1.000  C
  C497     1.0000 0.00672  0.64633  0.30052  Biso   1.000  C
  C498     1.0000 0.69194  0.49392  0.84756  Biso   1.000  C
  C499     1.0000 0.86088  0.70268  0.50554  Biso   1.000  C
  C500     1.0000 0.99494  0.14774  0.20324  Biso   1.000  C
  C501     1.0000 0.29022  0.98734  0.63303  Biso   1.000  C
  C502     1.0000 0.34492  0.68827  0.02040  Biso   1.000  C
  C503     1.0000 0.50673  0.11557  0.27816  Biso   1.000  C
  C504     1.0000 0.78864  0.01534  0.87091  Biso   1.000  C
  C505     1.0000 0.60807  0.49936  0.77794  Biso   1.000  C
  C506     1.0000 0.78712  0.62643  0.50914  Biso   1.000  C
  C507     1.0000 0.49598  0.79872  0.65605  Biso   1.000  C
  C508     1.0000 0.10931  0.51302  0.72568  Biso   1.000  C
  C509     1.0000 0.27366  0.60715  0.02591  Biso   1.000  C
  C510     1.0000 0.96915  0.78598  0.87964  Biso   1.000  C
  C511     1.0000 0.85935  0.98584  0.79706  Biso   1.000  C
  C512     1.0000 0.71244  0.12698  0.49288  Biso   1.000  C
  C513     1.0000 0.99879  0.28527  0.61871  Biso   1.000  C
  C514     1.0000 0.36362  0.00106  0.71132  Biso   1.000  C
  C515     1.0000 0.21716  0.11417  0.98956  Biso   1.000  C
  C516     1.0000 0.49877  0.29947  0.85015  Biso   1.000  C
  C517     1.0000 0.38302  0.48796  0.22065  Biso   1.000  C
  C518     1.0000 0.20689  0.36445  0.51674  Biso   1.000  C
  C519     1.0000 0.51697  0.19579  0.35015  Biso   1.000  C
  C520     1.0000 0.88131  0.51061  0.27820  Biso   1.000  C
  C521     1.0000 0.71768  0.39052  0.97727  Biso   1.000  C
  C522     1.0000 0.00987  0.21691  0.12148  Biso   1.000  C
  C523     1.0000 0.13536  0.04410  0.20162  Biso   1.000  C
  C524     1.0000 0.28412  0.86243  0.50326  Biso   1.000  C
  C525     1.0000 0.99057  0.71963  0.38174  Biso   1.000  C
  C526     1.0000 0.63009  0.97242  0.28564  Biso   1.000  C
  C527     1.0000 0.77706  0.88760  0.99583  Biso   1.000  C
  C528     1.0000 0.47957  0.69234  0.15391  Biso   1.000  C
  C529     1.0000 0.79537  0.15253  0.01108  Biso   1.000  C
  C530     1.0000 0.99421  0.79824  0.14191  Biso   1.000  C
  C531     1.0000 0.12856  0.98335  0.78742  Biso   1.000  C
  C532     1.0000 0.29550  0.13147  0.50975  Biso   1.000  C
  C533     1.0000 0.50321  0.78050  0.39243  Biso   1.000  C
  C534     1.0000 0.62638  0.00222  0.70718  Biso   1.000  C
  C535     1.0000 0.69092  0.65404  0.97980  Biso   1.000  C
  C536     1.0000 0.51081  0.27992  0.11311  Biso   1.000  C
  C537     1.0000 0.34053  0.52389  0.80851  Biso   1.000  C
  C538     1.0000 0.20529  0.62945  0.51241  Biso   1.000  C
  C539     1.0000 0.00799  0.30205  0.35145  Biso   1.000  C
  C540     1.0000 0.84484  0.47912  0.69682  Biso   1.000  C
  C541     1.0000 0.19228  0.84849  0.00923  Biso   1.000  C
  C542     1.0000 0.98834  0.19761  0.85303  Biso   1.000  C
  C543     1.0000 0.86783  0.99076  0.21039  Biso   1.000  C
  C544     1.0000 0.70215  0.85838  0.49725  Biso   1.000  C
  C545     1.0000 0.47777  0.21376  0.61363  Biso   1.000  C
  C546     1.0000 0.36041  0.99633  0.29158  Biso   1.000  C
  C547     1.0000 0.30171  0.34696  0.98813  Biso   1.000  C
  C548     1.0000 0.48970  0.71141  0.88883  Biso   1.000  C
  C549     1.0000 0.64851  0.50628  0.19686  Biso   1.000  C
  C550     1.0000 0.79089  0.35981  0.46722  Biso   1.000  C
  C551     1.0000 0.98926  0.69937  0.64719  Biso   1.000  C
  C552     1.0000 0.14875  0.50279  0.30542  Biso   1.000  C
  C553     1.0000 0.97770  0.11830  0.77954  Biso   1.000  C
  C554     1.0000 0.78941  0.00123  0.13655  Biso   1.000  C
  C555     1.0000 0.10911  0.77956  0.01722  Biso   1.000  C
  C556     1.0000 0.48911  0.14651  0.69736  Biso   1.000  C
  C557     1.0000 0.28971  0.01193  0.37084  Biso   1.000  C
  C558     1.0000 0.62496  0.78561  0.51865  Biso   1.000  C
  C559     1.0000 0.49881  0.64629  0.80615  Biso   1.000  C
  C560     1.0000 0.71847  0.52175  0.11638  Biso   1.000  C
  C561     1.0000 0.38253  0.27347  0.98585  Biso   1.000  C
  C562     1.0000 0.97548  0.61848  0.72029  Biso   1.000  C
  C563     1.0000 0.21636  0.49125  0.38881  Biso   1.000  C
  C564     1.0000 0.86884  0.28477  0.49199  Biso   1.000  C
  C565     1.0000 0.00761  0.87785  0.21529  Biso   1.000  C
  C566     1.0000 0.20433  0.96578  0.86390  Biso   1.000  C
  C567     1.0000 0.87701  0.22245  0.99140  Biso   1.000  C
  C568     1.0000 0.50126  0.84614  0.30453  Biso   1.000  C
  C569     1.0000 0.70460  0.00019  0.63108  Biso   1.000  C
  C570     1.0000 0.36949  0.20331  0.48032  Biso   1.000  C
  C571     1.0000 0.49782  0.35022  0.19327  Biso   1.000  C
  C572     1.0000 0.27451  0.51791  0.89200  Biso   1.000  C
  C573     1.0000 0.60890  0.71752  0.01556  Biso   1.000  C
  C574     1.0000 0.01454  0.38310  0.28053  Biso   1.000  C
  C575     1.0000 0.77563  0.46928  0.61329  Biso   1.000  C
  C576     1.0000 0.12812  0.70510  0.52095  Biso   1.000  C
  C577     1.0000 0.30231  0.46509  0.11778  Biso   1.000  C
  C578     1.0000 0.10543  0.28789  0.48046  Biso   1.000  C
  C579     1.0000 0.50672  0.08345  0.28144  Biso   1.000  C
  C580     1.0000 0.79824  0.51143  0.38025  Biso   1.000  C
  C581     1.0000 0.61959  0.30633  0.97650  Biso   1.000  C
  C582     1.0000 0.99299  0.11618  0.20344  Biso   1.000  C
  C583     1.0000 0.21022  0.00111  0.10244  Biso   1.000  C
  C584     1.0000 0.39323  0.78823  0.52011  Biso   1.000  C
  C585     1.0000 0.01303  0.61547  0.30022  Biso   1.000  C
  C586     1.0000 0.70536  0.98472  0.39683  Biso   1.000  C
  C587     1.0000 0.87261  0.79944  0.01276  Biso   1.000  C
  C588     1.0000 0.51450  0.58156  0.21865  Biso   1.000  C
  C589     1.0000 0.69543  0.49435  0.87933  Biso   1.000  C
  C590     1.0000 0.89299  0.70365  0.50723  Biso   1.000  C
  C591     1.0000 0.51087  0.91295  0.72174  Biso   1.000  C
  C592     1.0000 0.19373  0.51209  0.62552  Biso   1.000  C
  C593     1.0000 0.37626  0.68867  0.01756  Biso   1.000  C
  C594     1.0000 0.99717  0.88245  0.79907  Biso   1.000  C
  C595     1.0000 0.79286  0.02479  0.90198  Biso   1.000  C
  C596     1.0000 0.60193  0.20009  0.49720  Biso   1.000  C
  C597     1.0000 0.99815  0.38771  0.70311  Biso   1.000  C
  C598     1.0000 0.28903  0.98641  0.60188  Biso   1.000  C
  C599     1.0000 0.11140  0.19611  0.99118  Biso   1.000  C
  C600     1.0000 0.46344  0.40885  0.78389  Biso   1.000  C
  C601     1.0000 0.20340  0.96275  0.89566  Biso   1.000  C
  C602     1.0000 0.90772  0.21876  0.98647  Biso   1.000  C
  C603     1.0000 0.01191  0.90868  0.21237  Biso   1.000  C
  C604     1.0000 0.70352  0.99799  0.59932  Biso   1.000  C
  C605     1.0000 0.40021  0.20152  0.47396  Biso   1.000  C
  C606     1.0000 0.49730  0.87683  0.29949  Biso   1.000  C
  C607     1.0000 0.27991  0.50975  0.92246  Biso   1.000  C
  C608     1.0000 0.57728  0.71373  0.01739  Biso   1.000  C
  C609     1.0000 0.49988  0.38160  0.19371  Biso   1.000  C
  C610     1.0000 0.78002  0.47139  0.58181  Biso   1.000  C
  C611     1.0000 0.09594  0.70623  0.52169  Biso   1.000  C
  C612     1.0000 0.01415  0.41416  0.28474  Biso   1.000  C
  C613     1.0000 0.78802  0.99998  0.10475  Biso   1.000  C
  C614     1.0000 0.07671  0.78258  0.01943  Biso   1.000  C
  C615     1.0000 0.98000  0.08677  0.78364  Biso   1.000  C
  C616     1.0000 0.29163  0.01189  0.40256  Biso   1.000  C
  C617     1.0000 0.59381  0.78745  0.52301  Biso   1.000  C
  C618     1.0000 0.49280  0.11545  0.69931  Biso   1.000  C
  C619     1.0000 0.71483  0.52305  0.08382  Biso   1.000  C
  C620     1.0000 0.41401  0.27797  0.98356  Biso   1.000  C
  C621     1.0000 0.49373  0.61538  0.80116  Biso   1.000  C
  C622     1.0000 0.21390  0.49177  0.41988  Biso   1.000  C
  C623     1.0000 0.90018  0.28791  0.49454  Biso   1.000  C
  C624     1.0000 0.97154  0.58800  0.71824  Biso   1.000  C
  C625     1.0000 0.99555  0.20011  0.88289  Biso   1.000  C
  C626     1.0000 0.89969  0.99279  0.20730  Biso   1.000  C
  C627     1.0000 0.19377  0.87984  0.00765  Biso   1.000  C
  C628     1.0000 0.47986  0.21017  0.58228  Biso   1.000  C
  C629     1.0000 0.39094  0.98950  0.28756  Biso   1.000  C
  C630     1.0000 0.70102  0.88935  0.49553  Biso   1.000  C
  C631     1.0000 0.48019  0.70922  0.91833  Biso   1.000  C
  C632     1.0000 0.61839  0.49911  0.19807  Biso   1.000  C
  C633     1.0000 0.30015  0.37870  0.99364  Biso   1.000  C
  C634     1.0000 0.99169  0.69935  0.61539  Biso   1.000  C
  C635     1.0000 0.11745  0.50783  0.30297  Biso   1.000  C
  C636     1.0000 0.79288  0.39167  0.46497  Biso   1.000  C
  C637     1.0000 0.98811  0.79767  0.11124  Biso   1.000  C
  C638     1.0000 0.09746  0.98613  0.78763  Biso   1.000  C
  C639     1.0000 0.79445  0.12054  0.01343  Biso   1.000  C
  C640     1.0000 0.50609  0.78821  0.42453  Biso   1.000  C
  C641     1.0000 0.59490  0.00135  0.70603  Biso   1.000  C
  C642     1.0000 0.29659  0.09996  0.51568  Biso   1.000  C
  C643     1.0000 0.51741  0.28270  0.08153  Biso   1.000  C
  C644     1.0000 0.37118  0.52094  0.80333  Biso   1.000  C
  C645     1.0000 0.69098  0.62433  0.96801  Biso   1.000  C
  C646     1.0000 0.00305  0.29983  0.38247  Biso   1.000  C
  C647     1.0000 0.87606  0.48145  0.69991  Biso   1.000  C
  C648     1.0000 0.20368  0.59885  0.51069  Biso   1.000  C
  C649     1.0000 0.98971  0.71572  0.41399  Biso   1.000  C
  C650     1.0000 0.39414  0.00669  0.71231  Biso   1.000  C
  C651     1.0000 0.71271  0.42103  0.97934  Biso   1.000  C
  C652     1.0000 0.47289  0.69251  0.12262  Biso   1.000  C
  C653     1.0000 0.89163  0.98296  0.79707  Biso   1.000  C
  C654     1.0000 0.20511  0.39487  0.52185  Biso   1.000  C
  C655     1.0000 0.51714  0.19659  0.38179  Biso   1.000  C
  C656     1.0000 0.07865  0.50825  0.72316  Biso   1.000  C
  C657     1.0000 0.78182  0.91870  0.99354  Biso   1.000  C
  C658     1.0000 0.01219  0.21362  0.08969  Biso   1.000  C
  C659     1.0000 0.57510  0.50278  0.78259  Biso   1.000  C
  C660     1.0000 0.28549  0.89316  0.49703  Biso   1.000  C
  C661     1.0000 0.00288  0.28846  0.58795  Biso   1.000  C
  C662     1.0000 0.59769  0.97457  0.28707  Biso   1.000  C
  C663     1.0000 0.27671  0.57527  0.02975  Biso   1.000  C
  C664     1.0000 0.50466  0.29711  0.88101  Biso   1.000  C
  C665     1.0000 0.10400  0.04375  0.20147  Biso   1.000  C
  C666     1.0000 0.78705  0.59471  0.50714  Biso   1.000  C
  C667     1.0000 0.49111  0.79654  0.62484  Biso   1.000  C
  C668     1.0000 0.91291  0.50961  0.28074  Biso   1.000  C
  C669     1.0000 0.21615  0.08133  0.98870  Biso   1.000  C
  C670     1.0000 0.96886  0.78736  0.91198  Biso   1.000  C
  C671     1.0000 0.41391  0.49338  0.21828  Biso   1.000  C
  C672     1.0000 0.71274  0.09451  0.49367  Biso   1.000  C
  C673     1.0000 0.19331  0.97151  0.80098  Biso   1.000  C
  C674     1.0000 0.81564  0.21530  0.00057  Biso   1.000  C
  C675     1.0000 0.99868  0.81303  0.20388  Biso   1.000  C
  C676     1.0000 0.68975  0.00140  0.69554  Biso   1.000  C
  C677     1.0000 0.30738  0.19215  0.49808  Biso   1.000  C
  C678     1.0000 0.49883  0.78540  0.32894  Biso   1.000  C
  C679     1.0000 0.27930  0.52509  0.82833  Biso   1.000  C
  C680     1.0000 0.67245  0.71287  0.00584  Biso   1.000  C
  C681     1.0000 0.50482  0.28734  0.17803  Biso   1.000  C
  C682     1.0000 0.78196  0.47751  0.67888  Biso   1.000  C
  C683     1.0000 0.19031  0.69315  0.52060  Biso   1.000  C
  C684     1.0000 0.01647  0.32089  0.28943  Biso   1.000  C
  C685     1.0000 0.80385  0.99069  0.19636  Biso   1.000  C
  C686     1.0000 0.17464  0.78711  0.01237  Biso   1.000  C
  C687     1.0000 0.98213  0.18129  0.78956  Biso   1.000  C
  C688     1.0000 0.29948  0.00680  0.30573  Biso   1.000  C
  C689     1.0000 0.68614  0.79640  0.50476  Biso   1.000  C
  C690     1.0000 0.48011  0.20599  0.68171  Biso   1.000  C
  C691     1.0000 0.70831  0.51699  0.17954  Biso   1.000  C
  C692     1.0000 0.31610  0.28587  0.98607  Biso   1.000  C
  C693     1.0000 0.50209  0.70710  0.82699  Biso   1.000  C
  C694     1.0000 0.20908  0.49654  0.32466  Biso   1.000  C
  C695     1.0000 0.80475  0.29847  0.48449  Biso   1.000  C
  C696     1.0000 0.98371  0.68239  0.70799  Biso   1.000  C
  C697     1.0000 0.69249  0.97379  0.29959  Biso   1.000  C
  C698     1.0000 0.28155  0.67179  0.01886  Biso   1.000  C
  C699     1.0000 0.99275  0.29422  0.68477  Biso   1.000  C
  C700     1.0000 0.19644  0.02800  0.19238  Biso   1.000  C
  C701     1.0000 0.79760  0.68735  0.50418  Biso   1.000  C
  C702     1.0000 0.48084  0.31562  0.78890  Biso   1.000  C
  C703     1.0000 0.81932  0.52013  0.28704  Biso   1.000  C
  C704     1.0000 0.20651  0.17789  0.98659  Biso   1.000  C
  C705     1.0000 0.50320  0.81838  0.71669  Biso   1.000  C
  C706     1.0000 0.31893  0.48138  0.21181  Biso   1.000  C
  C707     1.0000 0.69704  0.18978  0.49337  Biso   1.000  C
  C708     1.0000 0.97978  0.79315  0.81857  Biso   1.000  C
  C709     1.0000 0.30224  0.99074  0.69506  Biso   1.000  C
  C710     1.0000 0.71094  0.32746  0.97877  Biso   1.000  C
  C711     1.0000 0.99548  0.70705  0.31471  Biso   1.000  C
  C712     1.0000 0.79627  0.99596  0.81011  Biso   1.000  C
  C713     1.0000 0.19751  0.30085  0.49989  Biso   1.000  C
  C714     1.0000 0.49535  0.67587  0.21499  Biso   1.000  C
  C715     1.0000 0.17211  0.51960  0.71639  Biso   1.000  C
  C716     1.0000 0.77998  0.82338  0.00319  Biso   1.000  C
  C717     1.0000 0.50918  0.17991  0.28821  Biso   1.000  C
  C718     1.0000 0.67507  0.49601  0.78565  Biso   1.000  C
  C719     1.0000 0.30001  0.79990  0.51373  Biso   1.000  C
  C720     1.0000 0.00628  0.20991  0.18509  Biso   1.000  C
  C721     1.0000 0.51677  0.75869  0.33032  Biso   1.000  C
  C722     1.0000 0.27925  0.54520  0.80436  Biso   1.000  C
  C723     1.0000 0.77626  0.30633  0.49566  Biso   1.000  C
  C724     1.0000 0.97680  0.79104  0.20321  Biso   1.000  C
  C725     1.0000 0.75747  0.49478  0.67012  Biso   1.000  C
  C726     1.0000 0.29234  0.28723  0.96536  Biso   1.000  C
  C727     1.0000 0.03543  0.29517  0.29237  Biso   1.000  C
  C728     1.0000 0.22107  0.98581  0.80732  Biso   1.000  C
  C729     1.0000 0.71608  0.80086  0.51532  Biso   1.000  C
  C730     1.0000 0.49497  0.25818  0.17237  Biso   1.000  C
  C731     1.0000 0.71674  0.98570  0.69271  Biso   1.000  C
  C732     1.0000 0.19966  0.78543  0.99343  Biso   1.000  C
  C733     1.0000 0.46104  0.20330  0.70761  Biso   1.000  C
  C734     1.0000 0.71702  0.49172  0.19632  Biso   1.000  C
  C735     1.0000 0.18759  0.71820  0.50161  Biso   1.000  C
  C736     1.0000 0.96741  0.20823  0.79306  Biso   1.000  C
  C737     1.0000 0.20748  0.47537  0.30063  Biso   1.000  C
  C738     1.0000 0.66408  0.74313  0.99935  Biso   1.000  C
  C739     1.0000 0.99768  0.67840  0.73688  Biso   1.000  C
  C740     1.0000 0.77910  0.97128  0.18966  Biso   1.000  C
  C741     1.0000 0.27770  0.18825  0.48640  Biso   1.000  C
  C742     1.0000 0.52346  0.70519  0.80388  Biso   1.000  C
  C743     1.0000 0.26998  0.99655  0.30927  Biso   1.000  C
  C744     1.0000 0.81886  0.24399  0.01299  Biso   1.000  C
  C745     1.0000 0.00309  0.73676  0.32063  Biso   1.000  C
  C746     1.0000 0.29775  0.00953  0.71989  Biso   1.000  C
  C747     1.0000 0.73557  0.33127  0.99784  Biso   1.000  C
  C748     1.0000 0.47100  0.69608  0.21834  Biso   1.000  C
  C749     1.0000 0.79432  0.97281  0.78756  Biso   1.000  C
  C750     1.0000 0.22769  0.30743  0.48858  Biso   1.000  C
  C751     1.0000 0.52337  0.17502  0.25946  Biso   1.000  C
  C752     1.0000 0.19230  0.54433  0.71772  Biso   1.000  C
  C753     1.0000 0.75356  0.82606  0.98553  Biso   1.000  C
  C754     1.0000 0.02305  0.20602  0.21203  Biso   1.000  C
  C755     1.0000 0.66834  0.47894  0.76007  Biso   1.000  C
  C756     1.0000 0.27032  0.80468  0.52604  Biso   1.000  C
  C757     1.0000 0.00956  0.26596  0.68126  Biso   1.000  C
  C758     1.0000 0.68738  0.98551  0.26988  Biso   1.000  C
  C759     1.0000 0.25459  0.67210  0.03569  Biso   1.000  C
  C760     1.0000 0.49089  0.32341  0.75838  Biso   1.000  C
  C761     1.0000 0.22633  0.03430  0.18913  Biso   1.000  C
  C762     1.0000 0.77195  0.68375  0.48576  Biso   1.000  C
  C763     1.0000 0.49049  0.82363  0.74410  Biso   1.000  C
  C764     1.0000 0.79436  0.54128  0.28560  Biso   1.000  C
  C765     1.0000 0.20295  0.20503  0.00318  Biso   1.000  C
  C766     1.0000 0.96653  0.79732  0.79013  Biso   1.000  C
  C767     1.0000 0.29445  0.46231  0.21613  Biso   1.000  C
  C768     1.0000 0.69078  0.21694  0.47646  Biso   1.000  C
  C769     1.0000 0.48669  0.73634  0.83024  Biso   1.000  C
  C770     1.0000 0.78372  0.46304  0.70876  Biso   1.000  C
  C771     1.0000 0.68065  0.76833  0.49267  Biso   1.000  C
  C772     1.0000 0.96734  0.70908  0.70500  Biso   1.000  C
  C773     1.0000 0.25538  0.50330  0.82998  Biso   1.000  C
  C774     1.0000 0.17209  0.76334  0.03326  Biso   1.000  C
  C775     1.0000 0.99680  0.17514  0.76243  Biso   1.000  C
  C776     1.0000 0.68621  0.01548  0.72292  Biso   1.000  C
  C777     1.0000 0.81175  0.26731  0.47538  Biso   1.000  C
  C778     1.0000 0.49584  0.23217  0.67674  Biso   1.000  C
  C779     1.0000 0.18823  0.96059  0.77157  Biso   1.000  C
  C780     1.0000 0.31632  0.26201  0.00677  Biso   1.000  C
  C781     1.0000 0.51859  0.29163  0.20696  Biso   1.000  C
  C782     1.0000 0.23522  0.51452  0.32500  Biso   1.000  C
  C783     1.0000 0.31351  0.22043  0.50891  Biso   1.000  C
  C784     1.0000 0.99848  0.32497  0.26423  Biso   1.000  C
  C785     1.0000 0.72469  0.54393  0.18215  Biso   1.000  C
  C786     1.0000 0.78753  0.21122  0.98692  Biso   1.000  C
  C787     1.0000 0.01906  0.81438  0.22826  Biso   1.000  C
  C788     1.0000 0.30659  0.02521  0.27953  Biso   1.000  C
  C789     1.0000 0.21851  0.68745  0.53617  Biso   1.000  C
  C790     1.0000 0.47982  0.78725  0.30304  Biso   1.000  C
  C791     1.0000 0.80560  0.00149  0.22533  Biso   1.000  C
  C792     1.0000 0.70229  0.70804  0.01187  Biso   1.000  C
  C793     1.0000 0.49431  0.20737  0.29302  Biso   1.000  C
  C794     1.0000 0.32090  0.50502  0.23250  Biso   1.000  C
  C795     1.0000 0.19096  0.27253  0.51203  Biso   1.000  C
  C796     1.0000 0.99237  0.23781  0.17977  Biso   1.000  C
  C797     1.0000 0.82124  0.50127  0.26137  Biso   1.000  C
  C798     1.0000 0.71103  0.30058  0.96282  Biso   1.000  C
  C799     1.0000 0.98490  0.70207  0.28488  Biso   1.000  C
  C800     1.0000 0.18730  0.01860  0.22057  Biso   1.000  C
  C801     1.0000 0.30427  0.77054  0.50158  Biso   1.000  C
  C802     1.0000 0.51915  0.67684  0.23687  Biso   1.000  C
  C803     1.0000 0.72091  0.96237  0.30614  Biso   1.000  C
  C804     1.0000 0.78146  0.79956  0.02313  Biso   1.000  C
  C805     1.0000 0.51911  0.79021  0.71426  Biso   1.000  C
  C806     1.0000 0.70472  0.50920  0.78824  Biso   1.000  C
  C807     1.0000 0.79686  0.71188  0.52492  Biso   1.000  C
  C808     1.0000 0.99289  0.76607  0.82450  Biso   1.000  C
  C809     1.0000 0.17126  0.50090  0.74181  Biso   1.000  C
  C810     1.0000 0.28512  0.69720  0.00032  Biso   1.000  C
  C811     1.0000 0.97205  0.29587  0.70953  Biso   1.000  C
  C812     1.0000 0.77483  0.01895  0.80858  Biso   1.000  C
  C813     1.0000 0.72362  0.18816  0.51026  Biso   1.000  C
  C814     1.0000 0.47111  0.28610  0.79548  Biso   1.000  C
  C815     1.0000 0.28252  0.96611  0.69147  Biso   1.000  C
  C816     1.0000 0.23377  0.17263  0.97010  Biso   1.000  C
  C817     1.0000 0.96841  0.22951  0.77156  Biso   1.000  C
  C818     1.0000 0.75676  0.96710  0.20998  Biso   1.000  C
  C819     1.0000 0.21951  0.76403  0.99728  Biso   1.000  C
  C820     1.0000 0.46063  0.22690  0.72601  Biso   1.000  C
  C821     1.0000 0.25207  0.00070  0.28590  Biso   1.000  C
  C822     1.0000 0.73594  0.77801  0.51580  Biso   1.000  C
  C823     1.0000 0.52663  0.72800  0.78365  Biso   1.000  C
  C824     1.0000 0.74016  0.49329  0.21629  Biso   1.000  C
  C825     1.0000 0.27113  0.26620  0.96843  Biso   1.000  C
  C826     1.0000 0.99656  0.69975  0.75853  Biso   1.000  C
  C827     1.0000 0.22950  0.47371  0.27977  Biso   1.000  C
  C828     1.0000 0.75530  0.28480  0.49585  Biso   1.000  C
  C829     1.0000 0.97367  0.77416  0.22770  Biso   1.000  C
  C830     1.0000 0.24148  0.98649  0.78635  Biso   1.000  C
  C831     1.0000 0.79823  0.26531  0.00798  Biso   1.000  C
  C832     1.0000 0.51657  0.73894  0.30701  Biso   1.000  C
  C833     1.0000 0.73816  0.98361  0.71498  Biso   1.000  C
  C834     1.0000 0.25660  0.20980  0.48854  Biso   1.000  C
  C835     1.0000 0.49461  0.23721  0.19475  Biso   1.000  C
  C836     1.0000 0.25556  0.54495  0.78603  Biso   1.000  C
  C837     1.0000 0.68513  0.76517  0.00264  Biso   1.000  C
  C838     1.0000 0.03678  0.27503  0.26870  Biso   1.000  C
  C839     1.0000 0.73564  0.49737  0.69092  Biso   1.000  C
  C840     1.0000 0.20850  0.73969  0.50207  Biso   1.000  C
  C841     1.0000 0.21016  0.96210  0.75220  Biso   1.000  C
  C842     1.0000 0.76651  0.23286  0.98311  Biso   1.000  C
  C843     1.0000 0.01791  0.79377  0.24987  Biso   1.000  C
  C844     1.0000 0.70642  0.01257  0.74557  Biso   1.000  C
  C845     1.0000 0.29165  0.24199  0.50988  Biso   1.000  C
  C846     1.0000 0.48084  0.76623  0.28170  Biso   1.000  C
  C847     1.0000 0.23323  0.50488  0.80993  Biso   1.000  C
  C848     1.0000 0.72331  0.72882  0.01326  Biso   1.000  C
  C849     1.0000 0.52079  0.26878  0.22700  Biso   1.000  C
  C850     1.0000 0.76039  0.46597  0.72781  Biso   1.000  C
  C851     1.0000 0.24129  0.70720  0.53271  Biso   1.000  C
  C852     1.0000 0.00155  0.30522  0.24218  Biso   1.000  C
  C853     1.0000 0.78588  0.99288  0.24600  Biso   1.000  C
  C854     1.0000 0.19223  0.74113  0.03478  Biso   1.000  C
  C855     1.0000 0.99382  0.19576  0.74036  Biso   1.000  C
  C856     1.0000 0.28533  0.03100  0.25917  Biso   1.000  C
  C857     1.0000 0.70204  0.74628  0.49278  Biso   1.000  C
  C858     1.0000 0.49557  0.25428  0.69794  Biso   1.000  C
  C859     1.0000 0.74983  0.54435  0.19977  Biso   1.000  C
  C860     1.0000 0.29522  0.24174  0.00639  Biso   1.000  C
  C861     1.0000 0.49045  0.75808  0.81042  Biso   1.000  C
  C862     1.0000 0.25568  0.51205  0.30364  Biso   1.000  C
  C863     1.0000 0.78927  0.24755  0.47854  Biso   1.000  C
  C864     1.0000 0.96602  0.72809  0.72790  Biso   1.000  C
  C865     1.0000 0.68982  0.47724  0.73879  Biso   1.000  C
  C866     1.0000 0.74910  0.70317  0.48861  Biso   1.000  C
  C867     1.0000 0.49398  0.80334  0.76702  Biso   1.000  C
  C868     1.0000 0.21102  0.54566  0.74099  Biso   1.000  C
  C869     1.0000 0.23316  0.69362  0.03509  Biso   1.000  C
  C870     1.0000 0.96582  0.77549  0.76953  Biso   1.000  C
  C871     1.0000 0.77251  0.97222  0.76672  Biso   1.000  C
  C872     1.0000 0.71303  0.23729  0.47368  Biso   1.000  C
  C873     1.0000 0.00522  0.24424  0.70207  Biso   1.000  C
  C874     1.0000 0.27572  0.00323  0.73866  Biso   1.000  C
  C875     1.0000 0.22577  0.22542  0.00115  Biso   1.000  C
  C876     1.0000 0.48899  0.30167  0.73675  Biso   1.000  C
  C877     1.0000 0.27353  0.46806  0.23832  Biso   1.000  C
  C878     1.0000 0.24785  0.28575  0.48978  Biso   1.000  C
  C879     1.0000 0.52127  0.19605  0.23904  Biso   1.000  C
  C880     1.0000 0.77549  0.54152  0.26147  Biso   1.000  C
  C881     1.0000 0.75483  0.30938  0.00301  Biso   1.000  C
  C882     1.0000 0.02544  0.22888  0.23136  Biso   1.000  C
  C883     1.0000 0.24580  0.02816  0.21122  Biso   1.000  C
  C884     1.0000 0.25029  0.78341  0.52491  Biso   1.000  C
  C885     1.0000 0.00142  0.75895  0.29987  Biso   1.000  C
  C886     1.0000 0.71051  0.98757  0.25147  Biso   1.000  C
  C887     1.0000 0.73206  0.80484  0.98556  Biso   1.000  C
  C888     1.0000 0.47097  0.71476  0.24091  Biso   1.000  C
  C889     1.0000 0.74292  0.96242  0.28507  Biso   1.000  C
  C890     1.0000 0.26430  0.71930  0.00062  Biso   1.000  C
  C891     1.0000 0.97160  0.27304  0.72864  Biso   1.000  C
  C892     1.0000 0.20795  0.01353  0.24303  Biso   1.000  C
  C893     1.0000 0.77418  0.73207  0.52383  Biso   1.000  C
  C894     1.0000 0.46807  0.26568  0.77195  Biso   1.000  C
  C895     1.0000 0.80093  0.50102  0.23895  Biso   1.000  C
  C896     1.0000 0.25697  0.19239  0.97101  Biso   1.000  C
  C897     1.0000 0.52120  0.77047  0.73691  Biso   1.000  C
  C898     1.0000 0.30197  0.50804  0.25552  Biso   1.000  C
  C899     1.0000 0.74390  0.21087  0.50906  Biso   1.000  C
  C900     1.0000 0.99263  0.74392  0.80483  Biso   1.000  C
  C901     1.0000 0.26056  0.95986  0.71181  Biso   1.000  C
  C902     1.0000 0.73178  0.27939  0.96737  Biso   1.000  C
  C903     1.0000 0.98414  0.72418  0.26410  Biso   1.000  C
  C904     1.0000 0.75378  0.01639  0.78661  Biso   1.000  C
  C905     1.0000 0.21328  0.25263  0.51276  Biso   1.000  C
  C906     1.0000 0.51879  0.69890  0.25771  Biso   1.000  C
  C907     1.0000 0.18960  0.50384  0.76523  Biso   1.000  C
  C908     1.0000 0.75848  0.78019  0.02550  Biso   1.000  C
  C909     1.0000 0.49112  0.22699  0.27010  Biso   1.000  C
  C910     1.0000 0.72517  0.50637  0.76651  Biso   1.000  C
  C911     1.0000 0.28306  0.75037  0.50337  Biso   1.000  C
  C912     1.0000 0.99711  0.26117  0.19840  Biso   1.000  C
  C913     1.0000 0.73812  0.48580  0.71914  Biso   1.000  C
  C914     1.0000 0.72929  0.75141  0.50441  Biso   1.000  C
  C915     1.0000 0.50881  0.75241  0.78668  Biso   1.000  C
  C916     1.0000 0.23308  0.52475  0.78658  Biso   1.000  C
  C917     1.0000 0.21724  0.74139  0.01790  Biso   1.000  C
  C918     1.0000 0.98059  0.72560  0.75403  Biso   1.000  C
  C919     1.0000 0.73198  0.99693  0.74188  Biso   1.000  C
  C920     1.0000 0.76114  0.25634  0.48655  Biso   1.000  C
  C921     1.0000 0.98054  0.22269  0.74395  Biso   1.000  C
  C922     1.0000 0.23699  0.97444  0.75941  Biso   1.000  C
  C923     1.0000 0.27261  0.24369  0.98835  Biso   1.000  C
  C924     1.0000 0.47848  0.25045  0.72303  Biso   1.000  C
  C925     1.0000 0.25344  0.49218  0.28118  Biso   1.000  C
  C926     1.0000 0.26370  0.23560  0.50292  Biso   1.000  C
  C927     1.0000 0.50833  0.24265  0.22100  Biso   1.000  C
  C928     1.0000 0.75679  0.51984  0.21671  Biso   1.000  C
  C929     1.0000 0.77301  0.25954  0.99433  Biso   1.000  C
  C930     1.0000 0.01984  0.27995  0.24478  Biso   1.000  C
  C931     1.0000 0.25838  0.01788  0.26256  Biso   1.000  C
  C932     1.0000 0.23443  0.73319  0.51723  Biso   1.000  C
  C933     1.0000 0.99383  0.77544  0.25056  Biso   1.000  C
  C934     1.0000 0.76111  0.97766  0.23772  Biso   1.000  C
  C935     1.0000 0.71444  0.75806  0.00718  Biso   1.000  C
  C936     1.0000 0.49706  0.74081  0.28399  Biso   1.000  C
  C937     1.0000 0.75294  0.28359  0.98841  Biso   1.000  C
  C938     1.0000 0.99379  0.75170  0.27167  Biso   1.000  C
  C939     1.0000 0.25807  0.97893  0.73539  Biso   1.000  C
  C940     1.0000 0.24184  0.25958  0.50343  Biso   1.000  C
  C941     1.0000 0.49459  0.71745  0.26152  Biso   1.000  C
  C942     1.0000 0.75239  0.99402  0.76669  Biso   1.000  C
  C943     1.0000 0.73506  0.78210  0.00583  Biso   1.000  C
  C944     1.0000 0.50701  0.22155  0.24544  Biso   1.000  C
  C945     1.0000 0.20920  0.52578  0.76472  Biso   1.000  C
  C946     1.0000 0.25623  0.75641  0.51399  Biso   1.000  C
  C947     1.0000 0.01379  0.25656  0.22402  Biso   1.000  C
  C948     1.0000 0.71594  0.49171  0.74140  Biso   1.000  C
  C949     1.0000 0.23920  0.71784  0.01732  Biso   1.000  C
  C950     1.0000 0.98787  0.24822  0.72540  Biso   1.000  C
  C951     1.0000 0.73752  0.97487  0.25830  Biso   1.000  C
  C952     1.0000 0.74992  0.72672  0.50814  Biso   1.000  C
  C953     1.0000 0.47645  0.27409  0.74414  Biso   1.000  C
  C954     1.0000 0.23717  0.01851  0.23863  Biso   1.000  C
  C955     1.0000 0.25117  0.21934  0.98783  Biso   1.000  C
  C956     1.0000 0.50868  0.77656  0.76272  Biso   1.000  C
  C957     1.0000 0.77980  0.52240  0.23907  Biso   1.000  C
  C958     1.0000 0.73901  0.23393  0.48918  Biso   1.000  C
  C959     1.0000 0.97994  0.74918  0.77572  Biso   1.000  C
  C960     1.0000 0.27801  0.48910  0.25833  Biso   1.000  C
  Cu1      1.0000 0.97990  0.49214  0.65955  Biso   1.000  Cu
  Cu2      1.0000 0.65166  0.99292  0.49661  Biso   1.000  Cu
  Cu3      1.0000 0.47992  0.64775  0.01760  Biso   1.000  Cu
  Cu4      1.0000 0.48034  0.50969  0.84598  Biso   1.000  Cu
  Cu5      1.0000 0.15127  0.98387  0.99898  Biso   1.000  Cu
  Cu6      1.0000 0.99803  0.65327  0.50978  Biso   1.000  Cu
  Cu7      1.0000 0.49366  0.00934  0.65417  Biso   1.000  Cu
  Cu8      1.0000 0.84523  0.49278  0.48784  Biso   1.000  Cu
  Cu9      1.0000 0.00612  0.15169  0.98893  Biso   1.000  Cu
  Cu10     1.0000 0.99958  0.98808  0.84664  Biso   1.000  Cu
  Cu11     1.0000 0.34745  0.48241  0.01432  Biso   1.000  Cu
  Cu12     1.0000 0.50040  0.14539  0.48705  Biso   1.000  Cu
  Cu13     1.0000 0.01145  0.51218  0.34914  Biso   1.000  Cu
  Cu14     1.0000 0.34439  0.99398  0.50064  Biso   1.000  Cu
  Cu15     1.0000 0.51260  0.34554  0.98363  Biso   1.000  Cu
  Cu16     1.0000 0.51216  0.48840  0.15222  Biso   1.000  Cu
  Cu17     1.0000 0.84524  0.01528  0.00486  Biso   1.000  Cu
  Cu18     1.0000 0.00109  0.34577  0.48817  Biso   1.000  Cu
  Cu19     1.0000 0.49476  0.98434  0.34177  Biso   1.000  Cu
  Cu20     1.0000 0.14787  0.49584  0.51633  Biso   1.000  Cu
  Cu21     1.0000 0.97880  0.84851  0.01096  Biso   1.000  Cu
  Cu22     1.0000 0.00268  0.01098  0.15062  Biso   1.000  Cu
  Cu23     1.0000 0.65136  0.51552  0.98617  Biso   1.000  Cu
  Cu24     1.0000 0.49397  0.84583  0.51943  Biso   1.000  Cu
  Cu25     1.0000 0.20365  0.97886  0.99873  Biso   1.000  Cu
  Cu26     1.0000 0.01002  0.20553  0.98621  Biso   1.000  Cu
  Cu27     1.0000 0.00310  0.01164  0.20471  Biso   1.000  Cu
  Cu28     1.0000 0.70552  0.99074  0.49902  Biso   1.000  Cu
  Cu29     1.0000 0.50046  0.20148  0.48328  Biso   1.000  Cu
  Cu30     1.0000 0.49460  0.98206  0.28708  Biso   1.000  Cu
  Cu31     1.0000 0.29343  0.47566  0.01925  Biso   1.000  Cu
  Cu32     1.0000 0.47528  0.70113  0.02137  Biso   1.000  Cu
  Cu33     1.0000 0.51800  0.48251  0.20575  Biso   1.000  Cu
  Cu34     1.0000 0.78975  0.49450  0.48241  Biso   1.000  Cu
  Cu35     1.0000 0.99600  0.70588  0.51521  Biso   1.000  Cu
  Cu36     1.0000 0.01428  0.51547  0.29518  Biso   1.000  Cu
  Cu37     1.0000 0.79142  0.01766  0.00346  Biso   1.000  Cu
  Cu38     1.0000 0.97333  0.79343  0.01417  Biso   1.000  Cu
  Cu39     1.0000 0.99362  0.98499  0.79185  Biso   1.000  Cu
  Cu40     1.0000 0.28994  0.99763  0.49956  Biso   1.000  Cu
  Cu41     1.0000 0.49324  0.79191  0.52243  Biso   1.000  Cu
  Cu42     1.0000 0.49729  0.01703  0.70738  Biso   1.000  Cu
  Cu43     1.0000 0.70582  0.52109  0.97972  Biso   1.000  Cu
  Cu44     1.0000 0.52063  0.29030  0.98126  Biso   1.000  Cu
  Cu45     1.0000 0.47370  0.51351  0.79323  Biso   1.000  Cu
  Cu46     1.0000 0.20261  0.49705  0.52250  Biso   1.000  Cu
  Cu47     1.0000 0.00222  0.29231  0.48711  Biso   1.000  Cu
  Cu48     1.0000 0.97579  0.48601  0.71328  Biso   1.000  Cu
  H1       1.0000 0.23011  0.78638  0.53472  Biso   1.000  H
  H2       1.0000 0.49302  0.30595  0.71319  Biso   1.000  H
  H3       1.0000 0.75916  0.55709  0.25690  Biso   1.000  H
  H4       1.0000 0.71404  0.80279  0.97213  Biso   1.000  H
  H5       1.0000 0.01872  0.22518  0.69942  Biso   1.000  H
  H6       1.0000 0.25930  0.45014  0.23962  Biso   1.000  H
  H7       1.0000 0.26964  0.29002  0.48157  Biso   1.000  H
  H8       1.0000 0.95750  0.78210  0.74816  Biso   1.000  H
  H9       1.0000 0.70742  0.99674  0.22938  Biso   1.000  H
  H10      1.0000 0.77323  0.31356  0.01741  Biso   1.000  H
  H11      1.0000 0.48686  0.81120  0.78890  Biso   1.000  H
  H12      1.0000 0.26859  0.03025  0.20616  Biso   1.000  H
  H13      1.0000 0.71044  0.25594  0.45966  Biso   1.000  H
  H14      1.0000 0.45156  0.72820  0.24320  Biso   1.000  H
  H15      1.0000 0.22964  0.56090  0.73772  Biso   1.000  H
  H16      1.0000 0.22273  0.24646  0.01149  Biso   1.000  H
  H17      1.0000 0.00698  0.78177  0.30391  Biso   1.000  H
  H18      1.0000 0.68639  0.46464  0.71854  Biso   1.000  H
  H19      1.0000 0.73021  0.70054  0.47433  Biso   1.000  H
  H20      1.0000 0.03735  0.22506  0.25181  Biso   1.000  H
  H21      1.0000 0.27411  0.01878  0.75581  Biso   1.000  H
  H22      1.0000 0.21389  0.69055  0.04806  Biso   1.000  H
  H23      1.0000 0.53258  0.19277  0.21780  Biso   1.000  H
  H24      1.0000 0.77246  0.95440  0.75049  Biso   1.000  H
  H25      1.0000 0.26181  0.99714  0.79201  Biso   1.000  H
  H26      1.0000 0.80251  0.28751  0.01446  Biso   1.000  H
  H27      1.0000 0.95410  0.75991  0.22801  Biso   1.000  H
  H28      1.0000 0.75917  0.97246  0.70887  Biso   1.000  H
  H29      1.0000 0.23456  0.20262  0.48400  Biso   1.000  H
  H30      1.0000 0.53065  0.71908  0.30799  Biso   1.000  H
  H31      1.0000 0.25506  0.56249  0.77050  Biso   1.000  H
  H32      1.0000 0.67735  0.78853  0.00231  Biso   1.000  H
  H33      1.0000 0.48640  0.21533  0.19104  Biso   1.000  H
  H34      1.0000 0.71558  0.51082  0.68744  Biso   1.000  H
  H35      1.0000 0.20723  0.75770  0.48907  Biso   1.000  H
  H36      1.0000 0.05481  0.25980  0.26858  Biso   1.000  H
  H37      1.0000 0.73794  0.95432  0.20538  Biso   1.000  H
  H38      1.0000 0.23842  0.76543  0.98255  Biso   1.000  H
  H39      1.0000 0.96101  0.25059  0.77801  Biso   1.000  H
  H40      1.0000 0.23008  0.99248  0.28743  Biso   1.000  H
  H41      1.0000 0.75835  0.78230  0.52356  Biso   1.000  H
  H42      1.0000 0.44638  0.22591  0.74503  Biso   1.000  H
  H43      1.0000 0.74503  0.47547  0.23105  Biso   1.000  H
  H44      1.0000 0.25293  0.26998  0.95402  Biso   1.000  H
  H45      1.0000 0.54247  0.72365  0.76684  Biso   1.000  H
  H46      1.0000 0.22614  0.45579  0.26304  Biso   1.000  H
  H47      1.0000 0.73373  0.28947  0.50371  Biso   1.000  H
  H48      1.0000 0.00730  0.69568  0.77898  Biso   1.000  H
  H49      1.0000 0.27584  0.52607  0.30368  Biso   1.000  H
  H50      1.0000 0.29771  0.26383  0.51814  Biso   1.000  H
  H51      1.0000 0.53361  0.27414  0.24539  Biso   1.000  H
  H52      1.0000 0.76579  0.56086  0.19896  Biso   1.000  H
  H53      1.0000 0.74595  0.22718  0.97529  Biso   1.000  H
  H54      1.0000 0.98739  0.31175  0.22275  Biso   1.000  H
  H55      1.0000 0.29167  0.04488  0.24142  Biso   1.000  H
  H56      1.0000 0.26282  0.70600  0.54339  Biso   1.000  H
  H57      1.0000 0.03268  0.79227  0.26961  Biso   1.000  H
  H58      1.0000 0.79069  0.00100  0.26873  Biso   1.000  H
  H59      1.0000 0.74513  0.72132  0.01980  Biso   1.000  H
  H60      1.0000 0.46670  0.76802  0.26263  Biso   1.000  H
  H61      1.0000 0.76042  0.45648  0.74878  Biso   1.000  H
  H62      1.0000 0.69622  0.72635  0.48284  Biso   1.000  H
  H63      1.0000 0.47952  0.77881  0.81532  Biso   1.000  H
  H64      1.0000 0.21653  0.48897  0.81297  Biso   1.000  H
  H65      1.0000 0.18607  0.72329  0.04888  Biso   1.000  H
  H66      1.0000 0.95140  0.74624  0.72489  Biso   1.000  H
  H67      1.0000 0.70396  0.02653  0.76592  Biso   1.000  H
  H68      1.0000 0.79298  0.22498  0.47280  Biso   1.000  H
  H69      1.0000 0.00406  0.19047  0.71936  Biso   1.000  H
  H70      1.0000 0.20413  0.95488  0.72928  Biso   1.000  H
  H71      1.0000 0.29237  0.22461  0.02210  Biso   1.000  H
  H72      1.0000 0.50788  0.27354  0.69152  Biso   1.000  H
  H73      1.0000 0.74728  0.51523  0.76797  Biso   1.000  H
  H74      1.0000 0.77507  0.75057  0.53797  Biso   1.000  H
  H75      1.0000 0.53234  0.75133  0.73428  Biso   1.000  H
  H76      1.0000 0.19199  0.48909  0.78526  Biso   1.000  H
  H77      1.0000 0.26602  0.73880  0.98642  Biso   1.000  H
  H78      1.0000 0.00705  0.72564  0.81219  Biso   1.000  H
  H79      1.0000 0.73855  0.03330  0.78373  Biso   1.000  H
  H80      1.0000 0.76326  0.20925  0.52266  Biso   1.000  H
  H81      1.0000 0.95574  0.27697  0.74630  Biso   1.000  H
  H82      1.0000 0.24636  0.94037  0.70938  Biso   1.000  H
  H83      1.0000 0.27870  0.18814  0.96195  Biso   1.000  H
  H84      1.0000 0.45955  0.24376  0.77825  Biso   1.000  H
  H85      1.0000 0.30523  0.52418  0.27180  Biso   1.000  H
  H86      1.0000 0.21034  0.23151  0.52470  Biso   1.000  H
  H87      1.0000 0.48112  0.24817  0.27390  Biso   1.000  H
  H88      1.0000 0.80127  0.48658  0.21948  Biso   1.000  H
  H89      1.0000 0.73352  0.26162  0.95283  Biso   1.000  H
  H90      1.0000 0.98956  0.28284  0.19218  Biso   1.000  H
  H91      1.0000 0.19847  0.00831  0.26439  Biso   1.000  H
  H92      1.0000 0.28572  0.73054  0.49084  Biso   1.000  H
  H93      1.0000 0.97369  0.71709  0.24342  Biso   1.000  H
  H94      1.0000 0.76504  0.95393  0.29060  Biso   1.000  H
  H95      1.0000 0.75947  0.76721  0.04531  Biso   1.000  H
  H96      1.0000 0.53882  0.69947  0.27164  Biso   1.000  H
  H97      1.0000 0.86514  0.01095  0.91330  Biso   1.000  H
  H98      1.0000 0.88966  0.87483  0.01008  Biso   1.000  H
  H99      1.0000 0.99208  0.90268  0.87234  Biso   1.000  H
  H100     1.0000 0.36577  0.99614  0.59098  Biso   1.000  H
  H101     1.0000 0.39948  0.86205  0.49655  Biso   1.000  H
  H102     1.0000 0.49480  0.91720  0.64672  Biso   1.000  H
  H103     1.0000 0.62202  0.51143  0.89451  Biso   1.000  H
  H104     1.0000 0.60002  0.37866  0.97278  Biso   1.000  H
  H105     1.0000 0.48540  0.41687  0.85717  Biso   1.000  H
  H106     1.0000 0.11865  0.49833  0.60667  Biso   1.000  H
  H107     1.0000 0.09243  0.36353  0.49359  Biso   1.000  H
  H108     1.0000 0.98978  0.40304  0.62686  Biso   1.000  H
  H109     1.0000 0.13583  0.01555  0.08377  Biso   1.000  H
  H110     1.0000 0.09891  0.11906  0.99477  Biso   1.000  H
  H111     1.0000 0.99297  0.10234  0.12803  Biso   1.000  H
  H112     1.0000 0.63018  0.98372  0.40503  Biso   1.000  H
  H113     1.0000 0.59345  0.12611  0.49227  Biso   1.000  H
  H114     1.0000 0.51080  0.07699  0.35695  Biso   1.000  H
  H115     1.0000 0.37804  0.47946  0.10157  Biso   1.000  H
  H116     1.0000 0.39085  0.61334  0.01737  Biso   1.000  H
  H117     1.0000 0.50171  0.57808  0.13872  Biso   1.000  H
  H118     1.0000 0.87368  0.49917  0.39598  Biso   1.000  H
  H119     1.0000 0.90567  0.62701  0.50273  Biso   1.000  H
  H120     1.0000 0.01463  0.59912  0.37590  Biso   1.000  H
  H121     1.0000 0.08676  0.96829  0.86185  Biso   1.000  H
  H122     1.0000 0.87002  0.10452  0.00692  Biso   1.000  H
  H123     1.0000 0.99371  0.87204  0.09776  Biso   1.000  H
  H124     1.0000 0.58431  0.01001  0.63121  Biso   1.000  H
  H125     1.0000 0.37003  0.08655  0.50229  Biso   1.000  H
  H126     1.0000 0.50648  0.86341  0.42001  Biso   1.000  H
  H127     1.0000 0.39145  0.50961  0.87655  Biso   1.000  H
  H128     1.0000 0.61999  0.60479  0.98371  Biso   1.000  H
  H129     1.0000 0.52049  0.35899  0.07758  Biso   1.000  H
  H130     1.0000 0.89311  0.47584  0.62550  Biso   1.000  H
  H131     1.0000 0.12994  0.59030  0.52681  Biso   1.000  H
  H132     1.0000 0.00643  0.37251  0.39991  Biso   1.000  H
  H133     1.0000 0.90759  0.00903  0.13306  Biso   1.000  H
  H134     1.0000 0.11964  0.89652  0.00056  Biso   1.000  H
  H135     1.0000 0.99230  0.12665  0.90073  Biso   1.000  H
  H136     1.0000 0.40524  0.99416  0.36401  Biso   1.000  H
  H137     1.0000 0.62587  0.90321  0.50450  Biso   1.000  H
  H138     1.0000 0.48743  0.13403  0.57934  Biso   1.000  H
  H139     1.0000 0.60017  0.50221  0.12332  Biso   1.000  H
  H140     1.0000 0.37380  0.39320  0.99468  Biso   1.000  H
  H141     1.0000 0.47116  0.63248  0.92096  Biso   1.000  H
  H142     1.0000 0.09981  0.51625  0.37654  Biso   1.000  H
  H143     1.0000 0.86556  0.40470  0.47582  Biso   1.000  H
  H144     1.0000 0.98833  0.62384  0.60118  Biso   1.000  H
  H145     1.0000 0.57538  0.51388  0.85833  Biso   1.000  H
  H146     1.0000 0.86320  0.58597  0.50035  Biso   1.000  H
  H147     1.0000 0.48421  0.87165  0.60846  Biso   1.000  H
  H148     1.0000 0.07628  0.49613  0.64569  Biso   1.000  H
  H149     1.0000 0.35137  0.57167  0.02608  Biso   1.000  H
  H150     1.0000 0.98825  0.86061  0.92136  Biso   1.000  H
  H151     1.0000 0.90375  0.00297  0.86997  Biso   1.000  H
  H152     1.0000 0.63723  0.08513  0.49363  Biso   1.000  H
  H153     1.0000 0.00007  0.36327  0.58129  Biso   1.000  H
  H154     1.0000 0.40653  0.00901  0.63665  Biso   1.000  H
  H155     1.0000 0.13923  0.07706  0.98475  Biso   1.000  H
  H156     1.0000 0.49716  0.37177  0.89650  Biso   1.000  H
  H157     1.0000 0.41948  0.48876  0.14293  Biso   1.000  H
  H158     1.0000 0.13280  0.40523  0.50295  Biso   1.000  H
  H159     1.0000 0.51057  0.12192  0.39585  Biso   1.000  H
  H160     1.0000 0.91900  0.50637  0.35839  Biso   1.000  H
  H161     1.0000 0.63505  0.42267  0.97626  Biso   1.000  H
  H162     1.0000 0.99971  0.13977  0.08502  Biso   1.000  H
  H163     1.0000 0.08983  0.02685  0.12918  Biso   1.000  H
  H164     1.0000 0.35997  0.90235  0.48852  Biso   1.000  H
  H165     1.0000 0.00336  0.64131  0.42053  Biso   1.000  H
  H166     1.0000 0.58993  0.98320  0.36168  Biso   1.000  H
  H167     1.0000 0.85679  0.91779  0.00494  Biso   1.000  H
  H168     1.0000 0.49048  0.61825  0.10632  Biso   1.000  H
  H169     1.0000 0.98256  0.08111  0.86091  Biso   1.000  H
  H170     1.0000 0.86352  0.00129  0.09241  Biso   1.000  H
  H171     1.0000 0.07106  0.85646  0.01173  Biso   1.000  H
  H172     1.0000 0.49442  0.09807  0.62491  Biso   1.000  H
  H173     1.0000 0.36777  0.00357  0.40690  Biso   1.000  H
  H174     1.0000 0.58551  0.86308  0.51735  Biso   1.000  H
  H175     1.0000 0.46983  0.59768  0.87194  Biso   1.000  H
  H176     1.0000 0.63759  0.52595  0.08079  Biso   1.000  H
  H177     1.0000 0.41907  0.35164  0.99064  Biso   1.000  H
  H178     1.0000 0.97952  0.58089  0.64217  Biso   1.000  H
  H179     1.0000 0.13712  0.49489  0.42632  Biso   1.000  H
  H180     1.0000 0.90813  0.36334  0.48583  Biso   1.000  H
  H181     1.0000 0.00808  0.91428  0.13648  Biso   1.000  H
  H182     1.0000 0.12848  0.96146  0.90592  Biso   1.000  H
  H183     1.0000 0.91192  0.14194  0.99938  Biso   1.000  H
  H184     1.0000 0.49961  0.89788  0.37355  Biso   1.000  H
  H185     1.0000 0.62810  0.00177  0.58861  Biso   1.000  H
  H186     1.0000 0.41054  0.12671  0.48557  Biso   1.000  H
  H187     1.0000 0.51819  0.40009  0.12505  Biso   1.000  H
  H188     1.0000 0.35720  0.50731  0.92252  Biso   1.000  H
  H189     1.0000 0.57572  0.63997  0.99573  Biso   1.000  H
  H190     1.0000 0.00799  0.41783  0.36249  Biso   1.000  H
  H191     1.0000 0.85725  0.47436  0.57949  Biso   1.000  H
  H192     1.0000 0.08677  0.63221  0.52767  Biso   1.000  H
  H193     1.0000 0.26328  0.85176  0.50585  Biso   1.000  H
  H194     1.0000 0.49757  0.27921  0.83718  Biso   1.000  H
  H195     1.0000 0.87378  0.51615  0.25715  Biso   1.000  H
  H196     1.0000 0.75492  0.88003  0.99758  Biso   1.000  H
  H197     1.0000 0.99914  0.26218  0.62540  Biso   1.000  H
  H198     1.0000 0.37190  0.48597  0.24187  Biso   1.000  H
  H199     1.0000 0.22832  0.35256  0.51910  Biso   1.000  H
  H200     1.0000 0.96383  0.76482  0.86788  Biso   1.000  H
  H201     1.0000 0.63901  0.96750  0.26384  Biso   1.000  H
  H202     1.0000 0.74082  0.38130  0.97274  Biso   1.000  H
  H203     1.0000 0.49351  0.78109  0.67213  Biso   1.000  H
  H204     1.0000 0.14675  0.04944  0.22225  Biso   1.000  H
  H205     1.0000 0.73204  0.14082  0.49122  Biso   1.000  H
  H206     1.0000 0.47804  0.71329  0.16611  Biso   1.000  H
  H207     1.0000 0.11683  0.51818  0.74657  Biso   1.000  H
  H208     1.0000 0.24010  0.12415  0.99101  Biso   1.000  H
  H209     1.0000 0.98545  0.74102  0.37203  Biso   1.000  H
  H210     1.0000 0.61643  0.50233  0.75602  Biso   1.000  H
  H211     1.0000 0.76630  0.63782  0.51341  Biso   1.000  H
  H212     1.0000 0.01367  0.23833  0.13054  Biso   1.000  H
  H213     1.0000 0.35176  0.00034  0.73114  Biso   1.000  H
  H214     1.0000 0.25114  0.61358  0.02324  Biso   1.000  H
  H215     1.0000 0.51942  0.21765  0.33903  Biso   1.000  H
  H216     1.0000 0.84608  0.97944  0.77673  Biso   1.000  H
  H217     1.0000 0.23673  0.48627  0.37798  Biso   1.000  H
  H218     1.0000 0.35990  0.22464  0.47459  Biso   1.000  H
  H219     1.0000 0.49154  0.33890  0.21162  Biso   1.000  H
  H220     1.0000 0.74029  0.52338  0.12692  Biso   1.000  H
  H221     1.0000 0.86718  0.24352  0.99012  Biso   1.000  H
  H222     1.0000 0.01826  0.37333  0.25874  Biso   1.000  H
  H223     1.0000 0.26965  0.01584  0.35975  Biso   1.000  H
  H224     1.0000 0.13950  0.72600  0.51889  Biso   1.000  H
  H225     1.0000 0.00703  0.86732  0.23611  Biso   1.000  H
  H226     1.0000 0.76924  0.00398  0.14912  Biso   1.000  H
  H227     1.0000 0.61925  0.73841  0.01801  Biso   1.000  H
  H228     1.0000 0.50375  0.83215  0.28650  Biso   1.000  H
  H229     1.0000 0.75298  0.46779  0.62131  Biso   1.000  H
  H230     1.0000 0.63633  0.76587  0.52476  Biso   1.000  H
  H231     1.0000 0.50814  0.65896  0.78931  Biso   1.000  H
  H232     1.0000 0.25226  0.51860  0.88175  Biso   1.000  H
  H233     1.0000 0.11701  0.75744  0.01916  Biso   1.000  H
  H234     1.0000 0.97432  0.63001  0.74130  Biso   1.000  H
  H235     1.0000 0.72280  0.00424  0.64289  Biso   1.000  H
  H236     1.0000 0.85721  0.26647  0.49702  Biso   1.000  H
  H237     1.0000 0.97226  0.12947  0.75772  Biso   1.000  H
  H238     1.0000 0.22464  0.96572  0.85237  Biso   1.000  H
  H239     1.0000 0.37469  0.25235  0.98051  Biso   1.000  H
  H240     1.0000 0.48797  0.15997  0.71497  Biso   1.000  H
  H241     1.0000 0.71246  0.48783  0.83428  Biso   1.000  H
  H242     1.0000 0.85034  0.72420  0.50567  Biso   1.000  H
  H243     1.0000 0.51132  0.87325  0.74829  Biso   1.000  H
  H244     1.0000 0.21137  0.52348  0.66911  Biso   1.000  H
  H245     1.0000 0.33286  0.70878  0.01921  Biso   1.000  H
  H246     1.0000 0.99703  0.84125  0.78185  Biso   1.000  H
  H247     1.0000 0.76680  0.01661  0.86235  Biso   1.000  H
  H248     1.0000 0.64418  0.22291  0.49848  Biso   1.000  H
  H249     1.0000 0.99823  0.34383  0.72166  Biso   1.000  H
  H250     1.0000 0.26883  0.98557  0.64426  Biso   1.000  H
  H251     1.0000 0.15416  0.21485  0.98766  Biso   1.000  H
  H252     1.0000 0.45733  0.36609  0.76310  Biso   1.000  H
  H253     1.0000 0.28451  0.46715  0.16289  Biso   1.000  H
  H254     1.0000 0.15045  0.26877  0.47908  Biso   1.000  H
  H255     1.0000 0.50384  0.12253  0.25579  Biso   1.000  H
  H256     1.0000 0.78125  0.51845  0.33607  Biso   1.000  H
  H257     1.0000 0.66346  0.28986  0.98127  Biso   1.000  H
  H258     1.0000 0.99333  0.15668  0.22521  Biso   1.000  H
  H259     1.0000 0.22852  0.00734  0.14625  Biso   1.000  H
  H260     1.0000 0.35329  0.76565  0.52674  Biso   1.000  H
  H261     1.0000 0.00695  0.65745  0.28018  Biso   1.000  H
  H262     1.0000 0.72854  0.98391  0.35400  Biso   1.000  H
  H263     1.0000 0.82844  0.78316  0.00314  Biso   1.000  H
  H264     1.0000 0.51331  0.62047  0.24317  Biso   1.000  H
  H265     1.0000 0.99209  0.21733  0.84028  Biso   1.000  H
  H266     1.0000 0.85557  0.98545  0.22951  Biso   1.000  H
  H267     1.0000 0.21299  0.83737  0.01236  Biso   1.000  H
  H268     1.0000 0.47721  0.23581  0.62113  Biso   1.000  H
  H269     1.0000 0.34612  0.99991  0.27347  Biso   1.000  H
  H270     1.0000 0.72198  0.84805  0.49063  Biso   1.000  H
  H271     1.0000 0.50111  0.73146  0.88243  Biso   1.000  H
  H272     1.0000 0.66193  0.50623  0.21678  Biso   1.000  H
  H273     1.0000 0.28171  0.33387  0.98904  Biso   1.000  H
  H274     1.0000 0.99243  0.71894  0.65978  Biso   1.000  H
  H275     1.0000 0.16161  0.50220  0.28561  Biso   1.000  H
  H276     1.0000 0.77041  0.34854  0.46169  Biso   1.000  H
  H277     1.0000 0.99718  0.77859  0.15454  Biso   1.000  H
  H278     1.0000 0.14176  0.98759  0.76748  Biso   1.000  H
  H279     1.0000 0.77455  0.16389  0.01369  Biso   1.000  H
  H280     1.0000 0.50383  0.75609  0.38798  Biso   1.000  H
  H281     1.0000 0.63771  0.00124  0.72743  Biso   1.000  H
  H282     1.0000 0.27467  0.14530  0.51003  Biso   1.000  H
  H283     1.0000 0.51355  0.25999  0.12402  Biso   1.000  H
  H284     1.0000 0.32678  0.52624  0.79023  Biso   1.000  H
  H285     1.0000 0.71096  0.66715  0.97611  Biso   1.000  H
  H286     1.0000 0.00746  0.28168  0.33975  Biso   1.000  H
  H287     1.0000 0.83201  0.48136  0.71696  Biso   1.000  H
  H288     1.0000 0.22465  0.64054  0.50696  Biso   1.000  H
  H289     1.0000 0.10190  0.21880  0.99419  Biso   1.000  H
  H290     1.0000 0.99389  0.10433  0.22369  Biso   1.000  H
  H291     1.0000 0.23040  0.99546  0.09093  Biso   1.000  H
  H292     1.0000 0.59130  0.22068  0.49935  Biso   1.000  H
  H293     1.0000 0.50480  0.06853  0.26274  Biso   1.000  H
  H294     1.0000 0.72525  0.98542  0.40871  Biso   1.000  H
  H295     1.0000 0.38763  0.70946  0.01688  Biso   1.000  H
  H296     1.0000 0.52512  0.56988  0.23739  Biso   1.000  H
  H297     1.0000 0.28147  0.46006  0.10710  Biso   1.000  H
  H298     1.0000 0.90202  0.72537  0.51040  Biso   1.000  H
  H299     1.0000 0.01748  0.60503  0.27867  Biso   1.000  H
  H300     1.0000 0.77710  0.51155  0.38834  Biso   1.000  H
  H301     1.0000 0.88041  0.77608  0.01138  Biso   1.000  H
  H302     1.0000 0.00423  0.89113  0.77839  Biso   1.000  H
  H303     1.0000 0.77385  0.03322  0.91355  Biso   1.000  H
  H304     1.0000 0.40368  0.76854  0.52649  Biso   1.000  H
  H305     1.0000 0.51818  0.92722  0.73892  Biso   1.000  H
  H306     1.0000 0.26671  0.98479  0.59167  Biso   1.000  H
  H307     1.0000 0.61274  0.28410  0.97575  Biso   1.000  H
  H308     1.0000 0.45378  0.42257  0.76608  Biso   1.000  H
  H309     1.0000 0.71487  0.49008  0.89072  Biso   1.000  H
  H310     1.0000 0.09614  0.26728  0.47370  Biso   1.000  H
  H311     1.0000 0.99933  0.39765  0.72388  Biso   1.000  H
  H312     1.0000 0.21361  0.51524  0.61611  Biso   1.000  H
  H313     1.0000 0.22212  0.95817  0.90915  Biso   1.000  H
  H314     1.0000 0.92237  0.23776  0.98298  Biso   1.000  H
  H315     1.0000 0.01540  0.92111  0.23172  Biso   1.000  H
  H316     1.0000 0.72362  0.00001  0.58619  Biso   1.000  H
  H317     1.0000 0.40849  0.22033  0.46495  Biso   1.000  H
  H318     1.0000 0.49824  0.88631  0.27741  Biso   1.000  H
  H319     1.0000 0.26220  0.50453  0.93682  Biso   1.000  H
  H320     1.0000 0.56233  0.73013  0.02265  Biso   1.000  H
  H321     1.0000 0.49581  0.39172  0.21428  Biso   1.000  H
  H322     1.0000 0.76178  0.46932  0.56674  Biso   1.000  H
  H323     1.0000 0.08328  0.72758  0.51867  Biso   1.000  H
  H324     1.0000 0.01211  0.42503  0.26382  Biso   1.000  H
  H325     1.0000 0.76782  0.99848  0.09286  Biso   1.000  H
  H326     1.0000 0.06172  0.76513  0.02266  Biso   1.000  H
  H327     1.0000 0.98189  0.07275  0.76419  Biso   1.000  H
  H328     1.0000 0.27239  0.01940  0.41387  Biso   1.000  H
  H329     1.0000 0.58011  0.76820  0.52763  Biso   1.000  H
  H330     1.0000 0.49458  0.10465  0.71998  Biso   1.000  H
  H331     1.0000 0.73296  0.52529  0.06958  Biso   1.000  H
  H332     1.0000 0.42730  0.25962  0.98090  Biso   1.000  H
  H333     1.0000 0.49668  0.60631  0.77915  Biso   1.000  H
  H334     1.0000 0.23218  0.48658  0.43276  Biso   1.000  H
  H335     1.0000 0.91318  0.26849  0.50090  Biso   1.000  H
  H336     1.0000 0.96717  0.57665  0.73801  Biso   1.000  H
  H337     1.0000 0.00139  0.22141  0.89333  Biso   1.000  H
  H338     1.0000 0.91549  0.98744  0.22464  Biso   1.000  H
  H339     1.0000 0.21401  0.88998  0.01026  Biso   1.000  H
  H340     1.0000 0.47852  0.23016  0.56713  Biso   1.000  H
  H341     1.0000 0.39985  0.98714  0.26459  Biso   1.000  H
  H342     1.0000 0.72128  0.90189  0.49120  Biso   1.000  H
  H343     1.0000 0.47799  0.72782  0.93377  Biso   1.000  H
  H344     1.0000 0.60994  0.49391  0.21918  Biso   1.000  H
  H345     1.0000 0.27717  0.38937  0.99413  Biso   1.000  H
  H346     1.0000 0.99627  0.72022  0.60311  Biso   1.000  H
  H347     1.0000 0.10538  0.50620  0.28234  Biso   1.000  H
  H348     1.0000 0.77505  0.40495  0.45541  Biso   1.000  H
  H349     1.0000 0.98663  0.77696  0.09911  Biso   1.000  H
  H350     1.0000 0.08603  0.99103  0.76719  Biso   1.000  H
  H351     1.0000 0.77381  0.10830  0.01314  Biso   1.000  H
  H352     1.0000 0.50792  0.77000  0.43922  Biso   1.000  H
  H353     1.0000 0.58436  0.00090  0.72677  Biso   1.000  H
  H354     1.0000 0.27481  0.09223  0.52098  Biso   1.000  H
  H355     1.0000 0.52399  0.26255  0.06807  Biso   1.000  H
  H356     1.0000 0.38072  0.52498  0.78060  Biso   1.000  H
  H357     1.0000 0.71150  0.61648  0.95875  Biso   1.000  H
  H358     1.0000 0.99835  0.27856  0.39278  Biso   1.000  H
  H359     1.0000 0.88503  0.48637  0.72088  Biso   1.000  H
  H360     1.0000 0.22135  0.58533  0.50535  Biso   1.000  H
  H361     1.0000 0.98484  0.73320  0.42888  Biso   1.000  H
  H362     1.0000 0.40178  0.01058  0.73461  Biso   1.000  H
  H363     1.0000 0.73194  0.43573  0.98088  Biso   1.000  H
  H364     1.0000 0.46585  0.71177  0.11081  Biso   1.000  H
  H365     1.0000 0.90437  0.97672  0.77812  Biso   1.000  H
  H366     1.0000 0.22643  0.40684  0.52655  Biso   1.000  H
  H367     1.0000 0.51610  0.21805  0.39288  Biso   1.000  H
  H368     1.0000 0.06554  0.50973  0.74358  Biso   1.000  H
  H369     1.0000 0.76225  0.93243  0.99600  Biso   1.000  H
  H370     1.0000 0.02092  0.23290  0.07632  Biso   1.000  H
  H371     1.0000 0.56035  0.50099  0.76305  Biso   1.000  H
  H372     1.0000 0.26421  0.90405  0.49241  Biso   1.000  H
  H373     1.0000 0.00752  0.26919  0.57453  Biso   1.000  H
  H374     1.0000 0.58564  0.96900  0.26791  Biso   1.000  H
  H375     1.0000 0.25748  0.56142  0.03116  Biso   1.000  H
  H376     1.0000 0.50634  0.27499  0.89014  Biso   1.000  H
  H377     1.0000 0.09114  0.05053  0.22085  Biso   1.000  H
  H378     1.0000 0.76543  0.58568  0.50957  Biso   1.000  H
  H379     1.0000 0.48652  0.77550  0.61449  Biso   1.000  H
  H380     1.0000 0.92669  0.51045  0.26159  Biso   1.000  H
  H381     1.0000 0.23577  0.06873  0.99049  Biso   1.000  H
  H382     1.0000 0.96118  0.76708  0.92323  Biso   1.000  H
  H383     1.0000 0.42776  0.49813  0.23731  Biso   1.000  H
  H384     1.0000 0.73104  0.07915  0.49325  Biso   1.000  H
  H385     1.0000 0.18940  0.46039  0.30036  Biso   1.000  H
  H386     1.0000 0.27167  0.16825  0.47498  Biso   1.000  H
  H387     1.0000 0.48257  0.25352  0.15131  Biso   1.000  H
  H388     1.0000 0.70245  0.47368  0.19208  Biso   1.000  H
  H389     1.0000 0.83782  0.24855  0.02685  Biso   1.000  H
  H390     1.0000 0.04755  0.29292  0.31274  Biso   1.000  H
  H391     1.0000 0.26434  0.98527  0.32979  Biso   1.000  H
  H392     1.0000 0.16799  0.72260  0.48716  Biso   1.000  H
  H393     1.0000 0.96248  0.79306  0.18552  Biso   1.000  H
  H394     1.0000 0.77430  0.96156  0.16798  Biso   1.000  H
  H395     1.0000 0.64259  0.74958  0.99367  Biso   1.000  H
  H396     1.0000 0.53132  0.75274  0.34855  Biso   1.000  H
  H397     1.0000 0.75556  0.50667  0.65080  Biso   1.000  H
  H398     1.0000 0.72271  0.82047  0.52590  Biso   1.000  H
  H399     1.0000 0.53522  0.68576  0.80197  Biso   1.000  H
  H400     1.0000 0.29624  0.56151  0.79980  Biso   1.000  H
  H401     1.0000 0.20097  0.80042  0.97526  Biso   1.000  H
  H402     1.0000 0.00897  0.65695  0.74114  Biso   1.000  H
  H403     1.0000 0.72191  0.97424  0.67088  Biso   1.000  H
  H404     1.0000 0.77124  0.32691  0.50452  Biso   1.000  H
  H405     1.0000 0.95689  0.21484  0.81369  Biso   1.000  H
  H406     1.0000 0.22406  0.99747  0.82858  Biso   1.000  H
  H407     1.0000 0.29362  0.30178  0.94725  Biso   1.000  H
  H408     1.0000 0.44657  0.18457  0.71198  Biso   1.000  H
  H409     1.0000 0.33859  0.52078  0.23201  Biso   1.000  H
  H410     1.0000 0.16976  0.26660  0.51872  Biso   1.000  H
  H411     1.0000 0.48541  0.21420  0.31373  Biso   1.000  H
  H412     1.0000 0.83857  0.48513  0.26193  Biso   1.000  H
  H413     1.0000 0.69543  0.29806  0.94595  Biso   1.000  H
  H414     1.0000 0.97676  0.24113  0.16169  Biso   1.000  H
  H415     1.0000 0.16400  0.01187  0.22346  Biso   1.000  H
  H416     1.0000 0.32131  0.76554  0.48667  Biso   1.000  H
  H417     1.0000 0.97328  0.68212  0.27981  Biso   1.000  H
  H418     1.0000 0.72361  0.95014  0.32537  Biso   1.000  H
  H419     1.0000 0.80001  0.79616  0.03759  Biso   1.000  H
  H420     1.0000 0.53976  0.66343  0.23726  Biso   1.000  H
  H421     1.0000 0.71103  0.52532  0.80421  Biso   1.000  H
  H422     1.0000 0.81476  0.71469  0.53984  Biso   1.000  H
  H423     1.0000 0.53195  0.78369  0.69504  Biso   1.000  H
  H424     1.0000 0.15859  0.47986  0.74202  Biso   1.000  H
  H425     1.0000 0.30102  0.69831  0.98336  Biso   1.000  H
  H426     1.0000 0.00782  0.76397  0.84373  Biso   1.000  H
  H427     1.0000 0.77439  0.03579  0.82430  Biso   1.000  H
  H428     1.0000 0.72841  0.17035  0.52560  Biso   1.000  H
  H429     1.0000 0.95767  0.31446  0.71250  Biso   1.000  H
  H430     1.0000 0.28497  0.95302  0.67191  Biso   1.000  H
  H431     1.0000 0.23550  0.15322  0.95450  Biso   1.000  H
  H432     1.0000 0.46223  0.28146  0.81737  Biso   1.000  H
  H433     1.0000 0.30959  0.03075  0.72398  Biso   1.000  H
  H434     1.0000 0.73885  0.34906  0.01110  Biso   1.000  H
  H435     1.0000 0.01251  0.74471  0.34147  Biso   1.000  H
  H436     1.0000 0.80813  0.95279  0.79198  Biso   1.000  H
  H437     1.0000 0.23409  0.33010  0.48195  Biso   1.000  H
  H438     1.0000 0.45286  0.69566  0.20315  Biso   1.000  H
  H439     1.0000 0.19688  0.55903  0.69965  Biso   1.000  H
  H440     1.0000 0.75431  0.84184  0.96963  Biso   1.000  H
  H441     1.0000 0.53320  0.15345  0.25144  Biso   1.000  H
  H442     1.0000 0.64725  0.46614  0.75688  Biso   1.000  H
  H443     1.0000 0.26380  0.82266  0.54054  Biso   1.000  H
  H444     1.0000 0.03246  0.18493  0.21704  Biso   1.000  H
  H445     1.0000 0.66798  0.99670  0.26318  Biso   1.000  H
  H446     1.0000 0.25189  0.65495  0.05203  Biso   1.000  H
  H447     1.0000 0.02720  0.26405  0.66736  Biso   1.000  H
  H448     1.0000 0.23241  0.04481  0.16890  Biso   1.000  H
  H449     1.0000 0.77238  0.66818  0.46660  Biso   1.000  H
  H450     1.0000 0.50140  0.34403  0.75296  Biso   1.000  H
  H451     1.0000 0.78943  0.55497  0.30472  Biso   1.000  H
  H452     1.0000 0.18477  0.21231  0.01557  Biso   1.000  H
  H453     1.0000 0.48116  0.84351  0.75023  Biso   1.000  H
  H454     1.0000 0.29257  0.44537  0.20083  Biso   1.000  H
  H455     1.0000 0.66931  0.21788  0.46341  Biso   1.000  H
  H456     1.0000 0.95456  0.81797  0.78505  Biso   1.000  H
  H457     1.0000 0.65968  0.76337  0.48188  Biso   1.000  H
  H458     1.0000 0.47320  0.73871  0.84957  Biso   1.000  H
  H459     1.0000 0.80222  0.44723  0.71388  Biso   1.000  H
  H460     1.0000 0.15421  0.76187  0.04827  Biso   1.000  H
  H461     1.0000 0.95693  0.71648  0.68530  Biso   1.000  H
  H462     1.0000 0.25453  0.48819  0.84815  Biso   1.000  H
  H463     1.0000 0.83188  0.26162  0.46371  Biso   1.000  H
  H464     1.0000 0.01012  0.15599  0.75971  Biso   1.000  H
  H465     1.0000 0.66853  0.02987  0.72674  Biso   1.000  H
  H466     1.0000 0.33267  0.26158  0.02503  Biso   1.000  H
  H467     1.0000 0.51095  0.23335  0.65726  Biso   1.000  H
  H468     1.0000 0.16559  0.95197  0.76493  Biso   1.000  H
  H469     1.0000 0.33480  0.22657  0.51906  Biso   1.000  H
  H470     1.0000 0.52996  0.31111  0.21338  Biso   1.000  H
  H471     1.0000 0.23719  0.53012  0.34263  Biso   1.000  H
  H472     1.0000 0.78190  0.19087  0.97661  Biso   1.000  H
  H473     1.0000 0.98244  0.34172  0.26169  Biso   1.000  H
  H474     1.0000 0.72091  0.56063  0.16687  Biso   1.000  H
  H475     1.0000 0.22116  0.66876  0.55026  Biso   1.000  H
  H476     1.0000 0.03680  0.83025  0.22487  Biso   1.000  H
  H477     1.0000 0.32904  0.03412  0.27752  Biso   1.000  H
  H478     1.0000 0.70999  0.68753  0.01913  Biso   1.000  H
  H479     1.0000 0.46292  0.80459  0.30090  Biso   1.000  H
  H480     1.0000 0.82293  0.01776  0.23026  Biso   1.000  H
  N1       1.0000 0.67846  0.16994  0.49411  Biso   1.000  N
  N2       1.0000 0.49464  0.65744  0.19427  Biso   1.000  N
  N3       1.0000 0.15522  0.51600  0.69590  Biso   1.000  N
  N4       1.0000 0.18660  0.15924  0.98816  Biso   1.000  N
  N5       1.0000 0.99971  0.68727  0.33442  Biso   1.000  N
  N6       1.0000 0.65676  0.49857  0.80562  Biso   1.000  N
  N7       1.0000 0.81864  0.66919  0.50388  Biso   1.000  N
  N8       1.0000 0.00365  0.18806  0.16790  Biso   1.000  N
  N9       1.0000 0.32313  0.99222  0.67802  Biso   1.000  N
  N10      1.0000 0.30182  0.65310  0.01961  Biso   1.000  N
  N11      1.0000 0.51007  0.16076  0.30853  Biso   1.000  N
  N12      1.0000 0.81710  0.99698  0.82836  Biso   1.000  N
  N13      1.0000 0.31833  0.81950  0.51277  Biso   1.000  N
  N14      1.0000 0.48467  0.33422  0.80910  Biso   1.000  N
  N15      1.0000 0.83618  0.51578  0.30868  Biso   1.000  N
  N16      1.0000 0.80268  0.83927  0.00065  Biso   1.000  N
  N17      1.0000 0.99492  0.31444  0.66572  Biso   1.000  N
  N18      1.0000 0.33742  0.47860  0.19124  Biso   1.000  N
  N19      1.0000 0.17845  0.32180  0.50039  Biso   1.000  N
  N20      1.0000 0.98093  0.81426  0.83630  Biso   1.000  N
  N21      1.0000 0.67382  0.97746  0.31906  Biso   1.000  N
  N22      1.0000 0.68964  0.34492  0.97736  Biso   1.000  N
  N23      1.0000 0.50245  0.83612  0.69572  Biso   1.000  N
  N24      1.0000 0.17785  0.02881  0.17161  Biso   1.000  N
  N25      1.0000 0.80418  0.47542  0.66107  Biso   1.000  N
  N26      1.0000 0.66858  0.81677  0.50574  Biso   1.000  N
  N27      1.0000 0.49630  0.68528  0.84289  Biso   1.000  N
  N28      1.0000 0.30146  0.52433  0.84539  Biso   1.000  N
  N29      1.0000 0.15555  0.80732  0.01300  Biso   1.000  N
  N30      1.0000 0.98367  0.66333  0.68831  Biso   1.000  N
  N31      1.0000 0.67208  0.00299  0.67425  Biso   1.000  N
  N32      1.0000 0.82373  0.31751  0.48089  Biso   1.000  N
  N33      1.0000 0.98111  0.16362  0.81119  Biso   1.000  N
  N34      1.0000 0.17261  0.97287  0.81985  Biso   1.000  N
  N35      1.0000 0.33687  0.30510  0.98618  Biso   1.000  N
  N36      1.0000 0.48182  0.18636  0.66129  Biso   1.000  N
  N37      1.0000 0.18795  0.49566  0.34348  Biso   1.000  N
  N38      1.0000 0.32649  0.17341  0.49737  Biso   1.000  N
  N39      1.0000 0.50613  0.30843  0.15964  Biso   1.000  N
  N40      1.0000 0.68861  0.51497  0.16112  Biso   1.000  N
  N41      1.0000 0.83269  0.19310  0.00178  Biso   1.000  N
  N42      1.0000 0.01408  0.33745  0.31125  Biso   1.000  N
  N43      1.0000 0.31909  0.00419  0.32501  Biso   1.000  N
  N44      1.0000 0.17164  0.67361  0.51991  Biso   1.000  N
  N45      1.0000 0.00211  0.83222  0.18452  Biso   1.000  N
  N46      1.0000 0.82351  0.99537  0.17809  Biso   1.000  N
  N47      1.0000 0.65540  0.69241  0.00139  Biso   1.000  N
  N48      1.0000 0.50158  0.80836  0.34383  Biso   1.000  N
  O1       1.0000 0.33583  0.52230  0.02457  Biso   1.000  O
  O2       1.0000 0.00082  0.34278  0.52920  Biso   1.000  O
  O3       1.0000 0.53812  0.98237  0.34071  Biso   1.000  O
  O4       1.0000 0.83894  0.53357  0.49924  Biso   1.000  O
  O5       1.0000 0.50921  0.34286  0.94373  Biso   1.000  O
  O6       1.0000 0.04226  0.01726  0.15518  Biso   1.000  O
  O7       1.0000 0.15864  0.02530  0.99228  Biso   1.000  O
  O8       1.0000 0.48813  0.84510  0.56098  Biso   1.000  O
  O9       1.0000 0.97007  0.50915  0.34153  Biso   1.000  O
  O10      1.0000 0.65739  0.03316  0.49704  Biso   1.000  O
  O11      1.0000 0.97716  0.83895  0.97038  Biso   1.000  O
  O12      1.0000 0.46948  0.48948  0.16061  Biso   1.000  O
  O13      1.0000 0.65635  0.47348  0.99148  Biso   1.000  O
  O14      1.0000 0.00093  0.65716  0.46773  Biso   1.000  O
  O15      1.0000 0.45274  0.00954  0.65899  Biso   1.000  O
  O16      1.0000 0.14963  0.45383  0.51916  Biso   1.000  O
  O17      1.0000 0.47946  0.64534  0.05914  Biso   1.000  O
  O18      1.0000 0.95549  0.98619  0.84543  Biso   1.000  O
  O19      1.0000 0.84218  0.97282  0.99688  Biso   1.000  O
  O20      1.0000 0.50896  0.14560  0.44582  Biso   1.000  O
  O21      1.0000 0.02189  0.49935  0.66621  Biso   1.000  O
  O22      1.0000 0.33696  0.95518  0.48978  Biso   1.000  O
  O23      1.0000 0.00637  0.15776  0.03191  Biso   1.000  O
  O24      1.0000 0.52209  0.50424  0.84105  Biso   1.000  O
  O25      1.0000 0.95852  0.00437  0.15304  Biso   1.000  O
  O26      1.0000 0.14705  0.94352  0.00890  Biso   1.000  O
  O27      1.0000 0.00506  0.15230  0.94767  Biso   1.000  O
  O28      1.0000 0.45299  0.99185  0.33426  Biso   1.000  O
  O29      1.0000 0.65087  0.95027  0.49247  Biso   1.000  O
  O30      1.0000 0.49383  0.15287  0.52884  Biso   1.000  O
  O31      1.0000 0.55341  0.48862  0.14962  Biso   1.000  O
  O32      1.0000 0.34634  0.44276  0.00068  Biso   1.000  O
  O33      1.0000 0.47831  0.65205  0.97501  Biso   1.000  O
  O34      1.0000 0.05392  0.51326  0.34753  Biso   1.000  O
  O35      1.0000 0.84311  0.45259  0.47724  Biso   1.000  O
  O36      1.0000 0.99621  0.65242  0.55246  Biso   1.000  O
  O37      1.0000 0.04069  0.98466  0.84247  Biso   1.000  O
  O38      1.0000 0.84388  0.05759  0.01430  Biso   1.000  O
  O39      1.0000 0.97897  0.84863  0.05320  Biso   1.000  O
  O40      1.0000 0.53564  0.00950  0.65204  Biso   1.000  O
  O41      1.0000 0.34465  0.03537  0.50693  Biso   1.000  O
  O42      1.0000 0.50153  0.84464  0.47699  Biso   1.000  O
  O43      1.0000 0.43764  0.51160  0.84919  Biso   1.000  O
  O44      1.0000 0.64594  0.55825  0.97600  Biso   1.000  O
  O45      1.0000 0.51417  0.33675  0.02689  Biso   1.000  O
  O46      1.0000 0.94070  0.48557  0.65516  Biso   1.000  O
  O47      1.0000 0.15327  0.53723  0.51345  Biso   1.000  O
  O48      1.0000 0.99642  0.34797  0.44494  Biso   1.000  O
  O49      1.0000 0.00562  0.96714  0.15210  Biso   1.000  O
  O50      1.0000 0.15270  0.97271  0.95866  Biso   1.000  O
  O51      1.0000 0.96195  0.15858  0.98440  Biso   1.000  O
  O52      1.0000 0.48847  0.94313  0.34281  Biso   1.000  O
  O53      1.0000 0.65187  0.98918  0.53919  Biso   1.000  O
  O54      1.0000 0.45977  0.14947  0.48281  Biso   1.000  O
  O55      1.0000 0.51175  0.44608  0.14853  Biso   1.000  O
  O56      1.0000 0.33975  0.49320  0.97430  Biso   1.000  O
  O57      1.0000 0.52117  0.65598  0.01813  Biso   1.000  O
  O58      1.0000 0.00940  0.47068  0.34119  Biso   1.000  O
  O59      1.0000 0.83796  0.47994  0.52806  Biso   1.000  O
  O60      1.0000 0.03779  0.65512  0.51552  Biso   1.000  O
  O61      1.0000 0.99664  0.03329  0.84056  Biso   1.000  O
  O62      1.0000 0.84087  0.00669  0.04587  Biso   1.000  O
  O63      1.0000 0.02061  0.84030  0.01371  Biso   1.000  O
  O64      1.0000 0.49476  0.05289  0.65053  Biso   1.000  O
  O65      1.0000 0.34534  0.00455  0.46177  Biso   1.000  O
  O66      1.0000 0.53496  0.84252  0.52376  Biso   1.000  O
  O67      1.0000 0.48620  0.55114  0.84457  Biso   1.000  O
  O68      1.0000 0.65788  0.51967  0.02740  Biso   1.000  O
  O69      1.0000 0.47109  0.33447  0.98322  Biso   1.000  O
  O70      1.0000 0.97132  0.53255  0.66170  Biso   1.000  O
  O71      1.0000 0.15718  0.49291  0.47483  Biso   1.000  O
  O72      1.0000 0.95751  0.34295  0.49002  Biso   1.000  O
  O73      1.0000 0.98854  0.45147  0.65808  Biso   1.000  O
  O74      1.0000 0.65169  0.99428  0.45465  Biso   1.000  O
  O75      1.0000 0.43838  0.64109  0.01796  Biso   1.000  O
  O76      1.0000 0.47729  0.46779  0.83694  Biso   1.000  O
  O77      1.0000 0.15672  0.99525  0.03966  Biso   1.000  O
  O78      1.0000 0.95715  0.65197  0.50412  Biso   1.000  O
  O79      1.0000 0.49343  0.96663  0.66348  Biso   1.000  O
  O80      1.0000 0.84558  0.50240  0.44628  Biso   1.000  O
  O81      1.0000 0.04878  0.14730  0.99145  Biso   1.000  O
  O82      1.0000 0.00414  0.94770  0.84631  Biso   1.000  O
  O83      1.0000 0.34805  0.46839  0.05329  Biso   1.000  O
  O84      1.0000 0.54258  0.14920  0.49196  Biso   1.000  O
  O85      1.0000 0.01099  0.55483  0.34778  Biso   1.000  O
  O86      1.0000 0.34132  0.98545  0.54177  Biso   1.000  O
  O87      1.0000 0.55307  0.35104  0.97993  Biso   1.000  O
  O88      1.0000 0.51516  0.52800  0.15860  Biso   1.000  O
  O89      1.0000 0.84430  0.02521  0.96328  Biso   1.000  O
  O90      1.0000 0.04421  0.33967  0.48498  Biso   1.000  O
  O91      1.0000 0.49869  0.02553  0.33784  Biso   1.000  O
  O92      1.0000 0.14575  0.50031  0.55913  Biso   1.000  O
  O93      1.0000 0.93709  0.84624  0.01624  Biso   1.000  O
  O94      1.0000 0.99728  0.05357  0.15510  Biso   1.000  O
  O95      1.0000 0.64801  0.51193  0.94223  Biso   1.000  O
  O96      1.0000 0.45138  0.84167  0.51213  Biso   1.000  O
  O97      1.0000 0.46002  0.19779  0.47545  Biso   1.000  O
  O98      1.0000 0.51268  0.44271  0.19784  Biso   1.000  O
  O99      1.0000 0.20678  0.49259  0.47873  Biso   1.000  O
  O100     1.0000 0.96831  0.20705  0.98107  Biso   1.000  O
  O101     1.0000 0.01564  0.47402  0.29438  Biso   1.000  O
  O102     1.0000 0.70597  0.52059  0.02154  Biso   1.000  O
  O103     1.0000 0.03658  0.70386  0.51955  Biso   1.000  O
  O104     1.0000 0.00939  0.97019  0.20190  Biso   1.000  O
  O105     1.0000 0.29569  0.00412  0.46125  Biso   1.000  O
  O106     1.0000 0.51737  0.70362  0.01841  Biso   1.000  O
  O107     1.0000 0.49413  0.93936  0.29459  Biso   1.000  O
  O108     1.0000 0.79158  0.01112  0.04624  Biso   1.000  O
  O109     1.0000 0.53463  0.79267  0.51995  Biso   1.000  O
  O110     1.0000 0.48045  0.55451  0.79594  Biso   1.000  O
  O111     1.0000 0.78995  0.48538  0.52315  Biso   1.000  O
  O112     1.0000 0.01628  0.79135  0.01309  Biso   1.000  O
  O113     1.0000 0.96960  0.52660  0.70944  Biso   1.000  O
  O114     1.0000 0.29189  0.48960  0.98074  Biso   1.000  O
  O115     1.0000 0.96064  0.29343  0.48983  Biso   1.000  O
  O116     1.0000 0.98919  0.02704  0.79199  Biso   1.000  O
  O117     1.0000 0.70107  0.99025  0.53997  Biso   1.000  O
  O118     1.0000 0.47623  0.28483  0.98390  Biso   1.000  O
  O119     1.0000 0.49386  0.05521  0.70043  Biso   1.000  O
  O120     1.0000 0.19914  0.97186  0.95594  Biso   1.000  O
  O121     1.0000 0.01888  0.49360  0.71467  Biso   1.000  O
  O122     1.0000 0.70607  0.03143  0.49783  Biso   1.000  O
  O123     1.0000 0.47788  0.69493  0.06205  Biso   1.000  O
  O124     1.0000 0.51660  0.50953  0.79163  Biso   1.000  O
  O125     1.0000 0.20610  0.01916  0.99183  Biso   1.000  O
  O126     1.0000 0.99711  0.70488  0.47373  Biso   1.000  O
  O127     1.0000 0.45566  0.01143  0.70828  Biso   1.000  O
  O128     1.0000 0.79063  0.53502  0.49365  Biso   1.000  O
  O129     1.0000 0.01243  0.20501  0.02838  Biso   1.000  O
  O130     1.0000 0.95094  0.98135  0.79614  Biso   1.000  O
  O131     1.0000 0.28860  0.51544  0.03337  Biso   1.000  O
  O132     1.0000 0.50817  0.19596  0.44166  Biso   1.000  O
  O133     1.0000 0.97289  0.51327  0.29330  Biso   1.000  O
  O134     1.0000 0.28945  0.95691  0.49519  Biso   1.000  O
  O135     1.0000 0.52043  0.29452  0.93845  Biso   1.000  O
  O136     1.0000 0.47551  0.48608  0.20961  Biso   1.000  O
  O137     1.0000 0.79376  0.97749  0.99935  Biso   1.000  O
  O138     1.0000 0.00244  0.29527  0.52813  Biso   1.000  O
  O139     1.0000 0.53650  0.97805  0.29196  Biso   1.000  O
  O140     1.0000 0.19800  0.45616  0.52187  Biso   1.000  O
  O141     1.0000 0.96962  0.79132  0.97382  Biso   1.000  O
  O142     1.0000 0.04656  0.02338  0.20416  Biso   1.000  O
  O143     1.0000 0.70550  0.47751  0.98412  Biso   1.000  O
  O144     1.0000 0.49634  0.79599  0.56356  Biso   1.000  O
  O145     1.0000 0.56105  0.48365  0.19897  Biso   1.000  O
  O146     1.0000 0.20237  0.53700  0.51772  Biso   1.000  O
  O147     1.0000 0.49582  0.20141  0.52416  Biso   1.000  O
  O148     1.0000 0.05699  0.51532  0.29872  Biso   1.000  O
  O149     1.0000 0.69476  0.56208  0.97279  Biso   1.000  O
  O150     1.0000 0.00964  0.20035  0.94261  Biso   1.000  O
  O151     1.0000 0.96321  0.00210  0.20130  Biso   1.000  O
  O152     1.0000 0.29586  0.03870  0.50536  Biso   1.000  O
  O153     1.0000 0.99354  0.70151  0.55727  Biso   1.000  O
  O154     1.0000 0.45331  0.98506  0.28620  Biso   1.000  O
  O155     1.0000 0.79504  0.05852  0.01167  Biso   1.000  O
  O156     1.0000 0.46974  0.69990  0.97812  Biso   1.000  O
  O157     1.0000 0.43200  0.51339  0.80088  Biso   1.000  O
  O158     1.0000 0.79370  0.45244  0.47589  Biso   1.000  O
  O159     1.0000 0.49109  0.79653  0.48151  Biso   1.000  O
  O160     1.0000 0.93350  0.47911  0.70429  Biso   1.000  O
  O161     1.0000 0.29907  0.43488  0.01036  Biso   1.000  O
  O162     1.0000 0.97934  0.79852  0.05469  Biso   1.000  O
  O163     1.0000 0.03643  0.98906  0.79321  Biso   1.000  O
  O164     1.0000 0.69955  0.95009  0.49511  Biso   1.000  O
  O165     1.0000 0.99977  0.29846  0.44550  Biso   1.000  O
  O166     1.0000 0.53877  0.01593  0.70038  Biso   1.000  O
  O167     1.0000 0.19569  0.93909  0.00699  Biso   1.000  O
  O168     1.0000 0.52317  0.28890  0.02459  Biso   1.000  O
  O169     1.0000 0.99306  0.05273  0.20369  Biso   1.000  O
  O170     1.0000 0.20528  0.98943  0.03889  Biso   1.000  O
  O171     1.0000 0.05219  0.19768  0.98765  Biso   1.000  O
  O172     1.0000 0.50002  0.02296  0.29028  Biso   1.000  O
  O173     1.0000 0.70169  0.99114  0.45710  Biso   1.000  O
  O174     1.0000 0.54207  0.19532  0.49086  Biso   1.000  O
  O175     1.0000 0.51970  0.52444  0.20841  Biso   1.000  O
  O176     1.0000 0.30011  0.46104  0.05857  Biso   1.000  O
  O177     1.0000 0.43521  0.68887  0.02462  Biso   1.000  O
  O178     1.0000 0.01134  0.55607  0.29846  Biso   1.000  O
  O179     1.0000 0.79693  0.50138  0.44101  Biso   1.000  O
  O180     1.0000 0.95361  0.69999  0.51456  Biso   1.000  O
  O181     1.0000 0.99844  0.94251  0.79683  Biso   1.000  O
  O182     1.0000 0.79638  0.02213  0.96220  Biso   1.000  O
  O183     1.0000 0.93349  0.79767  0.02048  Biso   1.000  O
  O184     1.0000 0.50210  0.97441  0.71061  Biso   1.000  O
  O185     1.0000 0.29227  0.98780  0.54132  Biso   1.000  O
  O186     1.0000 0.45169  0.79392  0.52426  Biso   1.000  O
  O187     1.0000 0.46669  0.47191  0.78912  Biso   1.000  O
  O188     1.0000 0.69689  0.51459  0.93811  Biso   1.000  O
  O189     1.0000 0.56031  0.30199  0.97840  Biso   1.000  O
  O190     1.0000 0.98730  0.44512  0.70713  Biso   1.000  O
  O191     1.0000 0.19508  0.50178  0.56420  Biso   1.000  O
  O192     1.0000 0.04474  0.29044  0.48587  Biso   1.000  O
