data_image0
_cell_length_a       46.8473
_cell_length_b       46.8812
_cell_length_c       46.5448
_cell_angle_alpha    90
_cell_angle_beta     90
_cell_angle_gamma    90

_symmetry_space_group_name_H-M    "P 1"
_symmetry_int_tables_number       1

loop_
  _symmetry_equiv_pos_as_xyz
  'x, y, z'

loop_
  _atom_site_label
  _atom_site_occupancy
  _atom_site_fract_x
  _atom_site_fract_y
  _atom_site_fract_z
  _atom_site_thermal_displace_type
  _atom_site_B_iso_or_equiv
  _atom_site_type_symbol
  C1       1.0000 0.55931  0.96681  0.33237  Biso   1.000  C
  C2       1.0000 0.33727  0.51619  0.02707  Biso   1.000  C
  C3       1.0000 0.03531  0.28685  0.58058  Biso   1.000  C
  C4       1.0000 0.06129  0.96971  0.20415  Biso   1.000  C
  C5       1.0000 0.84276  0.51379  0.51329  Biso   1.000  C
  C6       1.0000 0.52560  0.28264  0.96368  Biso   1.000  C
  C7       1.0000 0.97083  0.46657  0.32789  Biso   1.000  C
  C8       1.0000 0.20889  0.01021  0.02019  Biso   1.000  C
  C9       1.0000 0.52606  0.78291  0.56883  Biso   1.000  C
  C10      1.0000 0.46791  0.46420  0.20004  Biso   1.000  C
  C11      1.0000 0.70310  0.01485  0.49357  Biso   1.000  C
  C12      1.0000 0.00234  0.78692  0.95444  Biso   1.000  C
  C13      1.0000 0.48495  0.96567  0.70813  Biso   1.000  C
  C14      1.0000 0.70360  0.41153  0.02304  Biso   1.000  C
  C15      1.0000 0.02334  0.64794  0.45597  Biso   1.000  C
  C16      1.0000 0.97919  0.96237  0.83188  Biso   1.000  C
  C17      1.0000 0.21041  0.41545  0.52130  Biso   1.000  C
  C18      1.0000 0.51304  0.64675  0.06997  Biso   1.000  C
  C19      1.0000 0.08364  0.46276  0.69604  Biso   1.000  C
  C20      1.0000 0.82900  0.91472  0.00498  Biso   1.000  C
  C21      1.0000 0.53481  0.14593  0.47202  Biso   1.000  C
  C22      1.0000 0.58092  0.46348  0.83522  Biso   1.000  C
  C23      1.0000 0.33816  0.91839  0.54433  Biso   1.000  C
  C24      1.0000 0.03092  0.14444  0.07902  Biso   1.000  C
  C25      1.0000 0.34197  0.02888  0.53383  Biso   1.000  C
  C26      1.0000 0.52546  0.28651  0.07282  Biso   1.000  C
  C27      1.0000 0.07759  0.45625  0.33972  Biso   1.000  C
  C28      1.0000 0.84877  0.02230  0.00268  Biso   1.000  C
  C29      1.0000 0.02116  0.28427  0.47210  Biso   1.000  C
  C30      1.0000 0.57761  0.47153  0.20455  Biso   1.000  C
  C31      1.0000 0.20733  0.52593  0.51336  Biso   1.000  C
  C32      1.0000 0.01069  0.78807  0.06396  Biso   1.000  C
  C33      1.0000 0.45214  0.97644  0.34552  Biso   1.000  C
  C34      1.0000 0.69329  0.51759  0.02303  Biso   1.000  C
  C35      1.0000 0.51440  0.78500  0.45961  Biso   1.000  C
  C36      1.0000 0.95392  0.95511  0.19229  Biso   1.000  C
  C37      1.0000 0.69915  0.90656  0.50728  Biso   1.000  C
  C38      1.0000 0.51398  0.64402  0.96151  Biso   1.000  C
  C39      1.0000 0.97331  0.46647  0.70146  Biso   1.000  C
  C40      1.0000 0.19318  0.90314  0.03655  Biso   1.000  C
  C41      1.0000 0.01886  0.64674  0.56635  Biso   1.000  C
  C42      1.0000 0.47337  0.45727  0.83071  Biso   1.000  C
  C43      1.0000 0.84588  0.40527  0.51665  Biso   1.000  C
  C44      1.0000 0.04022  0.14088  0.96974  Biso   1.000  C
  C45      1.0000 0.59483  0.95537  0.69570  Biso   1.000  C
  C46      1.0000 0.33996  0.41123  0.00834  Biso   1.000  C
  C47      1.0000 0.52982  0.14334  0.57841  Biso   1.000  C
  C48      1.0000 0.08856  0.96906  0.84381  Biso   1.000  C
  C49      1.0000 0.03453  0.01828  0.84023  Biso   1.000  C
  C50      1.0000 0.83625  0.96735  0.06000  Biso   1.000  C
  C51      1.0000 0.06021  0.78990  0.00399  Biso   1.000  C
  C52      1.0000 0.54030  0.01388  0.70291  Biso   1.000  C
  C53      1.0000 0.33514  0.96749  0.48268  Biso   1.000  C
  C54      1.0000 0.57445  0.78287  0.50711  Biso   1.000  C
  C55      1.0000 0.52426  0.51276  0.83937  Biso   1.000  C
  C56      1.0000 0.70031  0.46703  0.07312  Biso   1.000  C
  C57      1.0000 0.47161  0.28426  0.01766  Biso   1.000  C
  C58      1.0000 0.03123  0.52050  0.69461  Biso   1.000  C
  C59      1.0000 0.20944  0.46642  0.46195  Biso   1.000  C
  C60      1.0000 0.97681  0.28617  0.53083  Biso   1.000  C
  C61      1.0000 0.01703  0.90889  0.19559  Biso   1.000  C
  C62      1.0000 0.20600  0.95113  0.97458  Biso   1.000  C
  C63      1.0000 0.97896  0.14233  0.02420  Biso   1.000  C
  C64      1.0000 0.50018  0.91745  0.33709  Biso   1.000  C
  C65      1.0000 0.70469  0.96905  0.55368  Biso   1.000  C
  C66      1.0000 0.47648  0.14822  0.52912  Biso   1.000  C
  C67      1.0000 0.52818  0.41367  0.20326  Biso   1.000  C
  C68      1.0000 0.34368  0.47046  0.96187  Biso   1.000  C
  C69      1.0000 0.56618  0.64461  0.01826  Biso   1.000  C
  C70      1.0000 0.01666  0.40843  0.34105  Biso   1.000  C
  C71      1.0000 0.84723  0.45699  0.57226  Biso   1.000  C
  C72      1.0000 0.07817  0.64732  0.51450  Biso   1.000  C
  C73      1.0000 0.03171  0.51683  0.33256  Biso   1.000  C
  C74      1.0000 0.34385  0.97834  0.59108  Biso   1.000  C
  C75      1.0000 0.58344  0.28098  0.02085  Biso   1.000  C
  C76      1.0000 0.51943  0.52188  0.20343  Biso   1.000  C
  C77      1.0000 0.84394  0.96479  0.95022  Biso   1.000  C
  C78      1.0000 0.08312  0.29099  0.52016  Biso   1.000  C
  C79      1.0000 0.51274  0.02512  0.33869  Biso   1.000  C
  C80      1.0000 0.21204  0.47537  0.57164  Biso   1.000  C
  C81      1.0000 0.95233  0.78794  0.01200  Biso   1.000  C
  C82      1.0000 0.00293  0.01495  0.19606  Biso   1.000  C
  C83      1.0000 0.70139  0.46354  0.96430  Biso   1.000  C
  C84      1.0000 0.46312  0.79011  0.51679  Biso   1.000  C
  C85      1.0000 0.02393  0.41229  0.70392  Biso   1.000  C
  C86      1.0000 0.69477  0.95583  0.44801  Biso   1.000  C
  C87      1.0000 0.45439  0.64695  0.01608  Biso   1.000  C
  C88      1.0000 0.53248  0.40575  0.83272  Biso   1.000  C
  C89      1.0000 0.19741  0.96368  0.08326  Biso   1.000  C
  C90      1.0000 0.96607  0.64751  0.50700  Biso   1.000  C
  C91      1.0000 0.53739  0.90611  0.70092  Biso   1.000  C
  C92      1.0000 0.84651  0.45962  0.46062  Biso   1.000  C
  C93      1.0000 0.08786  0.14056  0.02590  Biso   1.000  C
  C94      1.0000 0.03696  0.90836  0.83510  Biso   1.000  C
  C95      1.0000 0.34035  0.45672  0.07133  Biso   1.000  C
  C96      1.0000 0.58615  0.14251  0.51844  Biso   1.000  C
  C97      1.0000 0.70580  0.04565  0.49143  Biso   1.000  C
  C98      1.0000 0.50976  0.64748  0.10355  Biso   1.000  C
  C99      1.0000 0.11576  0.46297  0.69777  Biso   1.000  C
  C100     1.0000 0.21282  0.04182  0.01661  Biso   1.000  C
  C101     1.0000 0.02671  0.64880  0.42428  Biso   1.000  C
  C102     1.0000 0.61350  0.46175  0.83351  Biso   1.000  C
  C103     1.0000 0.84076  0.54576  0.51359  Biso   1.000  C
  C104     1.0000 0.03202  0.14550  0.11221  Biso   1.000  C
  C105     1.0000 0.45178  0.96729  0.71038  Biso   1.000  C
  C106     1.0000 0.33488  0.54655  0.03586  Biso   1.000  C
  C107     1.0000 0.53687  0.14770  0.44001  Biso   1.000  C
  C108     1.0000 0.94755  0.96085  0.82920  Biso   1.000  C
  C109     1.0000 0.33871  0.88559  0.54914  Biso   1.000  C
  C110     1.0000 0.52530  0.28129  0.93100  Biso   1.000  C
  C111     1.0000 0.93782  0.46399  0.32674  Biso   1.000  C
  C112     1.0000 0.82718  0.88234  0.00553  Biso   1.000  C
  C113     1.0000 0.03625  0.28792  0.61229  Biso   1.000  C
  C114     1.0000 0.43679  0.45852  0.19924  Biso   1.000  C
  C115     1.0000 0.21155  0.38341  0.52196  Biso   1.000  C
  C116     1.0000 0.00109  0.78567  0.92240  Biso   1.000  C
  C117     1.0000 0.59039  0.96187  0.32773  Biso   1.000  C
  C118     1.0000 0.70750  0.37954  0.02815  Biso   1.000  C
  C119     1.0000 0.52645  0.78197  0.60089  Biso   1.000  C
  C120     1.0000 0.09279  0.96510  0.20624  Biso   1.000  C
  C121     1.0000 0.83271  0.96193  0.09139  Biso   1.000  C
  C122     1.0000 0.09227  0.78854  0.00574  Biso   1.000  C
  C123     1.0000 0.03577  0.04993  0.84098  Biso   1.000  C
  C124     1.0000 0.33228  0.96454  0.45080  Biso   1.000  C
  C125     1.0000 0.60650  0.78055  0.50567  Biso   1.000  C
  C126     1.0000 0.53832  0.04565  0.70195  Biso   1.000  C
  C127     1.0000 0.70112  0.46688  0.10621  Biso   1.000  C
  C128     1.0000 0.43957  0.28417  0.01559  Biso   1.000  C
  C129     1.0000 0.52431  0.54490  0.83930  Biso   1.000  C
  C130     1.0000 0.20799  0.46341  0.42987  Biso   1.000  C
  C131     1.0000 0.94430  0.28495  0.52571  Biso   1.000  C
  C132     1.0000 0.02949  0.55301  0.69449  Biso   1.000  C
  C133     1.0000 0.20786  0.94533  0.94367  Biso   1.000  C
  C134     1.0000 0.94668  0.14250  0.02686  Biso   1.000  C
  C135     1.0000 0.02031  0.87721  0.19508  Biso   1.000  C
  C136     1.0000 0.70832  0.97265  0.58579  Biso   1.000  C
  C137     1.0000 0.44461  0.15059  0.53677  Biso   1.000  C
  C138     1.0000 0.50091  0.88493  0.33624  Biso   1.000  C
  C139     1.0000 0.34409  0.46599  0.92972  Biso   1.000  C
  C140     1.0000 0.59764  0.64589  0.02085  Biso   1.000  C
  C141     1.0000 0.53056  0.38274  0.20340  Biso   1.000  C
  C142     1.0000 0.84839  0.45709  0.60367  Biso   1.000  C
  C143     1.0000 0.10999  0.64788  0.51127  Biso   1.000  C
  C144     1.0000 0.01955  0.37622  0.33966  Biso   1.000  C
  C145     1.0000 0.34014  0.45815  0.10314  Biso   1.000  C
  C146     1.0000 0.11531  0.29124  0.52313  Biso   1.000  C
  C147     1.0000 0.51730  0.05611  0.34001  Biso   1.000  C
  C148     1.0000 0.84598  0.45335  0.42899  Biso   1.000  C
  C149     1.0000 0.61501  0.28127  0.02589  Biso   1.000  C
  C150     1.0000 0.00326  0.04736  0.19909  Biso   1.000  C
  C151     1.0000 0.19724  0.96586  0.11611  Biso   1.000  C
  C152     1.0000 0.43114  0.79242  0.51813  Biso   1.000  C
  C153     1.0000 0.03468  0.54877  0.33184  Biso   1.000  C
  C154     1.0000 0.69219  0.95671  0.41591  Biso   1.000  C
  C155     1.0000 0.92058  0.78674  0.01165  Biso   1.000  C
  C156     1.0000 0.51546  0.55366  0.20288  Biso   1.000  C
  C157     1.0000 0.70360  0.46028  0.93315  Biso   1.000  C
  C158     1.0000 0.93456  0.64844  0.49791  Biso   1.000  C
  C159     1.0000 0.53825  0.87384  0.70142  Biso   1.000  C
  C160     1.0000 0.21274  0.47745  0.60361  Biso   1.000  C
  C161     1.0000 0.42093  0.64709  0.01468  Biso   1.000  C
  C162     1.0000 0.03292  0.87697  0.83288  Biso   1.000  C
  C163     1.0000 0.84762  0.96454  0.91890  Biso   1.000  C
  C164     1.0000 0.61730  0.14258  0.50869  Biso   1.000  C
  C165     1.0000 0.01788  0.38166  0.70617  Biso   1.000  C
  C166     1.0000 0.34865  0.97427  0.62311  Biso   1.000  C
  C167     1.0000 0.11994  0.13945  0.02323  Biso   1.000  C
  C168     1.0000 0.53872  0.37368  0.83342  Biso   1.000  C
  C169     1.0000 0.00847  0.78676  0.09669  Biso   1.000  C
  C170     1.0000 0.11921  0.97379  0.84643  Biso   1.000  C
  C171     1.0000 0.85128  0.05346  0.99796  Biso   1.000  C
  C172     1.0000 0.51352  0.78749  0.42715  Biso   1.000  C
  C173     1.0000 0.62649  0.95866  0.69268  Biso   1.000  C
  C174     1.0000 0.34263  0.05981  0.52775  Biso   1.000  C
  C175     1.0000 0.52707  0.28765  0.10565  Biso   1.000  C
  C176     1.0000 0.44168  0.45461  0.83142  Biso   1.000  C
  C177     1.0000 0.69465  0.54995  0.02572  Biso   1.000  C
  C178     1.0000 0.01758  0.28334  0.44075  Biso   1.000  C
  C179     1.0000 0.94080  0.46873  0.70247  Biso   1.000  C
  C180     1.0000 0.20728  0.55817  0.51758  Biso   1.000  C
  C181     1.0000 0.04240  0.14193  0.93743  Biso   1.000  C
  C182     1.0000 0.92149  0.95174  0.19136  Biso   1.000  C
  C183     1.0000 0.19069  0.87170  0.04158  Biso   1.000  C
  C184     1.0000 0.52745  0.14240  0.60982  Biso   1.000  C
  C185     1.0000 0.42007  0.97324  0.35018  Biso   1.000  C
  C186     1.0000 0.69934  0.87438  0.50606  Biso   1.000  C
  C187     1.0000 0.51576  0.64324  0.92956  Biso   1.000  C
  C188     1.0000 0.60972  0.47107  0.20485  Biso   1.000  C
  C189     1.0000 0.34087  0.37918  0.00435  Biso   1.000  C
  C190     1.0000 0.01060  0.64565  0.59793  Biso   1.000  C
  C191     1.0000 0.10907  0.45583  0.33873  Biso   1.000  C
  C192     1.0000 0.84679  0.37332  0.51507  Biso   1.000  C
  C193     1.0000 0.87604  0.96659  0.90404  Biso   1.000  C
  C194     1.0000 0.90263  0.81283  0.00822  Biso   1.000  C
  C195     1.0000 0.02324  0.86148  0.85806  Biso   1.000  C
  C196     1.0000 0.37811  0.97715  0.63540  Biso   1.000  C
  C197     1.0000 0.41589  0.81949  0.52544  Biso   1.000  C
  C198     1.0000 0.53853  0.85736  0.67331  Biso   1.000  C
  C199     1.0000 0.67721  0.45675  0.91636  Biso   1.000  C
  C200     1.0000 0.63112  0.30761  0.02641  Biso   1.000  C
  C201     1.0000 0.53496  0.36000  0.86182  Biso   1.000  C
  C202     1.0000 0.18616  0.47335  0.61769  Biso   1.000  C
  C203     1.0000 0.13241  0.31741  0.52031  Biso   1.000  C
  C204     1.0000 0.01608  0.36604  0.67897  Biso   1.000  C
  C205     1.0000 0.16837  0.96902  0.13149  Biso   1.000  C
  C206     1.0000 0.13521  0.11262  0.01858  Biso   1.000  C
  C207     1.0000 0.00773  0.06557  0.17397  Biso   1.000  C
  C208     1.0000 0.66378  0.96301  0.40289  Biso   1.000  C
  C209     1.0000 0.63300  0.11602  0.50190  Biso   1.000  C
  C210     1.0000 0.52379  0.07056  0.36815  Biso   1.000  C
  C211     1.0000 0.36768  0.45638  0.11833  Biso   1.000  C
  C212     1.0000 0.40756  0.61801  0.01934  Biso   1.000  C
  C213     1.0000 0.51736  0.56933  0.17607  Biso   1.000  C
  C214     1.0000 0.87189  0.45942  0.41019  Biso   1.000  C
  C215     1.0000 0.91844  0.62101  0.49714  Biso   1.000  C
  C216     1.0000 0.02896  0.56586  0.35717  Biso   1.000  C
  C217     1.0000 0.13351  0.96795  0.87317  Biso   1.000  C
  C218     1.0000 0.87900  0.06764  0.00228  Biso   1.000  C
  C219     1.0000 0.01046  0.81308  0.11316  Biso   1.000  C
  C220     1.0000 0.63928  0.96294  0.66366  Biso   1.000  C
  C221     1.0000 0.37019  0.07359  0.52799  Biso   1.000  C
  C222     1.0000 0.51021  0.81357  0.41189  Biso   1.000  C
  C223     1.0000 0.42636  0.45765  0.86020  Biso   1.000  C
  C224     1.0000 0.66698  0.56649  0.02696  Biso   1.000  C
  C225     1.0000 0.53016  0.31452  0.12172  Biso   1.000  C
  C226     1.0000 0.92598  0.46787  0.67506  Biso   1.000  C
  C227     1.0000 0.17965  0.57377  0.51598  Biso   1.000  C
  C228     1.0000 0.01911  0.31064  0.42413  Biso   1.000  C
  C229     1.0000 0.90719  0.95630  0.16276  Biso   1.000  C
  C230     1.0000 0.16206  0.85850  0.03448  Biso   1.000  C
  C231     1.0000 0.03920  0.11529  0.92032  Biso   1.000  C
  C232     1.0000 0.40568  0.97010  0.37818  Biso   1.000  C
  C233     1.0000 0.67229  0.85882  0.50596  Biso   1.000  C
  C234     1.0000 0.52774  0.11489  0.62406  Biso   1.000  C
  C235     1.0000 0.62606  0.47664  0.17865  Biso   1.000  C
  C236     1.0000 0.36893  0.36456  0.00761  Biso   1.000  C
  C237     1.0000 0.51879  0.61569  0.91467  Biso   1.000  C
  C238     1.0000 0.12543  0.46033  0.36684  Biso   1.000  C
  C239     1.0000 0.87411  0.35883  0.52120  Biso   1.000  C
  C240     1.0000 0.01425  0.62024  0.61416  Biso   1.000  C
  C241     1.0000 0.62903  0.46091  0.86157  Biso   1.000  C
  C242     1.0000 0.86727  0.56366  0.50816  Biso   1.000  C
  C243     1.0000 0.53144  0.80864  0.61823  Biso   1.000  C
  C244     1.0000 0.13146  0.46514  0.67042  Biso   1.000  C
  C245     1.0000 0.36035  0.56517  0.03228  Biso   1.000  C
  C246     1.0000 0.00742  0.81128  0.90598  Biso   1.000  C
  C247     1.0000 0.92993  0.96149  0.85568  Biso   1.000  C
  C248     1.0000 0.67929  0.06157  0.49609  Biso   1.000  C
  C249     1.0000 0.03074  0.31423  0.62767  Biso   1.000  C
  C250     1.0000 0.43349  0.96925  0.68398  Biso   1.000  C
  C251     1.0000 0.18611  0.05864  0.01899  Biso   1.000  C
  C252     1.0000 0.52743  0.30858  0.91473  Biso   1.000  C
  C253     1.0000 0.42137  0.45718  0.17157  Biso   1.000  C
  C254     1.0000 0.18341  0.36729  0.52167  Biso   1.000  C
  C255     1.0000 0.53399  0.12159  0.42276  Biso   1.000  C
  C256     1.0000 0.92147  0.46390  0.35396  Biso   1.000  C
  C257     1.0000 0.68162  0.36085  0.02988  Biso   1.000  C
  C258     1.0000 0.02798  0.11791  0.12729  Biso   1.000  C
  C259     1.0000 0.11123  0.96426  0.18046  Biso   1.000  C
  C260     1.0000 0.36675  0.87146  0.54153  Biso   1.000  C
  C261     1.0000 0.02924  0.62008  0.40809  Biso   1.000  C
  C262     1.0000 0.60786  0.96326  0.35461  Biso   1.000  C
  C263     1.0000 0.85231  0.86495  0.00708  Biso   1.000  C
  C264     1.0000 0.51027  0.61918  0.11988  Biso   1.000  C
  C265     1.0000 0.03572  0.06530  0.86798  Biso   1.000  C
  C266     1.0000 0.85796  0.95927  0.10952  Biso   1.000  C
  C267     1.0000 0.10928  0.81198  0.01620  Biso   1.000  C
  C268     1.0000 0.53421  0.06271  0.67458  Biso   1.000  C
  C269     1.0000 0.35738  0.96738  0.43132  Biso   1.000  C
  C270     1.0000 0.62231  0.80706  0.50401  Biso   1.000  C
  C271     1.0000 0.52167  0.56250  0.86683  Biso   1.000  C
  C272     1.0000 0.67554  0.47298  0.12291  Biso   1.000  C
  C273     1.0000 0.42469  0.31211  0.01323  Biso   1.000  C
  C274     1.0000 0.02424  0.56650  0.66677  Biso   1.000  C
  C275     1.0000 0.18027  0.45953  0.41648  Biso   1.000  C
  C276     1.0000 0.92681  0.30995  0.52702  Biso   1.000  C
  C277     1.0000 0.01808  0.86178  0.16659  Biso   1.000  C
  C278     1.0000 0.18261  0.95405  0.92810  Biso   1.000  C
  C279     1.0000 0.92997  0.11653  0.02069  Biso   1.000  C
  C280     1.0000 0.50392  0.86677  0.36262  Biso   1.000  C
  C281     1.0000 0.68360  0.97337  0.60567  Biso   1.000  C
  C282     1.0000 0.42758  0.12343  0.53622  Biso   1.000  C
  C283     1.0000 0.52865  0.36661  0.17431  Biso   1.000  C
  C284     1.0000 0.37255  0.46719  0.91381  Biso   1.000  C
  C285     1.0000 0.61357  0.61882  0.02513  Biso   1.000  C
  C286     1.0000 0.01773  0.36213  0.36706  Biso   1.000  C
  C287     1.0000 0.87524  0.45881  0.62120  Biso   1.000  C
  C288     1.0000 0.12840  0.62275  0.51196  Biso   1.000  C
  C289     1.0000 0.36459  0.84074  0.53582  Biso   1.000  C
  C290     1.0000 0.52878  0.30799  0.88246  Biso   1.000  C
  C291     1.0000 0.89154  0.45779  0.35549  Biso   1.000  C
  C292     1.0000 0.84988  0.83373  0.01135  Biso   1.000  C
  C293     1.0000 0.02921  0.31445  0.65936  Biso   1.000  C
  C294     1.0000 0.38904  0.45458  0.17084  Biso   1.000  C
  C295     1.0000 0.18505  0.33628  0.52211  Biso   1.000  C
  C296     1.0000 0.01088  0.80822  0.87484  Biso   1.000  C
  C297     1.0000 0.63876  0.95728  0.35104  Biso   1.000  C
  C298     1.0000 0.68291  0.33024  0.02755  Biso   1.000  C
  C299     1.0000 0.53182  0.80606  0.65017  Biso   1.000  C
  C300     1.0000 0.14270  0.96291  0.18233  Biso   1.000  C
  C301     1.0000 0.68274  0.09404  0.49696  Biso   1.000  C
  C302     1.0000 0.51074  0.62025  0.15227  Biso   1.000  C
  C303     1.0000 0.16268  0.46604  0.67156  Biso   1.000  C
  C304     1.0000 0.18875  0.08977  0.01869  Biso   1.000  C
  C305     1.0000 0.02937  0.61907  0.37710  Biso   1.000  C
  C306     1.0000 0.65969  0.45958  0.86255  Biso   1.000  C
  C307     1.0000 0.86706  0.59611  0.50495  Biso   1.000  C
  C308     1.0000 0.02355  0.11789  0.15841  Biso   1.000  C
  C309     1.0000 0.40240  0.96942  0.68677  Biso   1.000  C
  C310     1.0000 0.35501  0.59497  0.02988  Biso   1.000  C
  C311     1.0000 0.53207  0.12277  0.39151  Biso   1.000  C
  C312     1.0000 0.89859  0.96618  0.85297  Biso   1.000  C
  C313     1.0000 0.17933  0.45898  0.38548  Biso   1.000  C
  C314     1.0000 0.39664  0.12552  0.53068  Biso   1.000  C
  C315     1.0000 0.52756  0.33508  0.17615  Biso   1.000  C
  C316     1.0000 0.67589  0.46781  0.15573  Biso   1.000  C
  C317     1.0000 0.89913  0.11915  0.01536  Biso   1.000  C
  C318     1.0000 0.01854  0.33075  0.36888  Biso   1.000  C
  C319     1.0000 0.35300  0.96663  0.40036  Biso   1.000  C
  C320     1.0000 0.15899  0.62666  0.51636  Biso   1.000  C
  C321     1.0000 0.01653  0.83096  0.16673  Biso   1.000  C
  C322     1.0000 0.85522  0.95400  0.14005  Biso   1.000  C
  C323     1.0000 0.64518  0.61896  0.02643  Biso   1.000  C
  C324     1.0000 0.50890  0.83580  0.36088  Biso   1.000  C
  C325     1.0000 0.87456  0.46072  0.65163  Biso   1.000  C
  C326     1.0000 0.65361  0.80515  0.50463  Biso   1.000  C
  C327     1.0000 0.52441  0.59345  0.86401  Biso   1.000  C
  C328     1.0000 0.37282  0.46153  0.88288  Biso   1.000  C
  C329     1.0000 0.13983  0.80789  0.01987  Biso   1.000  C
  C330     1.0000 0.02236  0.59805  0.66649  Biso   1.000  C
  C331     1.0000 0.68946  0.97233  0.63716  Biso   1.000  C
  C332     1.0000 0.89628  0.30697  0.52103  Biso   1.000  C
  C333     1.0000 0.03890  0.09691  0.86701  Biso   1.000  C
  C334     1.0000 0.18456  0.95726  0.89644  Biso   1.000  C
  C335     1.0000 0.39250  0.31255  0.01203  Biso   1.000  C
  C336     1.0000 0.53267  0.09313  0.67735  Biso   1.000  C
  C337     1.0000 0.67969  0.45840  0.88510  Biso   1.000  C
  C338     1.0000 0.88762  0.61917  0.49920  Biso   1.000  C
  C339     1.0000 0.53571  0.82625  0.67309  Biso   1.000  C
  C340     1.0000 0.18478  0.47008  0.64879  Biso   1.000  C
  C341     1.0000 0.37584  0.61702  0.02491  Biso   1.000  C
  C342     1.0000 0.01839  0.82963  0.85545  Biso   1.000  C
  C343     1.0000 0.87606  0.96785  0.87327  Biso   1.000  C
  C344     1.0000 0.66269  0.11735  0.49768  Biso   1.000  C
  C345     1.0000 0.02353  0.33494  0.68063  Biso   1.000  C
  C346     1.0000 0.38070  0.97337  0.66624  Biso   1.000  C
  C347     1.0000 0.16699  0.11135  0.01883  Biso   1.000  C
  C348     1.0000 0.53327  0.32904  0.86185  Biso   1.000  C
  C349     1.0000 0.36809  0.45493  0.14901  Biso   1.000  C
  C350     1.0000 0.16382  0.31517  0.52324  Biso   1.000  C
  C351     1.0000 0.52729  0.10190  0.36913  Biso   1.000  C
  C352     1.0000 0.86986  0.45608  0.37773  Biso   1.000  C
  C353     1.0000 0.66189  0.30783  0.02760  Biso   1.000  C
  C354     1.0000 0.01499  0.09571  0.17682  Biso   1.000  C
  C355     1.0000 0.16626  0.96564  0.16267  Biso   1.000  C
  C356     1.0000 0.38531  0.81877  0.52894  Biso   1.000  C
  C357     1.0000 0.02919  0.59726  0.35535  Biso   1.000  C
  C358     1.0000 0.66203  0.95751  0.37135  Biso   1.000  C
  C359     1.0000 0.87104  0.81190  0.01345  Biso   1.000  C
  C360     1.0000 0.51207  0.59978  0.17499  Biso   1.000  C
  C361     1.0000 0.03941  0.11735  0.88989  Biso   1.000  C
  C362     1.0000 0.87518  0.95335  0.16331  Biso   1.000  C
  C363     1.0000 0.16239  0.82793  0.02744  Biso   1.000  C
  C364     1.0000 0.53088  0.11532  0.65587  Biso   1.000  C
  C365     1.0000 0.37417  0.96902  0.37760  Biso   1.000  C
  C366     1.0000 0.67417  0.82749  0.50368  Biso   1.000  C
  C367     1.0000 0.52181  0.61636  0.88401  Biso   1.000  C
  C368     1.0000 0.65633  0.46787  0.17870  Biso   1.000  C
  C369     1.0000 0.36952  0.33311  0.00815  Biso   1.000  C
  C370     1.0000 0.01726  0.62022  0.64477  Biso   1.000  C
  C371     1.0000 0.15668  0.45866  0.36496  Biso   1.000  C
  C372     1.0000 0.87304  0.32757  0.51938  Biso   1.000  C
  C373     1.0000 0.01241  0.81132  0.14436  Biso   1.000  C
  C374     1.0000 0.16455  0.96297  0.87350  Biso   1.000  C
  C375     1.0000 0.87802  0.09841  0.00814  Biso   1.000  C
  C376     1.0000 0.51051  0.81396  0.38156  Biso   1.000  C
  C377     1.0000 0.67074  0.96727  0.66075  Biso   1.000  C
  C378     1.0000 0.37466  0.10481  0.52643  Biso   1.000  C
  C379     1.0000 0.52822  0.31372  0.15425  Biso   1.000  C
  C380     1.0000 0.39446  0.45966  0.86113  Biso   1.000  C
  C381     1.0000 0.66680  0.59670  0.02791  Biso   1.000  C
  C382     1.0000 0.01788  0.30978  0.39204  Biso   1.000  C
  C383     1.0000 0.89524  0.46456  0.67346  Biso   1.000  C
  C384     1.0000 0.18023  0.60528  0.51813  Biso   1.000  C
  C385     1.0000 0.21610  0.10475  0.01794  Biso   1.000  C
  C386     1.0000 0.02520  0.14405  0.17605  Biso   1.000  C
  C387     1.0000 0.15591  0.95836  0.21170  Biso   1.000  C
  C388     1.0000 0.71009  0.10882  0.49419  Biso   1.000  C
  C389     1.0000 0.53316  0.14935  0.37625  Biso   1.000  C
  C390     1.0000 0.65169  0.94989  0.32379  Biso   1.000  C
  C391     1.0000 0.32736  0.60889  0.03113  Biso   1.000  C
  C392     1.0000 0.51060  0.64779  0.16725  Biso   1.000  C
  C393     1.0000 0.37447  0.45143  0.19802  Biso   1.000  C
  C394     1.0000 0.83850  0.61037  0.50765  Biso   1.000  C
  C395     1.0000 0.02981  0.64505  0.36114  Biso   1.000  C
  C396     1.0000 0.87667  0.45160  0.32985  Biso   1.000  C
  C397     1.0000 0.82215  0.81965  0.01382  Biso   1.000  C
  C398     1.0000 0.00765  0.78217  0.85886  Biso   1.000  C
  C399     1.0000 0.88675  0.96864  0.82456  Biso   1.000  C
  C400     1.0000 0.33738  0.82585  0.53854  Biso   1.000  C
  C401     1.0000 0.52698  0.77991  0.66554  Biso   1.000  C
  C402     1.0000 0.38793  0.96371  0.71370  Biso   1.000  C
  C403     1.0000 0.71030  0.31702  0.02399  Biso   1.000  C
  C404     1.0000 0.52825  0.28040  0.86774  Biso   1.000  C
  C405     1.0000 0.67689  0.46138  0.83573  Biso   1.000  C
  C406     1.0000 0.21143  0.32150  0.52528  Biso   1.000  C
  C407     1.0000 0.03305  0.28760  0.67420  Biso   1.000  C
  C408     1.0000 0.17881  0.46360  0.69754  Biso   1.000  C
  C409     1.0000 0.18275  0.96542  0.84732  Biso   1.000  C
  C410     1.0000 0.85211  0.11634  0.00813  Biso   1.000  C
  C411     1.0000 0.01240  0.78293  0.15785  Biso   1.000  C
  C412     1.0000 0.68954  0.96626  0.68523  Biso   1.000  C
  C413     1.0000 0.34915  0.12252  0.52307  Biso   1.000  C
  C414     1.0000 0.51253  0.78746  0.36397  Biso   1.000  C
  C415     1.0000 0.37844  0.45576  0.83453  Biso   1.000  C
  C416     1.0000 0.69304  0.61257  0.02623  Biso   1.000  C
  C417     1.0000 0.52509  0.28662  0.17022  Biso   1.000  C
  C418     1.0000 0.87904  0.46613  0.69911  Biso   1.000  C
  C419     1.0000 0.20593  0.62121  0.52491  Biso   1.000  C
  C420     1.0000 0.01836  0.28197  0.37671  Biso   1.000  C
  C421     1.0000 0.85789  0.94901  0.18989  Biso   1.000  C
  C422     1.0000 0.18839  0.81089  0.02718  Biso   1.000  C
  C423     1.0000 0.04381  0.14414  0.87379  Biso   1.000  C
  C424     1.0000 0.35585  0.96932  0.35144  Biso   1.000  C
  C425     1.0000 0.70153  0.81213  0.50519  Biso   1.000  C
  C426     1.0000 0.52962  0.14201  0.67163  Biso   1.000  C
  C427     1.0000 0.67177  0.45810  0.20333  Biso   1.000  C
  C428     1.0000 0.34142  0.31676  0.00708  Biso   1.000  C
  C429     1.0000 0.52183  0.64321  0.86809  Biso   1.000  C
  C430     1.0000 0.17082  0.45299  0.33653  Biso   1.000  C
  C431     1.0000 0.84762  0.31077  0.51227  Biso   1.000  C
  C432     1.0000 0.01329  0.64589  0.66044  Biso   1.000  C
  C433     1.0000 0.04184  0.11386  0.84014  Biso   1.000  C
  C434     1.0000 0.82673  0.94971  0.15517  Biso   1.000  C
  C435     1.0000 0.15501  0.78075  0.01484  Biso   1.000  C
  C436     1.0000 0.53620  0.10810  0.70426  Biso   1.000  C
  C437     1.0000 0.32459  0.96520  0.38740  Biso   1.000  C
  C438     1.0000 0.66758  0.77894  0.50480  Biso   1.000  C
  C439     1.0000 0.52578  0.60759  0.83639  Biso   1.000  C
  C440     1.0000 0.70331  0.45941  0.16878  Biso   1.000  C
  C441     1.0000 0.37674  0.28611  0.01516  Biso   1.000  C
  C442     1.0000 0.02324  0.61422  0.69374  Biso   1.000  C
  C443     1.0000 0.20649  0.45633  0.36784  Biso   1.000  C
  C444     1.0000 0.88254  0.27931  0.51435  Biso   1.000  C
  C445     1.0000 0.02022  0.81367  0.19257  Biso   1.000  C
  C446     1.0000 0.21250  0.95462  0.88221  Biso   1.000  C
  C447     1.0000 0.88440  0.14705  0.01834  Biso   1.000  C
  C448     1.0000 0.51052  0.82184  0.33366  Biso   1.000  C
  C449     1.0000 0.71915  0.97221  0.64892  Biso   1.000  C
  C450     1.0000 0.38229  0.15366  0.53059  Biso   1.000  C
  C451     1.0000 0.52645  0.31968  0.20255  Biso   1.000  C
  C452     1.0000 0.34587  0.45594  0.86725  Biso   1.000  C
  C453     1.0000 0.66034  0.64536  0.02431  Biso   1.000  C
  C454     1.0000 0.01938  0.31405  0.34269  Biso   1.000  C
  C455     1.0000 0.84765  0.46080  0.66660  Biso   1.000  C
  C456     1.0000 0.17385  0.65365  0.51879  Biso   1.000  C
  C457     1.0000 0.03236  0.61230  0.32861  Biso   1.000  C
  C458     1.0000 0.35514  0.96984  0.68347  Biso   1.000  C
  C459     1.0000 0.67829  0.28190  0.02766  Biso   1.000  C
  C460     1.0000 0.51157  0.61657  0.20122  Biso   1.000  C
  C461     1.0000 0.85057  0.96915  0.85543  Biso   1.000  C
  C462     1.0000 0.17892  0.28880  0.52810  Biso   1.000  C
  C463     1.0000 0.52601  0.11804  0.34246  Biso   1.000  C
  C464     1.0000 0.21172  0.46838  0.66622  Biso   1.000  C
  C465     1.0000 0.85536  0.78671  0.01745  Biso   1.000  C
  C466     1.0000 0.01484  0.10959  0.20523  Biso   1.000  C
  C467     1.0000 0.70769  0.46262  0.87042  Biso   1.000  C
  C468     1.0000 0.36814  0.79347  0.52724  Biso   1.000  C
  C469     1.0000 0.02463  0.31883  0.70751  Biso   1.000  C
  C470     1.0000 0.68751  0.95032  0.35491  Biso   1.000  C
  C471     1.0000 0.35837  0.64346  0.02255  Biso   1.000  C
  C472     1.0000 0.53656  0.31218  0.83600  Biso   1.000  C
  C473     1.0000 0.19196  0.96172  0.18042  Biso   1.000  C
  C474     1.0000 0.87030  0.64469  0.49834  Biso   1.000  C
  C475     1.0000 0.53217  0.81002  0.69907  Biso   1.000  C
  C476     1.0000 0.84275  0.45016  0.36370  Biso   1.000  C
  C477     1.0000 0.18304  0.13844  0.02012  Biso   1.000  C
  C478     1.0000 0.02036  0.81526  0.82806  Biso   1.000  C
  C479     1.0000 0.34106  0.45392  0.16548  Biso   1.000  C
  C480     1.0000 0.67858  0.14360  0.49839  Biso   1.000  C
  C481     1.0000 0.38129  0.76695  0.51886  Biso   1.000  C
  C482     1.0000 0.54027  0.32623  0.80720  Biso   1.000  C
  C483     1.0000 0.81722  0.44407  0.38168  Biso   1.000  C
  C484     1.0000 0.87158  0.75873  0.01688  Biso   1.000  C
  C485     1.0000 0.02333  0.33564  0.73514  Biso   1.000  C
  C486     1.0000 0.31344  0.45401  0.15042  Biso   1.000  C
  C487     1.0000 0.16230  0.26115  0.53048  Biso   1.000  C
  C488     1.0000 0.02683  0.83288  0.80223  Biso   1.000  C
  C489     1.0000 0.71560  0.94834  0.36747  Biso   1.000  C
  C490     1.0000 0.66325  0.25544  0.02841  Biso   1.000  C
  C491     1.0000 0.53607  0.82525  0.72664  Biso   1.000  C
  C492     1.0000 0.22033  0.95805  0.16567  Biso   1.000  C
  C493     1.0000 0.66251  0.17175  0.50321  Biso   1.000  C
  C494     1.0000 0.51241  0.60290  0.22931  Biso   1.000  C
  C495     1.0000 0.23875  0.47345  0.65073  Biso   1.000  C
  C496     1.0000 0.16740  0.16522  0.02583  Biso   1.000  C
  C497     1.0000 0.03425  0.59435  0.30176  Biso   1.000  C
  C498     1.0000 0.73424  0.46262  0.88802  Biso   1.000  C
  C499     1.0000 0.88584  0.67276  0.49462  Biso   1.000  C
  C500     1.0000 0.00673  0.09142  0.23065  Biso   1.000  C
  C501     1.0000 0.32692  0.96667  0.67075  Biso   1.000  C
  C502     1.0000 0.37302  0.67235  0.01873  Biso   1.000  C
  C503     1.0000 0.51874  0.10443  0.31416  Biso   1.000  C
  C504     1.0000 0.82286  0.96720  0.86997  Biso   1.000  C
  C505     1.0000 0.66170  0.46066  0.80712  Biso   1.000  C
  C506     1.0000 0.81230  0.59359  0.51580  Biso   1.000  C
  C507     1.0000 0.52092  0.75382  0.64836  Biso   1.000  C
  C508     1.0000 0.16218  0.46307  0.72515  Biso   1.000  C
  C509     1.0000 0.30263  0.58981  0.03739  Biso   1.000  C
  C510     1.0000 0.99948  0.75576  0.87634  Biso   1.000  C
  C511     1.0000 0.90377  0.96581  0.79895  Biso   1.000  C
  C512     1.0000 0.73528  0.09021  0.49094  Biso   1.000  C
  C513     1.0000 0.04065  0.26171  0.65911  Biso   1.000  C
  C514     1.0000 0.40495  0.95913  0.73973  Biso   1.000  C
  C515     1.0000 0.24242  0.08767  0.01626  Biso   1.000  C
  C516     1.0000 0.52553  0.25245  0.88413  Biso   1.000  C
  C517     1.0000 0.38988  0.44917  0.22511  Biso   1.000  C
  C518     1.0000 0.23904  0.33627  0.52774  Biso   1.000  C
  C519     1.0000 0.53681  0.17626  0.39190  Biso   1.000  C
  C520     1.0000 0.89148  0.45194  0.30016  Biso   1.000  C
  C521     1.0000 0.73664  0.33573  0.01963  Biso   1.000  C
  C522     1.0000 0.03271  0.17101  0.16158  Biso   1.000  C
  C523     1.0000 0.13645  0.95598  0.23792  Biso   1.000  C
  C524     1.0000 0.31086  0.83969  0.54871  Biso   1.000  C
  C525     1.0000 0.02730  0.67434  0.37569  Biso   1.000  C
  C526     1.0000 0.63454  0.94914  0.29694  Biso   1.000  C
  C527     1.0000 0.79592  0.83657  0.00919  Biso   1.000  C
  C528     1.0000 0.50831  0.67477  0.15161  Biso   1.000  C
  C529     1.0000 0.82318  0.10176  0.00222  Biso   1.000  C
  C530     1.0000 0.00810  0.75578  0.14086  Biso   1.000  C
  C531     1.0000 0.16849  0.97207  0.82076  Biso   1.000  C
  C532     1.0000 0.31979  0.10868  0.52243  Biso   1.000  C
  C533     1.0000 0.51642  0.76022  0.37983  Biso   1.000  C
  C534     1.0000 0.67777  0.96083  0.71399  Biso   1.000  C
  C535     1.0000 0.72124  0.59906  0.02503  Biso   1.000  C
  C536     1.0000 0.52180  0.26055  0.15468  Biso   1.000  C
  C537     1.0000 0.39234  0.45116  0.80584  Biso   1.000  C
  C538     1.0000 0.23298  0.60495  0.53133  Biso   1.000  C
  C539     1.0000 0.01561  0.25614  0.39487  Biso   1.000  C
  C540     1.0000 0.89249  0.47083  0.72764  Biso   1.000  C
  C541     1.0000 0.21500  0.82303  0.03938  Biso   1.000  C
  C542     1.0000 0.04597  0.17042  0.89138  Biso   1.000  C
  C543     1.0000 0.87297  0.94497  0.21724  Biso   1.000  C
  C544     1.0000 0.72853  0.82774  0.50739  Biso   1.000  C
  C545     1.0000 0.52308  0.16867  0.65680  Biso   1.000  C
  C546     1.0000 0.37150  0.97267  0.32413  Biso   1.000  C
  C547     1.0000 0.31372  0.33100  0.00375  Biso   1.000  C
  C548     1.0000 0.51901  0.67002  0.88230  Biso   1.000  C
  C549     1.0000 0.65509  0.45751  0.23078  Biso   1.000  C
  C550     1.0000 0.82112  0.32570  0.50566  Biso   1.000  C
  C551     1.0000 0.00754  0.67278  0.64404  Biso   1.000  C
  C552     1.0000 0.15444  0.44616  0.31038  Biso   1.000  C
  C553     1.0000 0.03984  0.09826  0.81307  Biso   1.000  C
  C554     1.0000 0.80140  0.95191  0.13688  Biso   1.000  C
  C555     1.0000 0.13690  0.75648  0.00724  Biso   1.000  C
  C556     1.0000 0.54113  0.09159  0.72985  Biso   1.000  C
  C557     1.0000 0.29982  0.96382  0.40597  Biso   1.000  C
  C558     1.0000 0.65182  0.75151  0.50556  Biso   1.000  C
  C559     1.0000 0.52608  0.59149  0.80888  Biso   1.000  C
  C560     1.0000 0.72752  0.45309  0.15191  Biso   1.000  C
  C561     1.0000 0.39146  0.25830  0.01816  Biso   1.000  C
  C562     1.0000 0.03163  0.60008  0.72163  Biso   1.000  C
  C563     1.0000 0.23451  0.45913  0.38152  Biso   1.000  C
  C564     1.0000 0.90089  0.25351  0.51614  Biso   1.000  C
  C565     1.0000 0.02188  0.82850  0.22094  Biso   1.000  C
  C566     1.0000 0.23689  0.94329  0.89820  Biso   1.000  C
  C567     1.0000 0.90055  0.17163  0.02727  Biso   1.000  C
  C568     1.0000 0.50689  0.83854  0.30734  Biso   1.000  C
  C569     1.0000 0.74345  0.97461  0.62889  Biso   1.000  C
  C570     1.0000 0.39781  0.17955  0.53624  Biso   1.000  C
  C571     1.0000 0.52804  0.33494  0.22938  Biso   1.000  C
  C572     1.0000 0.31814  0.45830  0.88285  Biso   1.000  C
  C573     1.0000 0.64614  0.67331  0.02411  Biso   1.000  C
  C574     1.0000 0.02029  0.32861  0.31384  Biso   1.000  C
  C575     1.0000 0.82077  0.45668  0.64972  Biso   1.000  C
  C576     1.0000 0.15669  0.67950  0.51370  Biso   1.000  C
  C577     1.0000 0.31226  0.45681  0.11917  Biso   1.000  C
  C578     1.0000 0.13123  0.26326  0.52592  Biso   1.000  C
  C579     1.0000 0.51467  0.07277  0.31322  Biso   1.000  C
  C580     1.0000 0.81866  0.44638  0.41439  Biso   1.000  C
  C581     1.0000 0.63166  0.25457  0.02768  Biso   1.000  C
  C582     1.0000 0.00255  0.06037  0.22735  Biso   1.000  C
  C583     1.0000 0.22302  0.96025  0.13346  Biso   1.000  C
  C584     1.0000 0.41245  0.76641  0.51417  Biso   1.000  C
  C585     1.0000 0.03782  0.56276  0.30432  Biso   1.000  C
  C586     1.0000 0.71854  0.95154  0.39851  Biso   1.000  C
  C587     1.0000 0.90386  0.75856  0.01440  Biso   1.000  C
  C588     1.0000 0.51158  0.57096  0.22961  Biso   1.000  C
  C589     1.0000 0.73166  0.46155  0.91935  Biso   1.000  C
  C590     1.0000 0.91651  0.67464  0.49431  Biso   1.000  C
  C591     1.0000 0.53814  0.85622  0.72795  Biso   1.000  C
  C592     1.0000 0.23875  0.47796  0.61991  Biso   1.000  C
  C593     1.0000 0.40392  0.67371  0.01558  Biso   1.000  C
  C594     1.0000 0.03576  0.86276  0.80527  Biso   1.000  C
  C595     1.0000 0.82070  0.96352  0.90181  Biso   1.000  C
  C596     1.0000 0.63181  0.16995  0.50855  Biso   1.000  C
  C597     1.0000 0.01980  0.36629  0.73446  Biso   1.000  C
  C598     1.0000 0.32300  0.97011  0.64033  Biso   1.000  C
  C599     1.0000 0.13586  0.16681  0.02427  Biso   1.000  C
  C600     1.0000 0.54007  0.35775  0.80571  Biso   1.000  C
  C601     1.0000 0.23532  0.94083  0.92939  Biso   1.000  C
  C602     1.0000 0.93186  0.16879  0.03142  Biso   1.000  C
  C603     1.0000 0.02085  0.86053  0.22154  Biso   1.000  C
  C604     1.0000 0.73739  0.97347  0.59695  Biso   1.000  C
  C605     1.0000 0.42917  0.17847  0.53975  Biso   1.000  C
  C606     1.0000 0.50228  0.86947  0.30959  Biso   1.000  C
  C607     1.0000 0.31689  0.46129  0.91420  Biso   1.000  C
  C608     1.0000 0.61443  0.67352  0.02256  Biso   1.000  C
  C609     1.0000 0.52915  0.36680  0.23090  Biso   1.000  C
  C610     1.0000 0.82060  0.45629  0.61877  Biso   1.000  C
  C611     1.0000 0.12446  0.67661  0.51118  Biso   1.000  C
  C612     1.0000 0.01962  0.36006  0.31352  Biso   1.000  C
  C613     1.0000 0.80383  0.95836  0.10566  Biso   1.000  C
  C614     1.0000 0.10624  0.76049  0.00109  Biso   1.000  C
  C615     1.0000 0.03670  0.06726  0.81442  Biso   1.000  C
  C616     1.0000 0.30361  0.96388  0.43751  Biso   1.000  C
  C617     1.0000 0.62104  0.75204  0.50847  Biso   1.000  C
  C618     1.0000 0.54327  0.06105  0.72905  Biso   1.000  C
  C619     1.0000 0.72781  0.45610  0.12209  Biso   1.000  C
  C620     1.0000 0.42340  0.25712  0.01945  Biso   1.000  C
  C621     1.0000 0.52530  0.56016  0.80990  Biso   1.000  C
  C622     1.0000 0.23526  0.46176  0.41223  Biso   1.000  C
  C623     1.0000 0.93129  0.25692  0.52053  Biso   1.000  C
  C624     1.0000 0.03426  0.56928  0.72072  Biso   1.000  C
  C625     1.0000 0.04574  0.16955  0.92327  Biso   1.000  C
  C626     1.0000 0.90389  0.94542  0.21922  Biso   1.000  C
  C627     1.0000 0.21685  0.85358  0.04724  Biso   1.000  C
  C628     1.0000 0.52342  0.16863  0.62579  Biso   1.000  C
  C629     1.0000 0.40292  0.97455  0.32352  Biso   1.000  C
  C630     1.0000 0.72762  0.85914  0.50774  Biso   1.000  C
  C631     1.0000 0.51334  0.67096  0.91422  Biso   1.000  C
  C632     1.0000 0.62421  0.46276  0.23074  Biso   1.000  C
  C633     1.0000 0.31374  0.36373  0.00067  Biso   1.000  C
  C634     1.0000 0.00537  0.67251  0.61328  Biso   1.000  C
  C635     1.0000 0.12280  0.44978  0.31114  Biso   1.000  C
  C636     1.0000 0.82086  0.35649  0.50863  Biso   1.000  C
  C637     1.0000 0.00242  0.75932  0.10985  Biso   1.000  C
  C638     1.0000 0.13703  0.97840  0.82027  Biso   1.000  C
  C639     1.0000 0.82459  0.06974  0.99598  Biso   1.000  C
  C640     1.0000 0.51608  0.76090  0.41124  Biso   1.000  C
  C641     1.0000 0.64447  0.95985  0.71838  Biso   1.000  C
  C642     1.0000 0.31574  0.07812  0.52497  Biso   1.000  C
  C643     1.0000 0.52378  0.26112  0.12258  Biso   1.000  C
  C644     1.0000 0.42387  0.45216  0.80471  Biso   1.000  C
  C645     1.0000 0.72168  0.56639  0.02486  Biso   1.000  C
  C646     1.0000 0.01504  0.25560  0.42723  Biso   1.000  C
  C647     1.0000 0.92418  0.47086  0.72906  Biso   1.000  C
  C648     1.0000 0.23391  0.57294  0.52808  Biso   1.000  C
  C649     1.0000 0.02645  0.67722  0.40672  Biso   1.000  C
  C650     1.0000 0.43596  0.96211  0.73856  Biso   1.000  C
  C651     1.0000 0.73699  0.36663  0.02364  Biso   1.000  C
  C652     1.0000 0.50946  0.67453  0.12001  Biso   1.000  C
  C653     1.0000 0.93428  0.96174  0.80038  Biso   1.000  C
  C654     1.0000 0.23763  0.36816  0.52628  Biso   1.000  C
  C655     1.0000 0.53797  0.17626  0.42361  Biso   1.000  C
  C656     1.0000 0.12981  0.46492  0.72492  Biso   1.000  C
  C657     1.0000 0.79903  0.86812  0.00683  Biso   1.000  C
  C658     1.0000 0.03638  0.17225  0.12937  Biso   1.000  C
  C659     1.0000 0.63038  0.45959  0.80534  Biso   1.000  C
  C660     1.0000 0.31219  0.86969  0.55550  Biso   1.000  C
  C661     1.0000 0.04280  0.26221  0.62703  Biso   1.000  C
  C662     1.0000 0.60317  0.95571  0.29942  Biso   1.000  C
  C663     1.0000 0.30704  0.55976  0.04317  Biso   1.000  C
  C664     1.0000 0.52385  0.25298  0.91505  Biso   1.000  C
  C665     1.0000 0.10542  0.96130  0.23546  Biso   1.000  C
  C666     1.0000 0.81444  0.56150  0.51759  Biso   1.000  C
  C667     1.0000 0.52081  0.75357  0.61640  Biso   1.000  C
  C668     1.0000 0.92196  0.45917  0.29994  Biso   1.000  C
  C669     1.0000 0.24082  0.05562  0.01463  Biso   1.000  C
  C670     1.0000 0.99445  0.75894  0.90704  Biso   1.000  C
  C671     1.0000 0.42134  0.45367  0.22591  Biso   1.000  C
  C672     1.0000 0.73367  0.05967  0.48742  Biso   1.000  C
  C673     1.0000 0.22914  0.96059  0.83532  Biso   1.000  C
  C674     1.0000 0.83750  0.16366  0.01382  Biso   1.000  C
  C675     1.0000 0.02092  0.76654  0.20355  Biso   1.000  C
  C676     1.0000 0.73658  0.97502  0.69305  Biso   1.000  C
  C677     1.0000 0.33509  0.16848  0.52596  Biso   1.000  C
  C678     1.0000 0.51260  0.77552  0.31630  Biso   1.000  C
  C679     1.0000 0.33104  0.45237  0.82222  Biso   1.000  C
  C680     1.0000 0.70931  0.65697  0.02786  Biso   1.000  C
  C681     1.0000 0.52438  0.27282  0.21738  Biso   1.000  C
  C682     1.0000 0.83194  0.46413  0.71305  Biso   1.000  C
  C683     1.0000 0.21920  0.66779  0.53107  Biso   1.000  C
  C684     1.0000 0.01757  0.26672  0.33174  Biso   1.000  C
  C685     1.0000 0.81022  0.94731  0.20200  Biso   1.000  C
  C686     1.0000 0.20099  0.76440  0.02153  Biso   1.000  C
  C687     1.0000 0.04550  0.16111  0.82791  Biso   1.000  C
  C688     1.0000 0.30906  0.96786  0.34072  Biso   1.000  C
  C689     1.0000 0.71535  0.76618  0.50459  Biso   1.000  C
  C690     1.0000 0.53553  0.15457  0.71676  Biso   1.000  C
  C691     1.0000 0.71882  0.44687  0.21418  Biso   1.000  C
  C692     1.0000 0.33084  0.26866  0.01344  Biso   1.000  C
  C693     1.0000 0.52372  0.65653  0.82180  Biso   1.000  C
  C694     1.0000 0.21709  0.45215  0.32043  Biso   1.000  C
  C695     1.0000 0.83628  0.26352  0.50654  Biso   1.000  C
  C696     1.0000 0.01879  0.66223  0.70647  Biso   1.000  C
  C697     1.0000 0.69674  0.94417  0.30646  Biso   1.000  C
  C698     1.0000 0.31098  0.65562  0.02619  Biso   1.000  C
  C699     1.0000 0.03249  0.27163  0.72230  Biso   1.000  C
  C700     1.0000 0.20126  0.95476  0.22726  Biso   1.000  C
  C701     1.0000 0.82193  0.65737  0.50039  Biso   1.000  C
  C702     1.0000 0.53507  0.26464  0.82182  Biso   1.000  C
  C703     1.0000 0.82756  0.44242  0.31757  Biso   1.000  C
  C704     1.0000 0.23027  0.15094  0.01804  Biso   1.000  C
  C705     1.0000 0.52680  0.76446  0.71201  Biso   1.000  C
  C706     1.0000 0.32784  0.44912  0.21163  Biso   1.000  C
  C707     1.0000 0.72694  0.15470  0.49167  Biso   1.000  C
  C708     1.0000 0.01403  0.76983  0.81299  Biso   1.000  C
  C709     1.0000 0.34110  0.96532  0.73047  Biso   1.000  C
  C710     1.0000 0.72561  0.27047  0.02281  Biso   1.000  C
  C711     1.0000 0.02850  0.65769  0.31303  Biso   1.000  C
  C712     1.0000 0.84125  0.97218  0.80763  Biso   1.000  C
  C713     1.0000 0.22574  0.27525  0.52936  Biso   1.000  C
  C714     1.0000 0.51086  0.66485  0.21235  Biso   1.000  C
  C715     1.0000 0.22535  0.45914  0.71138  Biso   1.000  C
  C716     1.0000 0.81159  0.77125  0.01926  Biso   1.000  C
  C717     1.0000 0.52815  0.16474  0.32756  Biso   1.000  C
  C718     1.0000 0.72549  0.46395  0.82573  Biso   1.000  C
  C719     1.0000 0.32330  0.77828  0.53669  Biso   1.000  C
  C720     1.0000 0.01921  0.15520  0.22397  Biso   1.000  C
  C721     1.0000 0.52717  0.77983  0.28870  Biso   1.000  C
  C722     1.0000 0.33470  0.46422  0.79280  Biso   1.000  C
  C723     1.0000 0.80644  0.26560  0.51786  Biso   1.000  C
  C724     1.0000 0.00383  0.74031  0.20343  Biso   1.000  C
  C725     1.0000 0.80451  0.47980  0.71003  Biso   1.000  C
  C726     1.0000 0.30894  0.26485  0.99172  Biso   1.000  C
  C727     1.0000 0.00222  0.26966  0.30395  Biso   1.000  C
  C728     1.0000 0.25738  0.97386  0.84375  Biso   1.000  C
  C729     1.0000 0.74065  0.76696  0.52461  Biso   1.000  C
  C730     1.0000 0.50407  0.27370  0.24291  Biso   1.000  C
  C731     1.0000 0.76404  0.95941  0.68870  Biso   1.000  C
  C732     1.0000 0.23085  0.77175  0.01289  Biso   1.000  C
  C733     1.0000 0.52566  0.15053  0.74666  Biso   1.000  C
  C734     1.0000 0.71299  0.43003  0.24073  Biso   1.000  C
  C735     1.0000 0.21073  0.69333  0.54693  Biso   1.000  C
  C736     1.0000 0.02953  0.18765  0.83341  Biso   1.000  C
  C737     1.0000 0.24484  0.43587  0.32471  Biso   1.000  C
  C738     1.0000 0.73176  0.65698  0.04850  Biso   1.000  C
  C739     1.0000 0.04345  0.66519  0.72376  Biso   1.000  C
  C740     1.0000 0.78398  0.92918  0.19878  Biso   1.000  C
  C741     1.0000 0.31109  0.16741  0.50579  Biso   1.000  C
  C742     1.0000 0.54433  0.65471  0.79817  Biso   1.000  C
  C743     1.0000 0.28250  0.95043  0.34461  Biso   1.000  C
  C744     1.0000 0.83820  0.18630  0.03619  Biso   1.000  C
  C745     1.0000 0.04668  0.68384  0.31563  Biso   1.000  C
  C746     1.0000 0.31620  0.98590  0.72861  Biso   1.000  C
  C747     1.0000 0.75397  0.27473  0.03440  Biso   1.000  C
  C748     1.0000 0.52801  0.69045  0.20731  Biso   1.000  C
  C749     1.0000 0.81256  0.95812  0.80761  Biso   1.000  C
  C750     1.0000 0.25256  0.27687  0.54429  Biso   1.000  C
  C751     1.0000 0.54228  0.16015  0.29921  Biso   1.000  C
  C752     1.0000 0.25137  0.44045  0.70632  Biso   1.000  C
  C753     1.0000 0.78424  0.77000  0.00345  Biso   1.000  C
  C754     1.0000 0.03179  0.14985  0.25155  Biso   1.000  C
  C755     1.0000 0.72231  0.48300  0.79992  Biso   1.000  C
  C756     1.0000 0.29304  0.78083  0.52658  Biso   1.000  C
  C757     1.0000 0.02127  0.24354  0.71809  Biso   1.000  C
  C758     1.0000 0.69631  0.96639  0.28210  Biso   1.000  C
  C759     1.0000 0.28537  0.65348  0.04556  Biso   1.000  C
  C760     1.0000 0.55599  0.26507  0.79884  Biso   1.000  C
  C761     1.0000 0.22677  0.97594  0.22616  Biso   1.000  C
  C762     1.0000 0.82306  0.68061  0.47837  Biso   1.000  C
  C763     1.0000 0.51083  0.76899  0.74005  Biso   1.000  C
  C764     1.0000 0.79853  0.45542  0.32111  Biso   1.000  C
  C765     1.0000 0.25926  0.14842  0.03381  Biso   1.000  C
  C766     1.0000 0.00649  0.77639  0.78256  Biso   1.000  C
  C767     1.0000 0.33027  0.46797  0.23720  Biso   1.000  C
  C768     1.0000 0.72583  0.18319  0.47666  Biso   1.000  C
  C769     1.0000 0.50331  0.68018  0.82137  Biso   1.000  C
  C770     1.0000 0.83693  0.44848  0.74116  Biso   1.000  C
  C771     1.0000 0.71499  0.74180  0.48356  Biso   1.000  C
  C772     1.0000 0.99527  0.68376  0.70875  Biso   1.000  C
  C773     1.0000 0.30230  0.43841  0.82761  Biso   1.000  C
  C774     1.0000 0.19484  0.73310  0.03079  Biso   1.000  C
  C775     1.0000 0.06172  0.15807  0.80066  Biso   1.000  C
  C776     1.0000 0.73356  0.99066  0.72079  Biso   1.000  C
  C777     1.0000 0.84247  0.23900  0.49015  Biso   1.000  C
  C778     1.0000 0.54812  0.18177  0.70767  Biso   1.000  C
  C779     1.0000 0.22744  0.94800  0.80629  Biso   1.000  C
  C780     1.0000 0.33191  0.24709  0.03738  Biso   1.000  C
  C781     1.0000 0.54531  0.24834  0.21643  Biso   1.000  C
  C782     1.0000 0.21325  0.46797  0.29227  Biso   1.000  C
  C783     1.0000 0.33577  0.18878  0.54809  Biso   1.000  C
  C784     1.0000 0.03420  0.23930  0.33500  Biso   1.000  C
  C785     1.0000 0.74972  0.45506  0.20955  Biso   1.000  C
  C786     1.0000 0.81468  0.16332  0.99211  Biso   1.000  C
  C787     1.0000 0.04438  0.76817  0.22406  Biso   1.000  C
  C788     1.0000 0.30829  0.98698  0.31533  Biso   1.000  C
  C789     1.0000 0.24940  0.66410  0.52072  Biso   1.000  C
  C790     1.0000 0.49527  0.74840  0.32031  Biso   1.000  C
  C791     1.0000 0.81332  0.96361  0.22903  Biso   1.000  C
  C792     1.0000 0.70880  0.67929  0.00548  Biso   1.000  C
  C793     1.0000 0.51596  0.19270  0.33338  Biso   1.000  C
  C794     1.0000 0.30056  0.43239  0.21138  Biso   1.000  C
  C795     1.0000 0.21972  0.24855  0.51267  Biso   1.000  C
  C796     1.0000 0.00584  0.18333  0.21784  Biso   1.000  C
  C797     1.0000 0.83198  0.42472  0.29324  Biso   1.000  C
  C798     1.0000 0.72192  0.24390  0.00612  Biso   1.000  C
  C799     1.0000 0.01123  0.65313  0.28698  Biso   1.000  C
  C800     1.0000 0.19924  0.93612  0.25396  Biso   1.000  C
  C801     1.0000 0.33125  0.74990  0.54961  Biso   1.000  C
  C802     1.0000 0.49051  0.66487  0.23726  Biso   1.000  C
  C803     1.0000 0.72140  0.92395  0.30700  Biso   1.000  C
  C804     1.0000 0.81756  0.74662  0.03829  Biso   1.000  C
  C805     1.0000 0.53769  0.73473  0.70569  Biso   1.000  C
  C806     1.0000 0.74867  0.44373  0.82633  Biso   1.000  C
  C807     1.0000 0.79967  0.65663  0.52261  Biso   1.000  C
  C808     1.0000 0.02277  0.74048  0.81904  Biso   1.000  C
  C809     1.0000 0.22207  0.47423  0.73893  Biso   1.000  C
  C810     1.0000 0.30999  0.67861  0.00405  Biso   1.000  C
  C811     1.0000 0.04777  0.27712  0.74919  Biso   1.000  C
  C812     1.0000 0.84746  0.98851  0.78097  Biso   1.000  C
  C813     1.0000 0.75317  0.14865  0.50590  Biso   1.000  C
  C814     1.0000 0.51282  0.24156  0.82101  Biso   1.000  C
  C815     1.0000 0.34297  0.94628  0.75531  Biso   1.000  C
  C816     1.0000 0.22376  0.17778  0.00385  Biso   1.000  C
  C817     1.0000 0.03001  0.21055  0.81344  Biso   1.000  C
  C818     1.0000 0.76189  0.93031  0.21957  Biso   1.000  C
  C819     1.0000 0.25131  0.74997  0.01432  Biso   1.000  C
  C820     1.0000 0.52600  0.17411  0.76557  Biso   1.000  C
  C821     1.0000 0.25960  0.94907  0.32420  Biso   1.000  C
  C822     1.0000 0.76107  0.74485  0.52452  Biso   1.000  C
  C823     1.0000 0.54388  0.67529  0.77641  Biso   1.000  C
  C824     1.0000 0.73486  0.42382  0.25894  Biso   1.000  C
  C825     1.0000 0.29113  0.24071  0.99379  Biso   1.000  C
  C826     1.0000 0.04490  0.68744  0.74422  Biso   1.000  C
  C827     1.0000 0.26682  0.43743  0.30464  Biso   1.000  C
  C828     1.0000 0.78725  0.24409  0.51086  Biso   1.000  C
  C829     1.0000 0.00775  0.71862  0.22334  Biso   1.000  C
  C830     1.0000 0.28006  0.97615  0.82363  Biso   1.000  C
  C831     1.0000 0.81686  0.20769  0.03463  Biso   1.000  C
  C832     1.0000 0.52445  0.75843  0.26859  Biso   1.000  C
  C833     1.0000 0.78528  0.96144  0.71020  Biso   1.000  C
  C834     1.0000 0.28846  0.18697  0.50575  Biso   1.000  C
  C835     1.0000 0.50560  0.25227  0.26487  Biso   1.000  C
  C836     1.0000 0.31444  0.45898  0.77095  Biso   1.000  C
  C837     1.0000 0.75343  0.67722  0.04736  Biso   1.000  C
  C838     1.0000 0.00182  0.24785  0.28415  Biso   1.000  C
  C839     1.0000 0.78437  0.47720  0.73222  Biso   1.000  C
  C840     1.0000 0.23259  0.71411  0.55062  Biso   1.000  C
  C841     1.0000 0.24965  0.95125  0.78656  Biso   1.000  C
  C842     1.0000 0.79597  0.18752  0.99087  Biso   1.000  C
  C843     1.0000 0.04593  0.74544  0.24402  Biso   1.000  C
  C844     1.0000 0.75648  0.99189  0.74085  Biso   1.000  C
  C845     1.0000 0.31195  0.20774  0.54756  Biso   1.000  C
  C846     1.0000 0.49670  0.72593  0.30038  Biso   1.000  C
  C847     1.0000 0.28168  0.43587  0.80534  Biso   1.000  C
  C848     1.0000 0.72994  0.70078  0.00546  Biso   1.000  C
  C849     1.0000 0.54821  0.22834  0.23972  Biso   1.000  C
  C850     1.0000 0.81557  0.44538  0.76089  Biso   1.000  C
  C851     1.0000 0.27027  0.68445  0.52619  Biso   1.000  C
  C852     1.0000 0.03419  0.21945  0.31294  Biso   1.000  C
  C853     1.0000 0.79211  0.96095  0.25031  Biso   1.000  C
  C854     1.0000 0.21714  0.71209  0.02972  Biso   1.000  C
  C855     1.0000 0.06077  0.18141  0.78062  Biso   1.000  C
  C856     1.0000 0.28652  0.98445  0.29461  Biso   1.000  C
  C857     1.0000 0.73872  0.72230  0.48290  Biso   1.000  C
  C858     1.0000 0.54788  0.20446  0.72729  Biso   1.000  C
  C859     1.0000 0.77125  0.44828  0.22947  Biso   1.000  C
  C860     1.0000 0.31267  0.22535  0.03832  Biso   1.000  C
  C861     1.0000 0.50279  0.70103  0.79987  Biso   1.000  C
  C862     1.0000 0.23689  0.46949  0.27373  Biso   1.000  C
  C863     1.0000 0.82386  0.21594  0.48439  Biso   1.000  C
  C864     1.0000 0.99714  0.70631  0.72728  Biso   1.000  C
  C865     1.0000 0.74312  0.48088  0.77761  Biso   1.000  C
  C866     1.0000 0.80328  0.70262  0.48133  Biso   1.000  C
  C867     1.0000 0.50966  0.74637  0.76185  Biso   1.000  C
  C868     1.0000 0.27001  0.43569  0.72945  Biso   1.000  C
  C869     1.0000 0.26495  0.67571  0.04525  Biso   1.000  C
  C870     1.0000 0.01089  0.75595  0.76102  Biso   1.000  C
  C871     1.0000 0.79460  0.95964  0.78483  Biso   1.000  C
  C872     1.0000 0.74796  0.20305  0.47920  Biso   1.000  C
  C873     1.0000 0.02389  0.22264  0.73987  Biso   1.000  C
  C874     1.0000 0.29585  0.98563  0.75229  Biso   1.000  C
  C875     1.0000 0.27667  0.17270  0.03355  Biso   1.000  C
  C876     1.0000 0.55648  0.24346  0.77906  Biso   1.000  C
  C877     1.0000 0.30858  0.46870  0.25803  Biso   1.000  C
  C878     1.0000 0.27259  0.25528  0.54291  Biso   1.000  C
  C879     1.0000 0.53945  0.18064  0.27775  Biso   1.000  C
  C880     1.0000 0.77844  0.45138  0.29906  Biso   1.000  C
  C881     1.0000 0.77599  0.25445  0.03048  Biso   1.000  C
  C882     1.0000 0.03137  0.17134  0.27272  Biso   1.000  C
  C883     1.0000 0.24557  0.97768  0.24933  Biso   1.000  C
  C884     1.0000 0.27254  0.75917  0.52991  Biso   1.000  C
  C885     1.0000 0.04583  0.70416  0.29282  Biso   1.000  C
  C886     1.0000 0.72011  0.96811  0.26117  Biso   1.000  C
  C887     1.0000 0.76448  0.74736  0.00782  Biso   1.000  C
  C888     1.0000 0.52554  0.71414  0.22523  Biso   1.000  C
  C889     1.0000 0.74218  0.92578  0.28546  Biso   1.000  C
  C890     1.0000 0.28913  0.69989  0.00342  Biso   1.000  C
  C891     1.0000 0.05271  0.25500  0.76958  Biso   1.000  C
  C892     1.0000 0.21990  0.94075  0.27545  Biso   1.000  C
  C893     1.0000 0.77861  0.67734  0.52041  Biso   1.000  C
  C894     1.0000 0.51185  0.22252  0.79785  Biso   1.000  C
  C895     1.0000 0.81143  0.42026  0.27259  Biso   1.000  C
  C896     1.0000 0.24309  0.20053  0.00539  Biso   1.000  C
  C897     1.0000 0.53345  0.71389  0.72820  Biso   1.000  C
  C898     1.0000 0.27907  0.43356  0.23242  Biso   1.000  C
  C899     1.0000 0.77709  0.16831  0.50459  Biso   1.000  C
  C900     1.0000 0.02492  0.71981  0.79646  Biso   1.000  C
  C901     1.0000 0.32172  0.94581  0.77690  Biso   1.000  C
  C902     1.0000 0.74470  0.22476  0.00273  Biso   1.000  C
  C903     1.0000 0.01307  0.67315  0.26425  Biso   1.000  C
  C904     1.0000 0.82994  0.98870  0.75651  Biso   1.000  C
  C905     1.0000 0.23982  0.22644  0.51373  Biso   1.000  C
  C906     1.0000 0.48871  0.68969  0.25370  Biso   1.000  C
  C907     1.0000 0.24396  0.46924  0.76011  Biso   1.000  C
  C908     1.0000 0.79855  0.72264  0.04108  Biso   1.000  C
  C909     1.0000 0.51959  0.21491  0.31340  Biso   1.000  C
  C910     1.0000 0.76794  0.44180  0.80418  Biso   1.000  C
  C911     1.0000 0.30951  0.72803  0.55197  Biso   1.000  C
  C912     1.0000 0.00519  0.20317  0.24031  Biso   1.000  C
  C913     1.0000 0.78951  0.45953  0.75648  Biso   1.000  C
  C914     1.0000 0.76075  0.72384  0.50312  Biso   1.000  C
  C915     1.0000 0.52314  0.69766  0.77735  Biso   1.000  C
  C916     1.0000 0.28887  0.44502  0.77742  Biso   1.000  C
  C917     1.0000 0.24507  0.72107  0.02294  Biso   1.000  C
  C918     1.0000 0.02153  0.70731  0.74568  Biso   1.000  C
  C919     1.0000 0.78259  0.97714  0.73618  Biso   1.000  C
  C920     1.0000 0.79723  0.21816  0.49628  Biso   1.000  C
  C921     1.0000 0.04489  0.20652  0.78655  Biso   1.000  C
  C922     1.0000 0.27519  0.96449  0.79469  Biso   1.000  C
  C923     1.0000 0.29135  0.22291  0.01794  Biso   1.000  C
  C924     1.0000 0.53764  0.20002  0.75627  Biso   1.000  C
  C925     1.0000 0.26231  0.45389  0.27930  Biso   1.000  C
  C926     1.0000 0.28937  0.20802  0.52705  Biso   1.000  C
  C927     1.0000 0.52631  0.22929  0.26227  Biso   1.000  C
  C928     1.0000 0.76454  0.43165  0.25296  Biso   1.000  C
  C929     1.0000 0.79464  0.20660  0.01307  Biso   1.000  C
  C930     1.0000 0.01842  0.22293  0.28704  Biso   1.000  C
  C931     1.0000 0.26360  0.96422  0.29769  Biso   1.000  C
  C932     1.0000 0.26114  0.70959  0.53981  Biso   1.000  C
  C933     1.0000 0.02922  0.72043  0.24475  Biso   1.000  C
  C934     1.0000 0.76738  0.94560  0.24461  Biso   1.000  C
  C935     1.0000 0.75185  0.69939  0.02711  Biso   1.000  C
  C936     1.0000 0.51092  0.73182  0.27399  Biso   1.000  C
  C937     1.0000 0.77227  0.22977  0.01440  Biso   1.000  C
  C938     1.0000 0.02991  0.69830  0.26736  Biso   1.000  C
  C939     1.0000 0.29881  0.96478  0.77503  Biso   1.000  C
  C940     1.0000 0.26700  0.23093  0.52806  Biso   1.000  C
  C941     1.0000 0.50615  0.71381  0.24901  Biso   1.000  C
  C942     1.0000 0.80330  0.97463  0.76003  Biso   1.000  C
  C943     1.0000 0.77345  0.72393  0.02527  Biso   1.000  C
  C944     1.0000 0.52719  0.20806  0.28530  Biso   1.000  C
  C945     1.0000 0.26581  0.44803  0.75650  Biso   1.000  C
  C946     1.0000 0.28145  0.73346  0.54265  Biso   1.000  C
  C947     1.0000 0.01711  0.19778  0.26682  Biso   1.000  C
  C948     1.0000 0.76599  0.46102  0.78084  Biso   1.000  C
  C949     1.0000 0.26774  0.69831  0.02450  Biso   1.000  C
  C950     1.0000 0.03966  0.22861  0.76519  Biso   1.000  C
  C951     1.0000 0.74288  0.94705  0.26452  Biso   1.000  C
  C952     1.0000 0.78159  0.70157  0.50227  Biso   1.000  C
  C953     1.0000 0.53490  0.22243  0.77911  Biso   1.000  C
  C954     1.0000 0.24126  0.96180  0.27419  Biso   1.000  C
  C955     1.0000 0.26960  0.19933  0.02011  Biso   1.000  C
  C956     1.0000 0.52184  0.72036  0.75586  Biso   1.000  C
  C957     1.0000 0.78420  0.43166  0.27705  Biso   1.000  C
  C958     1.0000 0.77362  0.19590  0.49328  Biso   1.000  C
  C959     1.0000 0.02210  0.72870  0.76846  Biso   1.000  C
  C960     1.0000 0.28390  0.45138  0.25573  Biso   1.000  C
  Cu1      1.0000 0.02934  0.46540  0.67385  Biso   1.000  Cu
  Cu2      1.0000 0.67260  0.96150  0.50502  Biso   1.000  Cu
  Cu3      1.0000 0.51161  0.61975  0.01673  Biso   1.000  Cu
  Cu4      1.0000 0.52557  0.45948  0.86144  Biso   1.000  Cu
  Cu5      1.0000 0.17508  0.95981  0.02517  Biso   1.000  Cu
  Cu6      1.0000 0.02211  0.62028  0.51031  Biso   1.000  Cu
  Cu7      1.0000 0.53679  0.95972  0.67373  Biso   1.000  Cu
  Cu8      1.0000 0.87225  0.45872  0.51625  Biso   1.000  Cu
  Cu9      1.0000 0.03313  0.11460  0.02287  Biso   1.000  Cu
  Cu10     1.0000 0.03165  0.96227  0.86359  Biso   1.000  Cu
  Cu11     1.0000 0.36617  0.46493  0.01865  Biso   1.000  Cu
  Cu12     1.0000 0.53116  0.11879  0.52390  Biso   1.000  Cu
  Cu13     1.0000 0.02321  0.46440  0.36327  Biso   1.000  Cu
  Cu14     1.0000 0.36752  0.97312  0.53469  Biso   1.000  Cu
  Cu15     1.0000 0.52733  0.31087  0.01698  Biso   1.000  Cu
  Cu16     1.0000 0.52438  0.46944  0.17538  Biso   1.000  Cu
  Cu17     1.0000 0.86519  0.96417  0.00746  Biso   1.000  Cu
  Cu18     1.0000 0.02878  0.31519  0.52329  Biso   1.000  Cu
  Cu19     1.0000 0.50797  0.97230  0.36349  Biso   1.000  Cu
  Cu20     1.0000 0.18360  0.46960  0.51669  Biso   1.000  Cu
  Cu21     1.0000 0.00729  0.81588  0.01045  Biso   1.000  Cu
  Cu22     1.0000 0.01069  0.96306  0.16765  Biso   1.000  Cu
  Cu23     1.0000 0.67225  0.46199  0.01969  Biso   1.000  Cu
  Cu24     1.0000 0.52089  0.81132  0.51274  Biso   1.000  Cu
  Cu25     1.0000 0.22947  0.95258  0.03034  Biso   1.000  Cu
  Cu26     1.0000 0.03529  0.17016  0.02468  Biso   1.000  Cu
  Cu27     1.0000 0.00592  0.95936  0.22392  Biso   1.000  Cu
  Cu28     1.0000 0.72755  0.96169  0.49963  Biso   1.000  Cu
  Cu29     1.0000 0.53373  0.17254  0.52708  Biso   1.000  Cu
  Cu30     1.0000 0.50111  0.97312  0.31164  Biso   1.000  Cu
  Cu31     1.0000 0.31069  0.46303  0.01553  Biso   1.000  Cu
  Cu32     1.0000 0.51193  0.67382  0.01510  Biso   1.000  Cu
  Cu33     1.0000 0.52132  0.46756  0.22955  Biso   1.000  Cu
  Cu34     1.0000 0.81810  0.45857  0.51712  Biso   1.000  Cu
  Cu35     1.0000 0.02019  0.67435  0.51251  Biso   1.000  Cu
  Cu36     1.0000 0.02574  0.46257  0.30987  Biso   1.000  Cu
  Cu37     1.0000 0.81128  0.97127  0.00408  Biso   1.000  Cu
  Cu38     1.0000 0.00670  0.76055  0.01033  Biso   1.000  Cu
  Cu39     1.0000 0.03578  0.96664  0.81106  Biso   1.000  Cu
  Cu40     1.0000 0.31181  0.97436  0.53962  Biso   1.000  Cu
  Cu41     1.0000 0.51774  0.75822  0.51305  Biso   1.000  Cu
  Cu42     1.0000 0.54043  0.96042  0.72785  Biso   1.000  Cu
  Cu43     1.0000 0.72736  0.46644  0.01959  Biso   1.000  Cu
  Cu44     1.0000 0.52676  0.25745  0.01987  Biso   1.000  Cu
  Cu45     1.0000 0.52729  0.45969  0.80732  Biso   1.000  Cu
  Cu46     1.0000 0.23706  0.47171  0.51605  Biso   1.000  Cu
  Cu47     1.0000 0.02939  0.25927  0.52643  Biso   1.000  Cu
  Cu48     1.0000 0.02889  0.46675  0.72823  Biso   1.000  Cu
  H1       1.0000 0.25127  0.76236  0.52024  Biso   1.000  H
  H2       1.0000 0.57676  0.24251  0.76393  Biso   1.000  H
  H3       1.0000 0.75834  0.46490  0.29957  Biso   1.000  H
  H4       1.0000 0.74414  0.74977  0.99511  Biso   1.000  H
  H5       1.0000 0.01283  0.20256  0.73866  Biso   1.000  H
  H6       1.0000 0.31035  0.48159  0.27601  Biso   1.000  H
  H7       1.0000 0.29147  0.25608  0.55866  Biso   1.000  H
  H8       1.0000 0.00689  0.76195  0.73862  Biso   1.000  H
  H9       1.0000 0.72067  0.98404  0.24465  Biso   1.000  H
  H10      1.0000 0.79680  0.25794  0.04129  Biso   1.000  H
  H11      1.0000 0.50124  0.75019  0.78413  Biso   1.000  H
  H12      1.0000 0.26380  0.99103  0.24567  Biso   1.000  H
  H13      1.0000 0.74363  0.22440  0.46960  Biso   1.000  H
  H14      1.0000 0.53678  0.73345  0.21904  Biso   1.000  H
  H15      1.0000 0.28668  0.41882  0.72755  Biso   1.000  H
  H16      1.0000 0.29740  0.17160  0.04449  Biso   1.000  H
  H17      1.0000 0.05565  0.72581  0.29704  Biso   1.000  H
  H18      1.0000 0.74310  0.49598  0.75801  Biso   1.000  H
  H19      1.0000 0.80549  0.72123  0.46687  Biso   1.000  H
  H20      1.0000 0.03893  0.16704  0.29443  Biso   1.000  H
  H21      1.0000 0.27693  0.99959  0.75054  Biso   1.000  H
  H22      1.0000 0.24861  0.67586  0.06160  Biso   1.000  H
  H23      1.0000 0.54761  0.17665  0.25604  Biso   1.000  H
  H24      1.0000 0.77372  0.94939  0.78534  Biso   1.000  H
  H25      1.0000 0.30045  0.98466  0.83095  Biso   1.000  H
  H26      1.0000 0.81644  0.22320  0.05287  Biso   1.000  H
  H27      1.0000 0.99285  0.70059  0.22097  Biso   1.000  H
  H28      1.0000 0.80768  0.95101  0.70881  Biso   1.000  H
  H29      1.0000 0.27193  0.18649  0.48865  Biso   1.000  H
  H30      1.0000 0.53256  0.76577  0.24739  Biso   1.000  H
  H31      1.0000 0.31612  0.46571  0.74830  Biso   1.000  H
  H32      1.0000 0.76896  0.67814  0.06463  Biso   1.000  H
  H33      1.0000 0.48810  0.25529  0.28060  Biso   1.000  H
  H34      1.0000 0.76331  0.48625  0.72953  Biso   1.000  H
  H35      1.0000 0.22771  0.73418  0.56423  Biso   1.000  H
  H36      1.0000 0.98711  0.25092  0.26611  Biso   1.000  H
  H37      1.0000 0.74240  0.91859  0.21587  Biso   1.000  H
  H38      1.0000 0.27289  0.75458  0.00548  Biso   1.000  H
  H39      1.0000 0.01456  0.22775  0.81763  Biso   1.000  H
  H40      1.0000 0.23929  0.93850  0.32869  Biso   1.000  H
  H41      1.0000 0.77908  0.74687  0.53956  Biso   1.000  H
  H42      1.0000 0.52142  0.16916  0.78791  Biso   1.000  H
  H43      1.0000 0.72988  0.40986  0.27707  Biso   1.000  H
  H44      1.0000 0.27299  0.23862  0.97951  Biso   1.000  H
  H45      1.0000 0.56035  0.67455  0.75815  Biso   1.000  H
  H46      1.0000 0.28730  0.42681  0.30765  Biso   1.000  H
  H47      1.0000 0.76433  0.24722  0.51817  Biso   1.000  H
  H48      1.0000 0.06468  0.69077  0.75637  Biso   1.000  H
  H49      1.0000 0.23517  0.47956  0.25324  Biso   1.000  H
  H50      1.0000 0.31021  0.22247  0.56631  Biso   1.000  H
  H51      1.0000 0.56283  0.20982  0.23562  Biso   1.000  H
  H52      1.0000 0.79288  0.45622  0.22553  Biso   1.000  H
  H53      1.0000 0.78007  0.18877  0.97140  Biso   1.000  H
  H54      1.0000 0.04930  0.20163  0.31686  Biso   1.000  H
  H55      1.0000 0.28801  0.99898  0.27543  Biso   1.000  H
  H56      1.0000 0.29365  0.68250  0.51966  Biso   1.000  H
  H57      1.0000 0.06347  0.74834  0.26122  Biso   1.000  H
  H58      1.0000 0.79534  0.96966  0.27277  Biso   1.000  H
  H59      1.0000 0.72757  0.71697  0.98733  Biso   1.000  H
  H60      1.0000 0.48696  0.70517  0.30506  Biso   1.000  H
  H61      1.0000 0.82029  0.43228  0.78105  Biso   1.000  H
  H62      1.0000 0.73784  0.70529  0.46774  Biso   1.000  H
  H63      1.0000 0.48627  0.71691  0.80262  Biso   1.000  H
  H64      1.0000 0.25971  0.42538  0.80936  Biso   1.000  H
  H65      1.0000 0.21241  0.68913  0.03248  Biso   1.000  H
  H66      1.0000 0.98023  0.72321  0.72736  Biso   1.000  H
  H67      1.0000 0.75267  0.00255  0.76169  Biso   1.000  H
  H68      1.0000 0.82896  0.19859  0.47063  Biso   1.000  H
  H69      1.0000 0.07317  0.17957  0.76119  Biso   1.000  H
  H70      1.0000 0.24606  0.94139  0.76445  Biso   1.000  H
  H71      1.0000 0.31380  0.21042  0.05658  Biso   1.000  H
  H72      1.0000 0.55556  0.22524  0.71947  Biso   1.000  H
  H73      1.0000 0.78211  0.42317  0.80239  Biso   1.000  H
  H74      1.0000 0.75818  0.67619  0.53190  Biso   1.000  H
  H75      1.0000 0.54115  0.69270  0.72188  Biso   1.000  H
  H76      1.0000 0.24035  0.47792  0.78178  Biso   1.000  H
  H77      1.0000 0.29164  0.71658  0.98728  Biso   1.000  H
  H78      1.0000 0.03156  0.69838  0.80259  Biso   1.000  H
  H79      1.0000 0.83436  0.00101  0.73721  Biso   1.000  H
  H80      1.0000 0.79679  0.16222  0.51562  Biso   1.000  H
  H81      1.0000 0.06388  0.25636  0.78995  Biso   1.000  H
  H82      1.0000 0.32452  0.92847  0.79402  Biso   1.000  H
  H83      1.0000 0.23805  0.22057  0.99464  Biso   1.000  H
  H84      1.0000 0.49524  0.20664  0.79685  Biso   1.000  H
  H85      1.0000 0.25989  0.41845  0.23103  Biso   1.000  H
  H86      1.0000 0.23616  0.20756  0.50214  Biso   1.000  H
  H87      1.0000 0.51770  0.23772  0.32123  Biso   1.000  H
  H88      1.0000 0.81372  0.40648  0.25353  Biso   1.000  H
  H89      1.0000 0.74128  0.20393  0.99066  Biso   1.000  H
  H90      1.0000 0.99574  0.22337  0.23693  Biso   1.000  H
  H91      1.0000 0.22181  0.92300  0.29051  Biso   1.000  H
  H92      1.0000 0.31388  0.70793  0.56292  Biso   1.000  H
  H93      1.0000 0.00217  0.66715  0.24496  Biso   1.000  H
  H94      1.0000 0.76055  0.91067  0.28677  Biso   1.000  H
  H95      1.0000 0.80345  0.70573  0.05782  Biso   1.000  H
  H96      1.0000 0.47089  0.69253  0.27007  Biso   1.000  H
  H97      1.0000 0.89582  0.96801  0.91671  Biso   1.000  H
  H98      1.0000 0.91494  0.83295  0.00531  Biso   1.000  H
  H99      1.0000 0.01931  0.87179  0.87897  Biso   1.000  H
  H100     1.0000 0.39632  0.98083  0.62091  Biso   1.000  H
  H101     1.0000 0.42635  0.84055  0.52955  Biso   1.000  H
  H102     1.0000 0.53940  0.86876  0.65288  Biso   1.000  H
  H103     1.0000 0.65577  0.45264  0.92564  Biso   1.000  H
  H104     1.0000 0.62074  0.32795  0.03124  Biso   1.000  H
  H105     1.0000 0.53140  0.37054  0.88217  Biso   1.000  H
  H106     1.0000 0.16586  0.47351  0.60409  Biso   1.000  H
  H107     1.0000 0.12036  0.33651  0.51656  Biso   1.000  H
  H108     1.0000 0.01232  0.37778  0.65807  Biso   1.000  H
  H109     1.0000 0.14825  0.97531  0.12004  Biso   1.000  H
  H110     1.0000 0.12423  0.09289  0.01354  Biso   1.000  H
  H111     1.0000 0.00712  0.05678  0.15226  Biso   1.000  H
  H112     1.0000 0.64701  0.97122  0.41705  Biso   1.000  H
  H113     1.0000 0.62197  0.09531  0.50333  Biso   1.000  H
  H114     1.0000 0.52648  0.05844  0.38847  Biso   1.000  H
  H115     1.0000 0.38802  0.45616  0.10793  Biso   1.000  H
  H116     1.0000 0.42121  0.59804  0.01955  Biso   1.000  H
  H117     1.0000 0.52374  0.55892  0.15521  Biso   1.000  H
  H118     1.0000 0.89116  0.46615  0.42026  Biso   1.000  H
  H119     1.0000 0.93179  0.60231  0.49415  Biso   1.000  H
  H120     1.0000 0.02506  0.55791  0.37930  Biso   1.000  H
  H121     1.0000 0.12225  0.96922  0.89430  Biso   1.000  H
  H122     1.0000 0.89948  0.05722  0.00365  Biso   1.000  H
  H123     1.0000 0.01185  0.83613  0.10467  Biso   1.000  H
  H124     1.0000 0.62374  0.96311  0.64650  Biso   1.000  H
  H125     1.0000 0.39092  0.06153  0.53002  Biso   1.000  H
  H126     1.0000 0.50655  0.83341  0.42507  Biso   1.000  H
  H127     1.0000 0.43934  0.45718  0.87966  Biso   1.000  H
  H128     1.0000 0.64590  0.55623  0.02424  Biso   1.000  H
  H129     1.0000 0.53444  0.33455  0.11157  Biso   1.000  H
  H130     1.0000 0.93916  0.46646  0.65509  Biso   1.000  H
  H131     1.0000 0.16008  0.56452  0.50937  Biso   1.000  H
  H132     1.0000 0.02121  0.33094  0.43499  Biso   1.000  H
  H133     1.0000 0.91944  0.95637  0.14249  Biso   1.000  H
  H134     1.0000 0.14127  0.87097  0.03412  Biso   1.000  H
  H135     1.0000 0.03727  0.09464  0.93162  Biso   1.000  H
  H136     1.0000 0.41472  0.96980  0.39970  Biso   1.000  H
  H137     1.0000 0.65192  0.87027  0.50493  Biso   1.000  H
  H138     1.0000 0.52798  0.09484  0.61236  Biso   1.000  H
  H139     1.0000 0.61818  0.48507  0.15793  Biso   1.000  H
  H140     1.0000 0.38957  0.37670  0.00869  Biso   1.000  H
  H141     1.0000 0.51902  0.59644  0.92817  Biso   1.000  H
  H142     1.0000 0.11578  0.46258  0.38837  Biso   1.000  H
  H143     1.0000 0.89360  0.36680  0.53002  Biso   1.000  H
  H144     1.0000 0.01556  0.60014  0.60034  Biso   1.000  H
  H145     1.0000 0.61751  0.45670  0.88184  Biso   1.000  H
  H146     1.0000 0.88863  0.55379  0.50538  Biso   1.000  H
  H147     1.0000 0.53547  0.82946  0.60793  Biso   1.000  H
  H148     1.0000 0.12111  0.46374  0.64949  Biso   1.000  H
  H149     1.0000 0.38196  0.55657  0.02863  Biso   1.000  H
  H150     1.0000 0.01293  0.83142  0.91715  Biso   1.000  H
  H151     1.0000 0.94037  0.95688  0.87621  Biso   1.000  H
  H152     1.0000 0.65882  0.05100  0.49716  Biso   1.000  H
  H153     1.0000 0.02570  0.33283  0.61536  Biso   1.000  H
  H154     1.0000 0.44188  0.97877  0.66256  Biso   1.000  H
  H155     1.0000 0.16567  0.04828  0.02088  Biso   1.000  H
  H156     1.0000 0.53291  0.32994  0.92676  Biso   1.000  H
  H157     1.0000 0.43348  0.45782  0.15144  Biso   1.000  H
  H158     1.0000 0.16196  0.37990  0.52127  Biso   1.000  H
  H159     1.0000 0.53687  0.10037  0.43399  Biso   1.000  H
  H160     1.0000 0.93436  0.46942  0.37291  Biso   1.000  H
  H161     1.0000 0.66256  0.37233  0.03391  Biso   1.000  H
  H162     1.0000 0.02750  0.09823  0.11452  Biso   1.000  H
  H163     1.0000 0.09996  0.96443  0.16043  Biso   1.000  H
  H164     1.0000 0.38743  0.88124  0.53718  Biso   1.000  H
  H165     1.0000 0.03085  0.59974  0.42038  Biso   1.000  H
  H166     1.0000 0.60221  0.97156  0.37588  Biso   1.000  H
  H167     1.0000 0.87453  0.87592  0.00616  Biso   1.000  H
  H168     1.0000 0.50907  0.59812  0.10990  Biso   1.000  H
  H169     1.0000 0.03214  0.05507  0.88917  Biso   1.000  H
  H170     1.0000 0.88097  0.96037  0.10242  Biso   1.000  H
  H171     1.0000 0.10232  0.83283  0.02374  Biso   1.000  H
  H172     1.0000 0.53180  0.05448  0.65265  Biso   1.000  H
  H173     1.0000 0.37868  0.96849  0.44128  Biso   1.000  H
  H174     1.0000 0.61105  0.82804  0.50341  Biso   1.000  H
  H175     1.0000 0.51752  0.55140  0.88760  Biso   1.000  H
  H176     1.0000 0.65631  0.48231  0.11329  Biso   1.000  H
  H177     1.0000 0.43794  0.33232  0.01089  Biso   1.000  H
  H178     1.0000 0.02042  0.55387  0.64695  Biso   1.000  H
  H179     1.0000 0.16112  0.46008  0.43053  Biso   1.000  H
  H180     1.0000 0.93633  0.33162  0.53068  Biso   1.000  H
  H181     1.0000 0.01817  0.87357  0.14405  Biso   1.000  H
  H182     1.0000 0.16188  0.95538  0.93889  Biso   1.000  H
  H183     1.0000 0.94087  0.09569  0.01847  Biso   1.000  H
  H184     1.0000 0.50213  0.87449  0.38483  Biso   1.000  H
  H185     1.0000 0.66185  0.97059  0.59705  Biso   1.000  H
  H186     1.0000 0.43525  0.09981  0.53844  Biso   1.000  H
  H187     1.0000 0.53050  0.37538  0.15233  Biso   1.000  H
  H188     1.0000 0.39203  0.47096  0.92695  Biso   1.000  H
  H189     1.0000 0.60416  0.59676  0.02464  Biso   1.000  H
  H190     1.0000 0.01419  0.37616  0.38511  Biso   1.000  H
  H191     1.0000 0.89641  0.45870  0.60983  Biso   1.000  H
  H192     1.0000 0.11750  0.60140  0.51261  Biso   1.000  H
  H193     1.0000 0.29142  0.82690  0.55262  Biso   1.000  H
  H194     1.0000 0.52366  0.23211  0.87290  Biso   1.000  H
  H195     1.0000 0.88120  0.44948  0.28003  Biso   1.000  H
  H196     1.0000 0.77457  0.82766  0.01041  Biso   1.000  H
  H197     1.0000 0.04585  0.24279  0.67285  Biso   1.000  H
  H198     1.0000 0.37907  0.44271  0.24548  Biso   1.000  H
  H199     1.0000 0.25944  0.32497  0.52978  Biso   1.000  H
  H200     1.0000 0.99751  0.73549  0.86748  Biso   1.000  H
  H201     1.0000 0.64418  0.94332  0.27528  Biso   1.000  H
  H202     1.0000 0.75631  0.32561  0.01279  Biso   1.000  H
  H203     1.0000 0.51622  0.73368  0.65969  Biso   1.000  H
  H204     1.0000 0.14768  0.95005  0.25791  Biso   1.000  H
  H205     1.0000 0.75656  0.09932  0.48988  Biso   1.000  H
  H206     1.0000 0.50545  0.69432  0.16319  Biso   1.000  H
  H207     1.0000 0.17277  0.46245  0.74605  Biso   1.000  H
  H208     1.0000 0.26429  0.09701  0.01266  Biso   1.000  H
  H209     1.0000 0.02723  0.69574  0.36433  Biso   1.000  H
  H210     1.0000 0.67568  0.45826  0.78810  Biso   1.000  H
  H211     1.0000 0.79110  0.60100  0.51986  Biso   1.000  H
  H212     1.0000 0.03629  0.19051  0.17297  Biso   1.000  H
  H213     1.0000 0.39584  0.95295  0.76154  Biso   1.000  H
  H214     1.0000 0.28023  0.59730  0.03716  Biso   1.000  H
  H215     1.0000 0.53939  0.19811  0.37873  Biso   1.000  H
  H216     1.0000 0.89481  0.96515  0.77566  Biso   1.000  H
  H217     1.0000 0.25490  0.46266  0.37028  Biso   1.000  H
  H218     1.0000 0.38695  0.19894  0.53923  Biso   1.000  H
  H219     1.0000 0.52711  0.32343  0.24868  Biso   1.000  H
  H220     1.0000 0.74468  0.44076  0.16292  Biso   1.000  H
  H221     1.0000 0.88956  0.19276  0.03063  Biso   1.000  H
  H222     1.0000 0.02164  0.31700  0.29172  Biso   1.000  H
  H223     1.0000 0.27868  0.96385  0.39520  Biso   1.000  H
  H224     1.0000 0.16673  0.70117  0.51590  Biso   1.000  H
  H225     1.0000 0.02084  0.81500  0.24031  Biso   1.000  H
  H226     1.0000 0.77981  0.95165  0.14474  Biso   1.000  H
  H227     1.0000 0.65904  0.69377  0.02630  Biso   1.000  H
  H228     1.0000 0.50422  0.83168  0.28337  Biso   1.000  H
  H229     1.0000 0.79917  0.45669  0.66005  Biso   1.000  H
  H230     1.0000 0.66497  0.73307  0.50227  Biso   1.000  H
  H231     1.0000 0.52619  0.60374  0.78704  Biso   1.000  H
  H232     1.0000 0.29618  0.45516  0.87254  Biso   1.000  H
  H233     1.0000 0.14683  0.73415  0.00710  Biso   1.000  H
  H234     1.0000 0.03410  0.61152  0.74224  Biso   1.000  H
  H235     1.0000 0.76594  0.97753  0.63625  Biso   1.000  H
  H236     1.0000 0.89089  0.23202  0.51532  Biso   1.000  H
  H237     1.0000 0.04115  0.10696  0.79213  Biso   1.000  H
  H238     1.0000 0.25784  0.93589  0.88845  Biso   1.000  H
  H239     1.0000 0.38242  0.23720  0.02008  Biso   1.000  H
  H240     1.0000 0.54722  0.10288  0.74949  Biso   1.000  H
  H241     1.0000 0.75582  0.46402  0.87578  Biso   1.000  H
  H242     1.0000 0.87377  0.69400  0.49597  Biso   1.000  H
  H243     1.0000 0.53573  0.81656  0.74846  Biso   1.000  H
  H244     1.0000 0.25966  0.47227  0.66108  Biso   1.000  H
  H245     1.0000 0.36055  0.69211  0.01971  Biso   1.000  H
  H246     1.0000 0.02501  0.82556  0.78045  Biso   1.000  H
  H247     1.0000 0.80314  0.97083  0.85721  Biso   1.000  H
  H248     1.0000 0.67357  0.19197  0.50326  Biso   1.000  H
  H249     1.0000 0.02208  0.32611  0.75574  Biso   1.000  H
  H250     1.0000 0.30787  0.96255  0.68376  Biso   1.000  H
  H251     1.0000 0.18063  0.18519  0.02795  Biso   1.000  H
  H252     1.0000 0.54276  0.31506  0.78759  Biso   1.000  H
  H253     1.0000 0.29314  0.45348  0.16240  Biso   1.000  H
  H254     1.0000 0.17148  0.24006  0.53556  Biso   1.000  H
  H255     1.0000 0.51582  0.11715  0.29455  Biso   1.000  H
  H256     1.0000 0.79489  0.43800  0.37387  Biso   1.000  H
  H257     1.0000 0.67414  0.23482  0.02794  Biso   1.000  H
  H258     1.0000 0.00183  0.10089  0.25099  Biso   1.000  H
  H259     1.0000 0.23936  0.95317  0.17933  Biso   1.000  H
  H260     1.0000 0.36810  0.74736  0.51621  Biso   1.000  H
  H261     1.0000 0.03528  0.60297  0.27950  Biso   1.000  H
  H262     1.0000 0.73508  0.94476  0.35567  Biso   1.000  H
  H263     1.0000 0.86121  0.73822  0.01681  Biso   1.000  H
  H264     1.0000 0.51056  0.61488  0.24936  Biso   1.000  H
  H265     1.0000 0.04608  0.19199  0.88230  Biso   1.000  H
  H266     1.0000 0.86045  0.93995  0.23752  Biso   1.000  H
  H267     1.0000 0.23272  0.80977  0.04499  Biso   1.000  H
  H268     1.0000 0.51764  0.18932  0.66567  Biso   1.000  H
  H269     1.0000 0.35923  0.97352  0.30307  Biso   1.000  H
  H270     1.0000 0.74764  0.81557  0.51060  Biso   1.000  H
  H271     1.0000 0.51839  0.69124  0.87184  Biso   1.000  H
  H272     1.0000 0.66692  0.45472  0.25080  Biso   1.000  H
  H273     1.0000 0.29341  0.31947  0.00224  Biso   1.000  H
  H274     1.0000 0.00339  0.69313  0.65357  Biso   1.000  H
  H275     1.0000 0.16470  0.44183  0.28942  Biso   1.000  H
  H276     1.0000 0.80186  0.31706  0.49619  Biso   1.000  H
  H277     1.0000 0.01110  0.73556  0.15155  Biso   1.000  H
  H278     1.0000 0.17886  0.97218  0.79958  Biso   1.000  H
  H279     1.0000 0.80258  0.11383  0.99918  Biso   1.000  H
  H280     1.0000 0.52235  0.74083  0.36833  Biso   1.000  H
  H281     1.0000 0.69205  0.95773  0.73097  Biso   1.000  H
  H282     1.0000 0.30086  0.12227  0.52328  Biso   1.000  H
  H283     1.0000 0.51636  0.23997  0.16626  Biso   1.000  H
  H284     1.0000 0.38046  0.44517  0.78638  Biso   1.000  H
  H285     1.0000 0.74209  0.61030  0.02354  Biso   1.000  H
  H286     1.0000 0.00963  0.23836  0.38207  Biso   1.000  H
  H287     1.0000 0.87912  0.47348  0.74633  Biso   1.000  H
  H288     1.0000 0.25211  0.61436  0.54244  Biso   1.000  H
  H289     1.0000 0.12568  0.18735  0.02384  Biso   1.000  H
  H290     1.0000 0.00047  0.04757  0.24686  Biso   1.000  H
  H291     1.0000 0.24311  0.95650  0.12010  Biso   1.000  H
  H292     1.0000 0.61970  0.18938  0.51562  Biso   1.000  H
  H293     1.0000 0.50757  0.06099  0.29439  Biso   1.000  H
  H294     1.0000 0.74005  0.95244  0.40569  Biso   1.000  H
  H295     1.0000 0.41523  0.69476  0.01248  Biso   1.000  H
  H296     1.0000 0.51058  0.55705  0.24879  Biso   1.000  H
  H297     1.0000 0.28963  0.45822  0.11184  Biso   1.000  H
  H298     1.0000 0.92734  0.69563  0.49280  Biso   1.000  H
  H299     1.0000 0.03975  0.55027  0.28525  Biso   1.000  H
  H300     1.0000 0.79909  0.44183  0.42755  Biso   1.000  H
  H301     1.0000 0.91537  0.73706  0.01332  Biso   1.000  H
  H302     1.0000 0.04352  0.87574  0.78811  Biso   1.000  H
  H303     1.0000 0.79732  0.96068  0.90712  Biso   1.000  H
  H304     1.0000 0.42081  0.74617  0.50729  Biso   1.000  H
  H305     1.0000 0.54185  0.86713  0.74862  Biso   1.000  H
  H306     1.0000 0.29989  0.96711  0.63242  Biso   1.000  H
  H307     1.0000 0.62193  0.23300  0.02626  Biso   1.000  H
  H308     1.0000 0.54316  0.36980  0.78531  Biso   1.000  H
  H309     1.0000 0.75283  0.46187  0.93105  Biso   1.000  H
  H310     1.0000 0.11821  0.24328  0.52542  Biso   1.000  H
  H311     1.0000 0.01788  0.37635  0.75583  Biso   1.000  H
  H312     1.0000 0.25976  0.48194  0.60818  Biso   1.000  H
  H313     1.0000 0.25471  0.93619  0.94258  Biso   1.000  H
  H314     1.0000 0.94467  0.18824  0.03455  Biso   1.000  H
  H315     1.0000 0.01923  0.87277  0.24174  Biso   1.000  H
  H316     1.0000 0.75575  0.97054  0.58325  Biso   1.000  H
  H317     1.0000 0.44218  0.19849  0.54506  Biso   1.000  H
  H318     1.0000 0.49631  0.88101  0.29047  Biso   1.000  H
  H319     1.0000 0.29620  0.46383  0.92544  Biso   1.000  H
  H320     1.0000 0.60375  0.69468  0.02164  Biso   1.000  H
  H321     1.0000 0.52712  0.37786  0.25131  Biso   1.000  H
  H322     1.0000 0.80142  0.45492  0.60453  Biso   1.000  H
  H323     1.0000 0.11293  0.69715  0.51193  Biso   1.000  H
  H324     1.0000 0.01801  0.37058  0.29267  Biso   1.000  H
  H325     1.0000 0.78561  0.96044  0.09242  Biso   1.000  H
  H326     1.0000 0.09313  0.74237  0.99390  Biso   1.000  H
  H327     1.0000 0.03352  0.05393  0.79516  Biso   1.000  H
  H328     1.0000 0.28318  0.96484  0.44878  Biso   1.000  H
  H329     1.0000 0.60881  0.73187  0.50885  Biso   1.000  H
  H330     1.0000 0.54878  0.04812  0.74867  Biso   1.000  H
  H331     1.0000 0.74608  0.45007  0.11065  Biso   1.000  H
  H332     1.0000 0.43679  0.23801  0.02399  Biso   1.000  H
  H333     1.0000 0.52670  0.54709  0.79130  Biso   1.000  H
  H334     1.0000 0.25870  0.46394  0.42046  Biso   1.000  H
  H335     1.0000 0.94430  0.23659  0.51700  Biso   1.000  H
  H336     1.0000 0.04058  0.55655  0.73924  Biso   1.000  H
  H337     1.0000 0.05154  0.18956  0.93472  Biso   1.000  H
  H338     1.0000 0.91480  0.93842  0.23843  Biso   1.000  H
  H339     1.0000 0.23771  0.86004  0.05656  Biso   1.000  H
  H340     1.0000 0.52288  0.18740  0.61138  Biso   1.000  H
  H341     1.0000 0.41413  0.97694  0.30265  Biso   1.000  H
  H342     1.0000 0.74880  0.87141  0.50798  Biso   1.000  H
  H343     1.0000 0.51129  0.69187  0.92404  Biso   1.000  H
  H344     1.0000 0.61140  0.46238  0.25063  Biso   1.000  H
  H345     1.0000 0.29236  0.37500  0.99712  Biso   1.000  H
  H346     1.0000 0.99967  0.69145  0.60114  Biso   1.000  H
  H347     1.0000 0.10959  0.44636  0.29333  Biso   1.000  H
  H348     1.0000 0.80267  0.36863  0.50002  Biso   1.000  H
  H349     1.0000 0.99723  0.74073  0.09725  Biso   1.000  H
  H350     1.0000 0.12692  0.98563  0.80090  Biso   1.000  H
  H351     1.0000 0.80347  0.06084  0.99292  Biso   1.000  H
  H352     1.0000 0.51699  0.74003  0.42214  Biso   1.000  H
  H353     1.0000 0.63513  0.96024  0.73963  Biso   1.000  H
  H354     1.0000 0.29405  0.06916  0.52670  Biso   1.000  H
  H355     1.0000 0.51971  0.24226  0.10947  Biso   1.000  H
  H356     1.0000 0.43398  0.44951  0.78474  Biso   1.000  H
  H357     1.0000 0.74229  0.55507  0.02414  Biso   1.000  H
  H358     1.0000 0.00705  0.23708  0.43931  Biso   1.000  H
  H359     1.0000 0.93506  0.47507  0.75014  Biso   1.000  H
  H360     1.0000 0.25399  0.56199  0.53480  Biso   1.000  H
  H361     1.0000 0.02764  0.69914  0.41558  Biso   1.000  H
  H362     1.0000 0.44776  0.95835  0.75819  Biso   1.000  H
  H363     1.0000 0.75726  0.37925  0.02283  Biso   1.000  H
  H364     1.0000 0.51113  0.69502  0.10886  Biso   1.000  H
  H365     1.0000 0.94654  0.95884  0.78099  Biso   1.000  H
  H366     1.0000 0.25687  0.38038  0.52536  Biso   1.000  H
  H367     1.0000 0.53856  0.19652  0.43465  Biso   1.000  H
  H368     1.0000 0.12047  0.46820  0.74657  Biso   1.000  H
  H369     1.0000 0.77860  0.88001  0.00690  Biso   1.000  H
  H370     1.0000 0.04015  0.19409  0.12066  Biso   1.000  H
  H371     1.0000 0.61825  0.45314  0.78649  Biso   1.000  H
  H372     1.0000 0.29526  0.87856  0.56911  Biso   1.000  H
  H373     1.0000 0.04705  0.24229  0.61488  Biso   1.000  H
  H374     1.0000 0.58800  0.95429  0.28097  Biso   1.000  H
  H375     1.0000 0.28856  0.54710  0.04998  Biso   1.000  H
  H376     1.0000 0.52187  0.23252  0.92676  Biso   1.000  H
  H377     1.0000 0.09173  0.95970  0.25472  Biso   1.000  H
  H378     1.0000 0.79568  0.54820  0.52271  Biso   1.000  H
  H379     1.0000 0.51940  0.73154  0.60733  Biso   1.000  H
  H380     1.0000 0.93235  0.45909  0.27939  Biso   1.000  H
  H381     1.0000 0.26131  0.04197  0.01152  Biso   1.000  H
  H382     1.0000 0.98793  0.74080  0.92107  Biso   1.000  H
  H383     1.0000 0.43184  0.45389  0.24645  Biso   1.000  H
  H384     1.0000 0.75404  0.04791  0.48254  Biso   1.000  H
  H385     1.0000 0.24780  0.42114  0.34332  Biso   1.000  H
  H386     1.0000 0.31147  0.14981  0.49050  Biso   1.000  H
  H387     1.0000 0.48809  0.29113  0.24297  Biso   1.000  H
  H388     1.0000 0.69214  0.42242  0.24292  Biso   1.000  H
  H389     1.0000 0.85314  0.18824  0.05496  Biso   1.000  H
  H390     1.0000 0.98766  0.28881  0.29972  Biso   1.000  H
  H391     1.0000 0.27859  0.93798  0.36422  Biso   1.000  H
  H392     1.0000 0.18925  0.69391  0.55762  Biso   1.000  H
  H393     1.0000 0.98605  0.74067  0.18740  Biso   1.000  H
  H394     1.0000 0.78032  0.91592  0.17947  Biso   1.000  H
  H395     1.0000 0.73303  0.64169  0.06697  Biso   1.000  H
  H396     1.0000 0.53590  0.80061  0.28437  Biso   1.000  H
  H397     1.0000 0.79843  0.49464  0.69204  Biso   1.000  H
  H398     1.0000 0.74074  0.78175  0.54077  Biso   1.000  H
  H399     1.0000 0.56431  0.64158  0.79694  Biso   1.000  H
  H400     1.0000 0.35337  0.47543  0.78665  Biso   1.000  H
  H401     1.0000 0.23688  0.79179  0.00282  Biso   1.000  H
  H402     1.0000 0.06061  0.64974  0.72113  Biso   1.000  H
  H403     1.0000 0.76632  0.94327  0.67220  Biso   1.000  H
  H404     1.0000 0.79742  0.28458  0.52974  Biso   1.000  H
  H405     1.0000 0.01594  0.19183  0.85284  Biso   1.000  H
  H406     1.0000 0.26141  0.98141  0.86521  Biso   1.000  H
  H407     1.0000 0.30542  0.28219  0.97481  Biso   1.000  H
  H408     1.0000 0.51661  0.13037  0.75523  Biso   1.000  H
  H409     1.0000 0.29741  0.41701  0.19300  Biso   1.000  H
  H410     1.0000 0.20147  0.24559  0.49803  Biso   1.000  H
  H411     1.0000 0.50758  0.19753  0.35579  Biso   1.000  H
  H412     1.0000 0.85273  0.41341  0.28721  Biso   1.000  H
  H413     1.0000 0.70034  0.24030  0.99574  Biso   1.000  H
  H414     1.0000 0.99234  0.18743  0.19870  Biso   1.000  H
  H415     1.0000 0.18173  0.92064  0.25663  Biso   1.000  H
  H416     1.0000 0.35198  0.74539  0.55897  Biso   1.000  H
  H417     1.0000 0.99932  0.63179  0.28352  Biso   1.000  H
  H418     1.0000 0.72111  0.90581  0.32257  Biso   1.000  H
  H419     1.0000 0.83711  0.74725  0.05145  Biso   1.000  H
  H420     1.0000 0.47655  0.64648  0.24085  Biso   1.000  H
  H421     1.0000 0.75092  0.42712  0.84271  Biso   1.000  H
  H422     1.0000 0.80168  0.64191  0.53996  Biso   1.000  H
  H423     1.0000 0.54786  0.72738  0.68612  Biso   1.000  H
  H424     1.0000 0.20502  0.48789  0.74151  Biso   1.000  H
  H425     1.0000 0.32532  0.67906  0.98534  Biso   1.000  H
  H426     1.0000 0.02931  0.73342  0.84044  Biso   1.000  H
  H427     1.0000 0.86824  0.99996  0.77932  Biso   1.000  H
  H428     1.0000 0.75167  0.12957  0.51840  Biso   1.000  H
  H429     1.0000 0.05962  0.29617  0.75331  Biso   1.000  H
  H430     1.0000 0.36083  0.92985  0.75861  Biso   1.000  H
  H431     1.0000 0.20356  0.17832  0.99206  Biso   1.000  H
  H432     1.0000 0.49548  0.24022  0.83676  Biso   1.000  H
  H433     1.0000 0.31592  0.00250  0.71180  Biso   1.000  H
  H434     1.0000 0.75725  0.29352  0.04717  Biso   1.000  H
  H435     1.0000 0.06020  0.68437  0.33396  Biso   1.000  H
  H436     1.0000 0.80387  0.94597  0.82628  Biso   1.000  H
  H437     1.0000 0.25812  0.29275  0.55979  Biso   1.000  H
  H438     1.0000 0.54313  0.69247  0.18913  Biso   1.000  H
  H439     1.0000 0.25254  0.43027  0.68487  Biso   1.000  H
  H440     1.0000 0.77834  0.78708  0.98622  Biso   1.000  H
  H441     1.0000 0.55490  0.13939  0.29431  Biso   1.000  H
  H442     1.0000 0.70455  0.49866  0.79870  Biso   1.000  H
  H443     1.0000 0.28449  0.80010  0.51563  Biso   1.000  H
  H444     1.0000 0.04447  0.12975  0.25376  Biso   1.000  H
  H445     1.0000 0.67765  0.98065  0.28002  Biso   1.000  H
  H446     1.0000 0.28253  0.63813  0.06475  Biso   1.000  H
  H447     1.0000 0.00544  0.23770  0.69988  Biso   1.000  H
  H448     1.0000 0.23037  0.99088  0.20674  Biso   1.000  H
  H449     1.0000 0.83696  0.68095  0.45964  Biso   1.000  H
  H450     1.0000 0.57475  0.28066  0.79922  Biso   1.000  H
  H451     1.0000 0.79302  0.46884  0.34005  Biso   1.000  H
  H452     1.0000 0.26413  0.12936  0.04796  Biso   1.000  H
  H453     1.0000 0.49791  0.78904  0.74715  Biso   1.000  H
  H454     1.0000 0.34811  0.48285  0.23909  Biso   1.000  H
  H455     1.0000 0.70502  0.18661  0.46646  Biso   1.000  H
  H456     1.0000 0.99914  0.79926  0.77850  Biso   1.000  H
  H457     1.0000 0.69759  0.74248  0.46865  Biso   1.000  H
  H458     1.0000 0.48615  0.68196  0.83852  Biso   1.000  H
  H459     1.0000 0.85618  0.43580  0.74584  Biso   1.000  H
  H460     1.0000 0.17485  0.72679  0.04204  Biso   1.000  H
  H461     1.0000 0.97539  0.68071  0.69694  Biso   1.000  H
  H462     1.0000 0.29668  0.42476  0.84753  Biso   1.000  H
  H463     1.0000 0.86406  0.23727  0.48047  Biso   1.000  H
  H464     1.0000 0.07478  0.13953  0.79518  Biso   1.000  H
  H465     1.0000 0.71474  0.00261  0.72523  Biso   1.000  H
  H466     1.0000 0.34877  0.24507  0.05419  Biso   1.000  H
  H467     1.0000 0.55537  0.18436  0.68527  Biso   1.000  H
  H468     1.0000 0.20767  0.93712  0.79867  Biso   1.000  H
  H469     1.0000 0.35287  0.18849  0.56566  Biso   1.000  H
  H470     1.0000 0.55924  0.24554  0.19676  Biso   1.000  H
  H471     1.0000 0.19321  0.47928  0.28338  Biso   1.000  H
  H472     1.0000 0.81500  0.14626  0.97661  Biso   1.000  H
  H473     1.0000 0.04800  0.23505  0.35462  Biso   1.000  H
  H474     1.0000 0.75729  0.46872  0.19141  Biso   1.000  H
  H475     1.0000 0.25463  0.64404  0.50813  Biso   1.000  H
  H476     1.0000 0.06100  0.78494  0.22177  Biso   1.000  H
  H477     1.0000 0.32257  0.00568  0.31108  Biso   1.000  H
  H478     1.0000 0.69402  0.67819  0.98673  Biso   1.000  H
  H479     1.0000 0.48467  0.74430  0.34092  Biso   1.000  H
  H480     1.0000 0.83309  0.97327  0.23545  Biso   1.000  H
  N1       1.0000 0.70637  0.13680  0.49479  Biso   1.000  N
  N2       1.0000 0.51184  0.64363  0.19492  Biso   1.000  N
  N3       1.0000 0.20620  0.46378  0.69283  Biso   1.000  N
  N4       1.0000 0.20994  0.13236  0.01857  Biso   1.000  N
  N5       1.0000 0.03125  0.63969  0.33389  Biso   1.000  N
  N6       1.0000 0.70364  0.46272  0.84290  Biso   1.000  N
  N7       1.0000 0.84233  0.63795  0.50255  Biso   1.000  N
  N8       1.0000 0.01961  0.13716  0.20287  Biso   1.000  N
  N9       1.0000 0.36041  0.96558  0.71036  Biso   1.000  N
  N10      1.0000 0.33060  0.63632  0.02681  Biso   1.000  N
  N11      1.0000 0.53066  0.14526  0.34774  Biso   1.000  N
  N12      1.0000 0.85827  0.97007  0.82801  Biso   1.000  N
  N13      1.0000 0.34193  0.79858  0.53413  Biso   1.000  N
  N14      1.0000 0.53324  0.28454  0.84162  Biso   1.000  N
  N15      1.0000 0.84865  0.44795  0.33581  Biso   1.000  N
  N16      1.0000 0.82829  0.79242  0.01676  Biso   1.000  N
  N17      1.0000 0.02988  0.29181  0.70220  Biso   1.000  N
  N18      1.0000 0.34687  0.44986  0.19239  Biso   1.000  N
  N19      1.0000 0.20678  0.29442  0.52719  Biso   1.000  N
  N20      1.0000 0.01257  0.78892  0.83249  Biso   1.000  N
  N21      1.0000 0.67971  0.94739  0.32836  Biso   1.000  N
  N22      1.0000 0.70524  0.29028  0.02491  Biso   1.000  N
  N23      1.0000 0.52831  0.78360  0.69216  Biso   1.000  N
  N24      1.0000 0.18367  0.95729  0.20666  Biso   1.000  N
  N25      1.0000 0.85151  0.46387  0.69335  Biso   1.000  N
  N26      1.0000 0.69560  0.78452  0.50616  Biso   1.000  N
  N27      1.0000 0.52424  0.63595  0.84037  Biso   1.000  N
  N28      1.0000 0.35116  0.45472  0.83985  Biso   1.000  N
  N29      1.0000 0.18161  0.78397  0.02145  Biso   1.000  N
  N30      1.0000 0.01801  0.64067  0.68838  Biso   1.000  N
  N31      1.0000 0.71546  0.97077  0.67675  Biso   1.000  N
  N32      1.0000 0.85489  0.28327  0.51111  Biso   1.000  N
  N33      1.0000 0.04413  0.14070  0.84602  Biso   1.000  N
  N34      1.0000 0.20907  0.96083  0.85383  Biso   1.000  N
  N35      1.0000 0.34836  0.29030  0.01233  Biso   1.000  N
  N36      1.0000 0.53414  0.13529  0.69820  Biso   1.000  N
  N37      1.0000 0.19883  0.45382  0.34111  Biso   1.000  N
  N38      1.0000 0.35467  0.14897  0.52567  Biso   1.000  N
  N39      1.0000 0.52469  0.29209  0.19710  Biso   1.000  N
  N40      1.0000 0.69898  0.45442  0.19636  Biso   1.000  N
  N41      1.0000 0.85687  0.14344  0.01379  Biso   1.000  N
  N42      1.0000 0.01903  0.28727  0.34980  Biso   1.000  N
  N43      1.0000 0.32905  0.96785  0.35977  Biso   1.000  N
  N44      1.0000 0.20087  0.64838  0.52568  Biso   1.000  N
  N45      1.0000 0.01927  0.78702  0.18450  Biso   1.000  N
  N46      1.0000 0.83061  0.94909  0.18356  Biso   1.000  N
  N47      1.0000 0.68793  0.63991  0.02589  Biso   1.000  N
  N48      1.0000 0.51211  0.79395  0.33661  Biso   1.000  N
  O1       1.0000 0.36136  0.50557  0.02558  Biso   1.000  O
  O2       1.0000 0.03090  0.31047  0.56598  Biso   1.000  O
  O3       1.0000 0.54975  0.97011  0.35860  Biso   1.000  O
  O4       1.0000 0.86824  0.50263  0.51641  Biso   1.000  O
  O5       1.0000 0.52418  0.30771  0.97482  Biso   1.000  O
  O6       1.0000 0.04991  0.97132  0.17927  Biso   1.000  O
  O7       1.0000 0.18325  0.00196  0.01997  Biso   1.000  O
  O8       1.0000 0.52901  0.80810  0.55675  Biso   1.000  O
  O9       1.0000 0.98170  0.46728  0.35273  Biso   1.000  O
  O10      1.0000 0.67828  0.00280  0.49671  Biso   1.000  O
  O11      1.0000 0.00294  0.81197  0.96757  Biso   1.000  O
  O12      1.0000 0.48311  0.47028  0.17730  Biso   1.000  O
  O13      1.0000 0.67817  0.42103  0.02113  Biso   1.000  O
  O14      1.0000 0.02201  0.62291  0.46778  Biso   1.000  O
  O15      1.0000 0.49657  0.96561  0.68318  Biso   1.000  O
  O16      1.0000 0.18610  0.42757  0.52026  Biso   1.000  O
  O17      1.0000 0.51437  0.62178  0.05914  Biso   1.000  O
  O18      1.0000 0.99042  0.96177  0.85693  Biso   1.000  O
  O19      1.0000 0.85508  0.92456  0.00538  Biso   1.000  O
  O20      1.0000 0.53034  0.12065  0.48172  Biso   1.000  O
  O21      1.0000 0.07111  0.46367  0.67098  Biso   1.000  O
  O22      1.0000 0.36208  0.93003  0.54196  Biso   1.000  O
  O23      1.0000 0.02989  0.12049  0.06671  Biso   1.000  O
  O24      1.0000 0.56846  0.46394  0.85964  Biso   1.000  O
  O25      1.0000 0.96858  0.95578  0.16939  Biso   1.000  O
  O26      1.0000 0.17126  0.91787  0.03058  Biso   1.000  O
  O27      1.0000 0.03521  0.11669  0.98217  Biso   1.000  O
  O28      1.0000 0.46797  0.97758  0.36778  Biso   1.000  O
  O29      1.0000 0.67447  0.91948  0.50993  Biso   1.000  O
  O30      1.0000 0.52970  0.12017  0.56511  Biso   1.000  O
  O31      1.0000 0.56625  0.47245  0.17992  Biso   1.000  O
  O32      1.0000 0.36408  0.42404  0.01329  Biso   1.000  O
  O33      1.0000 0.51508  0.62099  0.97515  Biso   1.000  O
  O34      1.0000 0.06410  0.46093  0.36357  Biso   1.000  O
  O35      1.0000 0.87088  0.41793  0.51605  Biso   1.000  O
  O36      1.0000 0.01936  0.62360  0.55221  Biso   1.000  O
  O37      1.0000 0.07564  0.96131  0.86674  Biso   1.000  O
  O38      1.0000 0.87266  0.00819  0.00126  Biso   1.000  O
  O39      1.0000 0.00974  0.81199  0.05223  Biso   1.000  O
  O40      1.0000 0.57990  0.95730  0.67113  Biso   1.000  O
  O41      1.0000 0.36449  0.01484  0.53447  Biso   1.000  O
  O42      1.0000 0.51538  0.80921  0.47227  Biso   1.000  O
  O43      1.0000 0.48491  0.45717  0.85634  Biso   1.000  O
  O44      1.0000 0.66950  0.50490  0.01937  Biso   1.000  O
  O45      1.0000 0.52921  0.31061  0.05953  Biso   1.000  O
  O46      1.0000 0.98619  0.46422  0.67636  Biso   1.000  O
  O47      1.0000 0.18447  0.51187  0.51298  Biso   1.000  O
  O48      1.0000 0.02450  0.30857  0.48308  Biso   1.000  O
  O49      1.0000 0.01537  0.92304  0.17107  Biso   1.000  O
  O50      1.0000 0.18039  0.95570  0.98394  Biso   1.000  O
  O51      1.0000 0.99082  0.11853  0.02268  Biso   1.000  O
  O52      1.0000 0.50119  0.92861  0.36175  Biso   1.000  O
  O53      1.0000 0.67851  0.96810  0.54512  Biso   1.000  O
  O54      1.0000 0.48857  0.12373  0.52658  Biso   1.000  O
  O55      1.0000 0.52590  0.42741  0.17866  Biso   1.000  O
  O56      1.0000 0.36740  0.47231  0.97528  Biso   1.000  O
  O57      1.0000 0.55330  0.62112  0.01700  Biso   1.000  O
  O58      1.0000 0.01595  0.42126  0.36537  Biso   1.000  O
  O59      1.0000 0.87089  0.45706  0.55902  Biso   1.000  O
  O60      1.0000 0.06410  0.62318  0.51290  Biso   1.000  O
  O61      1.0000 0.03212  0.00422  0.86528  Biso   1.000  O
  O62      1.0000 0.86183  0.96546  0.04998  Biso   1.000  O
  O63      1.0000 0.04902  0.81391  0.00525  Biso   1.000  O
  O64      1.0000 0.53885  0.00336  0.67784  Biso   1.000  O
  O65      1.0000 0.36027  0.97018  0.49277  Biso   1.000  O
  O66      1.0000 0.56269  0.80778  0.50812  Biso   1.000  O
  O67      1.0000 0.52517  0.50171  0.86305  Biso   1.000  O
  O68      1.0000 0.67643  0.46587  0.05997  Biso   1.000  O
  O69      1.0000 0.48372  0.30846  0.02158  Biso   1.000  O
  O70      1.0000 0.02930  0.50741  0.67015  Biso   1.000  O
  O71      1.0000 0.18445  0.46734  0.47465  Biso   1.000  O
  O72      1.0000 0.98792  0.31194  0.52937  Biso   1.000  O
  O73      1.0000 0.02733  0.42269  0.67886  Biso   1.000  O
  O74      1.0000 0.67135  0.95510  0.46233  Biso   1.000  O
  O75      1.0000 0.46769  0.62292  0.01973  Biso   1.000  O
  O76      1.0000 0.52890  0.41659  0.85834  Biso   1.000  O
  O77      1.0000 0.17282  0.96503  0.06995  Biso   1.000  O
  O78      1.0000 0.97920  0.62414  0.50705  Biso   1.000  O
  O79      1.0000 0.53381  0.91866  0.67663  Biso   1.000  O
  O80      1.0000 0.87140  0.46005  0.47245  Biso   1.000  O
  O81      1.0000 0.07371  0.11677  0.02354  Biso   1.000  O
  O82      1.0000 0.03485  0.92000  0.85972  Biso   1.000  O
  O83      1.0000 0.36412  0.46078  0.05943  Biso   1.000  O
  O84      1.0000 0.57151  0.11883  0.51802  Biso   1.000  O
  O85      1.0000 0.02788  0.50506  0.35748  Biso   1.000  O
  O86      1.0000 0.36645  0.97838  0.57560  Biso   1.000  O
  O87      1.0000 0.57098  0.30427  0.01525  Biso   1.000  O
  O88      1.0000 0.52314  0.51061  0.17863  Biso   1.000  O
  O89      1.0000 0.86742  0.96374  0.96533  Biso   1.000  O
  O90      1.0000 0.06945  0.31526  0.52080  Biso   1.000  O
  O91      1.0000 0.51169  0.01149  0.36251  Biso   1.000  O
  O92      1.0000 0.18739  0.47118  0.55901  Biso   1.000  O
  O93      1.0000 0.96311  0.81293  0.01034  Biso   1.000  O
  O94      1.0000 0.00517  0.00465  0.16999  Biso   1.000  O
  O95      1.0000 0.67569  0.46463  0.97547  Biso   1.000  O
  O96      1.0000 0.47803  0.81278  0.51723  Biso   1.000  O
  O97      1.0000 0.49153  0.17121  0.52827  Biso   1.000  O
  O98      1.0000 0.52660  0.42495  0.22778  Biso   1.000  O
  O99      1.0000 0.23384  0.46855  0.47285  Biso   1.000  O
  O100     1.0000 0.99208  0.16730  0.02267  Biso   1.000  O
  O101     1.0000 0.01864  0.42093  0.31625  Biso   1.000  O
  O102     1.0000 0.72465  0.46699  0.06075  Biso   1.000  O
  O103     1.0000 0.06526  0.67133  0.51381  Biso   1.000  O
  O104     1.0000 0.01197  0.91885  0.21996  Biso   1.000  O
  O105     1.0000 0.31096  0.96907  0.49652  Biso   1.000  O
  O106     1.0000 0.55396  0.66790  0.01555  Biso   1.000  O
  O107     1.0000 0.49969  0.93139  0.31319  Biso   1.000  O
  O108     1.0000 0.81423  0.97209  0.04489  Biso   1.000  O
  O109     1.0000 0.56015  0.75858  0.50940  Biso   1.000  O
  O110     1.0000 0.52197  0.50136  0.81498  Biso   1.000  O
  O111     1.0000 0.82265  0.45798  0.55826  Biso   1.000  O
  O112     1.0000 0.04698  0.76546  0.00242  Biso   1.000  O
  O113     1.0000 0.03059  0.50883  0.72005  Biso   1.000  O
  O114     1.0000 0.31815  0.46984  0.97436  Biso   1.000  O
  O115     1.0000 0.99047  0.26227  0.53365  Biso   1.000  O
  O116     1.0000 0.03508  0.00586  0.81678  Biso   1.000  O
  O117     1.0000 0.72659  0.96812  0.53822  Biso   1.000  O
  O118     1.0000 0.48503  0.26091  0.01347  Biso   1.000  O
  O119     1.0000 0.54333  0.00191  0.72729  Biso   1.000  O
  O120     1.0000 0.22903  0.94855  0.98890  Biso   1.000  O
  O121     1.0000 0.07132  0.46144  0.72110  Biso   1.000  O
  O122     1.0000 0.72683  0.00218  0.49200  Biso   1.000  O
  O123     1.0000 0.51172  0.67028  0.05698  Biso   1.000  O
  O124     1.0000 0.56890  0.46377  0.81090  Biso   1.000  O
  O125     1.0000 0.23045  0.99479  0.02491  Biso   1.000  O
  O126     1.0000 0.02225  0.67183  0.46885  Biso   1.000  O
  O127     1.0000 0.49909  0.96250  0.73141  Biso   1.000  O
  O128     1.0000 0.81791  0.50060  0.51270  Biso   1.000  O
  O129     1.0000 0.03051  0.16960  0.06693  Biso   1.000  O
  O130     1.0000 0.99335  0.96428  0.80811  Biso   1.000  O
  O131     1.0000 0.31323  0.50445  0.02233  Biso   1.000  O
  O132     1.0000 0.53715  0.16961  0.48461  Biso   1.000  O
  O133     1.0000 0.98581  0.46907  0.30384  Biso   1.000  O
  O134     1.0000 0.31394  0.93171  0.54305  Biso   1.000  O
  O135     1.0000 0.53004  0.25942  0.97549  Biso   1.000  O
  O136     1.0000 0.47972  0.46219  0.22634  Biso   1.000  O
  O137     1.0000 0.80570  0.92937  0.00610  Biso   1.000  O
  O138     1.0000 0.03611  0.26319  0.56875  Biso   1.000  O
  O139     1.0000 0.54320  0.96639  0.30905  Biso   1.000  O
  O140     1.0000 0.23465  0.42828  0.52134  Biso   1.000  O
  O141     1.0000 0.00381  0.76281  0.96845  Biso   1.000  O
  O142     1.0000 0.04664  0.96616  0.22620  Biso   1.000  O
  O143     1.0000 0.72786  0.42614  0.02061  Biso   1.000  O
  O144     1.0000 0.52118  0.75983  0.55463  Biso   1.000  O
  O145     1.0000 0.56320  0.47201  0.22808  Biso   1.000  O
  O146     1.0000 0.23274  0.51465  0.51263  Biso   1.000  O
  O147     1.0000 0.53185  0.16718  0.56698  Biso   1.000  O
  O148     1.0000 0.06578  0.45128  0.31558  Biso   1.000  O
  O149     1.0000 0.71716  0.50571  0.02371  Biso   1.000  O
  O150     1.0000 0.04298  0.16541  0.98241  Biso   1.000  O
  O151     1.0000 0.96330  0.95660  0.21789  Biso   1.000  O
  O152     1.0000 0.31652  0.01680  0.53519  Biso   1.000  O
  O153     1.0000 0.02189  0.67104  0.55406  Biso   1.000  O
  O154     1.0000 0.45948  0.97679  0.31951  Biso   1.000  O
  O155     1.0000 0.82261  0.01197  0.00369  Biso   1.000  O
  O156     1.0000 0.51087  0.66911  0.97343  Biso   1.000  O
  O157     1.0000 0.48671  0.45815  0.80732  Biso   1.000  O
  O158     1.0000 0.82003  0.41701  0.51651  Biso   1.000  O
  O159     1.0000 0.51514  0.76123  0.47123  Biso   1.000  O
  O160     1.0000 0.98616  0.46946  0.72526  Biso   1.000  O
  O161     1.0000 0.31533  0.42372  0.00731  Biso   1.000  O
  O162     1.0000 0.01120  0.76468  0.05128  Biso   1.000  O
  O163     1.0000 0.07697  0.97252  0.81754  Biso   1.000  O
  O164     1.0000 0.72340  0.91925  0.50670  Biso   1.000  O
  O165     1.0000 0.01859  0.26133  0.48670  Biso   1.000  O
  O166     1.0000 0.58314  0.95667  0.72098  Biso   1.000  O
  O167     1.0000 0.21781  0.91404  0.03943  Biso   1.000  O
  O168     1.0000 0.52212  0.26206  0.06218  Biso   1.000  O
  O169     1.0000 0.00012  0.00113  0.21924  Biso   1.000  O
  O170     1.0000 0.22183  0.95976  0.07151  Biso   1.000  O
  O171     1.0000 0.07758  0.16555  0.03097  Biso   1.000  O
  O172     1.0000 0.50712  0.01346  0.31425  Biso   1.000  O
  O173     1.0000 0.71972  0.95564  0.45799  Biso   1.000  O
  O174     1.0000 0.57371  0.16679  0.52439  Biso   1.000  O
  O175     1.0000 0.51664  0.50926  0.22835  Biso   1.000  O
  O176     1.0000 0.31516  0.45188  0.05898  Biso   1.000  O
  O177     1.0000 0.46801  0.67092  0.01420  Biso   1.000  O
  O178     1.0000 0.03128  0.50386  0.30860  Biso   1.000  O
  O179     1.0000 0.82369  0.45986  0.47591  Biso   1.000  O
  O180     1.0000 0.97690  0.67207  0.51233  Biso   1.000  O
  O181     1.0000 0.04136  0.92248  0.81069  Biso   1.000  O
  O182     1.0000 0.81857  0.96686  0.96205  Biso   1.000  O
  O183     1.0000 0.96445  0.76332  0.01652  Biso   1.000  O
  O184     1.0000 0.53794  0.91775  0.72511  Biso   1.000  O
  O185     1.0000 0.31805  0.97905  0.58331  Biso   1.000  O
  O186     1.0000 0.47452  0.76521  0.51680  Biso   1.000  O
  O187     1.0000 0.53296  0.41905  0.80834  Biso   1.000  O
  O188     1.0000 0.72545  0.46625  0.97700  Biso   1.000  O
  O189     1.0000 0.56966  0.25752  0.02411  Biso   1.000  O
  O190     1.0000 0.02328  0.42680  0.72633  Biso   1.000  O
  O191     1.0000 0.23697  0.47551  0.55838  Biso   1.000  O
  O192     1.0000 0.07386  0.26612  0.51796  Biso   1.000  O
