data_image0
_cell_length_a       47.2525
_cell_length_b       46.6192
_cell_length_c       46.6297
_cell_angle_alpha    90
_cell_angle_beta     90
_cell_angle_gamma    90

_symmetry_space_group_name_H-M    "P 1"
_symmetry_int_tables_number       1

loop_
  _symmetry_equiv_pos_as_xyz
  'x, y, z'

loop_
  _atom_site_label
  _atom_site_occupancy
  _atom_site_fract_x
  _atom_site_fract_y
  _atom_site_fract_z
  _atom_site_thermal_displace_type
  _atom_site_B_iso_or_equiv
  _atom_site_type_symbol
  C1       1.0000 0.57079  0.97560  0.34199  Biso   1.000  C
  C2       1.0000 0.32179  0.53552  0.02030  Biso   1.000  C
  C3       1.0000 0.00309  0.31034  0.57518  Biso   1.000  C
  C4       1.0000 0.07084  0.97007  0.19899  Biso   1.000  C
  C5       1.0000 0.82484  0.53611  0.50046  Biso   1.000  C
  C6       1.0000 0.51353  0.30253  0.95830  Biso   1.000  C
  C7       1.0000 0.95517  0.47963  0.33553  Biso   1.000  C
  C8       1.0000 0.19236  0.03163  0.01150  Biso   1.000  C
  C9       1.0000 0.50807  0.80199  0.56769  Biso   1.000  C
  C10      1.0000 0.45043  0.47890  0.19641  Biso   1.000  C
  C11      1.0000 0.68971  0.03597  0.52697  Biso   1.000  C
  C12      1.0000 0.01227  0.79954  0.95274  Biso   1.000  C
  C13      1.0000 0.44222  0.98567  0.69061  Biso   1.000  C
  C14      1.0000 0.68797  0.42667  0.00984  Biso   1.000  C
  C15      1.0000 0.00589  0.66772  0.45227  Biso   1.000  C
  C16      1.0000 0.94329  0.97766  0.83836  Biso   1.000  C
  C17      1.0000 0.19259  0.42545  0.52526  Biso   1.000  C
  C18      1.0000 0.50897  0.66533  0.06723  Biso   1.000  C
  C19      1.0000 0.05775  0.47907  0.68972  Biso   1.000  C
  C20      1.0000 0.82080  0.92660  0.01973  Biso   1.000  C
  C21      1.0000 0.50846  0.16984  0.46029  Biso   1.000  C
  C22      1.0000 0.56135  0.49022  0.83275  Biso   1.000  C
  C23      1.0000 0.32648  0.92954  0.51174  Biso   1.000  C
  C24      1.0000 0.01468  0.15877  0.06919  Biso   1.000  C
  C25      1.0000 0.32684  0.03797  0.50964  Biso   1.000  C
  C26      1.0000 0.50459  0.29853  0.06802  Biso   1.000  C
  C27      1.0000 0.06193  0.47931  0.34221  Biso   1.000  C
  C28      1.0000 0.82621  0.03439  0.02940  Biso   1.000  C
  C29      1.0000 0.00420  0.30345  0.46756  Biso   1.000  C
  C30      1.0000 0.55963  0.48495  0.18982  Biso   1.000  C
  C31      1.0000 0.18961  0.53344  0.51857  Biso   1.000  C
  C32      1.0000 0.00326  0.80612  0.06122  Biso   1.000  C
  C33      1.0000 0.46405  0.98956  0.33385  Biso   1.000  C
  C34      1.0000 0.68393  0.53295  0.00475  Biso   1.000  C
  C35      1.0000 0.51271  0.80062  0.46043  Biso   1.000  C
  C36      1.0000 0.96076  0.98906  0.19807  Biso   1.000  C
  C37      1.0000 0.68700  0.92720  0.51745  Biso   1.000  C
  C38      1.0000 0.50272  0.66552  0.95664  Biso   1.000  C
  C39      1.0000 0.94837  0.49770  0.69242  Biso   1.000  C
  C40      1.0000 0.18871  0.92287  0.01005  Biso   1.000  C
  C41      1.0000 0.00376  0.66710  0.55895  Biso   1.000  C
  C42      1.0000 0.45202  0.47465  0.82943  Biso   1.000  C
  C43      1.0000 0.82001  0.42849  0.51128  Biso   1.000  C
  C44      1.0000 0.00805  0.16132  0.96120  Biso   1.000  C
  C45      1.0000 0.55027  0.98604  0.69767  Biso   1.000  C
  C46      1.0000 0.31940  0.42621  0.01396  Biso   1.000  C
  C47      1.0000 0.51379  0.16366  0.56759  Biso   1.000  C
  C48      1.0000 0.04987  0.99324  0.83212  Biso   1.000  C
  C49      1.0000 0.98979  0.04114  0.83595  Biso   1.000  C
  C50      1.0000 0.82787  0.97627  0.07950  Biso   1.000  C
  C51      1.0000 0.06004  0.80364  0.01522  Biso   1.000  C
  C52      1.0000 0.49589  0.04000  0.69427  Biso   1.000  C
  C53      1.0000 0.33246  0.98171  0.45288  Biso   1.000  C
  C54      1.0000 0.56401  0.79562  0.51689  Biso   1.000  C
  C55      1.0000 0.49762  0.53292  0.83224  Biso   1.000  C
  C56      1.0000 0.68452  0.48244  0.06051  Biso   1.000  C
  C57      1.0000 0.45534  0.30164  0.01146  Biso   1.000  C
  C58      1.0000 0.01095  0.54373  0.68848  Biso   1.000  C
  C59      1.0000 0.18824  0.47485  0.46741  Biso   1.000  C
  C60      1.0000 0.94916  0.30115  0.52435  Biso   1.000  C
  C61      1.0000 0.00475  0.92906  0.19738  Biso   1.000  C
  C62      1.0000 0.18232  0.97666  0.95891  Biso   1.000  C
  C63      1.0000 0.95635  0.15609  0.01798  Biso   1.000  C
  C64      1.0000 0.51232  0.92928  0.33747  Biso   1.000  C
  C65      1.0000 0.68664  0.97790  0.57602  Biso   1.000  C
  C66      1.0000 0.45499  0.16307  0.51377  Biso   1.000  C
  C67      1.0000 0.50495  0.42844  0.19065  Biso   1.000  C
  C68      1.0000 0.32143  0.48478  0.96065  Biso   1.000  C
  C69      1.0000 0.56059  0.66627  0.01035  Biso   1.000  C
  C70      1.0000 0.01501  0.42525  0.33779  Biso   1.000  C
  C71      1.0000 0.82526  0.48911  0.55841  Biso   1.000  C
  C72      1.0000 0.05972  0.66385  0.50994  Biso   1.000  C
  C73      1.0000 0.00789  0.53445  0.33441  Biso   1.000  C
  C74      1.0000 0.32040  0.98256  0.56170  Biso   1.000  C
  C75      1.0000 0.55943  0.30138  0.01721  Biso   1.000  C
  C76      1.0000 0.50684  0.53772  0.19034  Biso   1.000  C
  C77      1.0000 0.82061  0.98342  0.96813  Biso   1.000  C
  C78      1.0000 0.05810  0.30450  0.52185  Biso   1.000  C
  C79      1.0000 0.52141  0.03967  0.33921  Biso   1.000  C
  C80      1.0000 0.18954  0.48308  0.57440  Biso   1.000  C
  C81      1.0000 0.95279  0.80812  0.99636  Biso   1.000  C
  C82      1.0000 0.02099  0.03463  0.20086  Biso   1.000  C
  C83      1.0000 0.68288  0.48103  0.95287  Biso   1.000  C
  C84      1.0000 0.45308  0.80319  0.51352  Biso   1.000  C
  C85      1.0000 0.99544  0.43557  0.69864  Biso   1.000  C
  C86      1.0000 0.69367  0.98674  0.46864  Biso   1.000  C
  C87      1.0000 0.45283  0.66085  0.01757  Biso   1.000  C
  C88      1.0000 0.51221  0.42646  0.83009  Biso   1.000  C
  C89      1.0000 0.19805  0.97321  0.06624  Biso   1.000  C
  C90      1.0000 0.95184  0.66303  0.50536  Biso   1.000  C
  C91      1.0000 0.49676  0.93139  0.69785  Biso   1.000  C
  C92      1.0000 0.81699  0.47184  0.45228  Biso   1.000  C
  C93      1.0000 0.06618  0.15842  0.00787  Biso   1.000  C
  C94      1.0000 0.00387  0.93280  0.83387  Biso   1.000  C
  C95      1.0000 0.32265  0.47911  0.07227  Biso   1.000  C
  C96      1.0000 0.56256  0.16027  0.51513  Biso   1.000  C
  C97      1.0000 0.68856  0.06730  0.52453  Biso   1.000  C
  C98      1.0000 0.50835  0.66635  0.09870  Biso   1.000  C
  C99      1.0000 0.08980  0.47758  0.69342  Biso   1.000  C
  C100     1.0000 0.19160  0.06342  0.01034  Biso   1.000  C
  C101     1.0000 0.00364  0.66609  0.41993  Biso   1.000  C
  C102     1.0000 0.59139  0.50389  0.83127  Biso   1.000  C
  C103     1.0000 0.82574  0.56798  0.49947  Biso   1.000  C
  C104     1.0000 0.01545  0.16069  0.10215  Biso   1.000  C
  C105     1.0000 0.40962  0.98394  0.69158  Biso   1.000  C
  C106     1.0000 0.32334  0.56652  0.02323  Biso   1.000  C
  C107     1.0000 0.51147  0.17128  0.42732  Biso   1.000  C
  C108     1.0000 0.91137  0.97282  0.83936  Biso   1.000  C
  C109     1.0000 0.32646  0.89818  0.51177  Biso   1.000  C
  C110     1.0000 0.51146  0.30233  0.92655  Biso   1.000  C
  C111     1.0000 0.92195  0.48399  0.33510  Biso   1.000  C
  C112     1.0000 0.81811  0.89446  0.01300  Biso   1.000  C
  C113     1.0000 0.00336  0.31043  0.60781  Biso   1.000  C
  C114     1.0000 0.41881  0.47792  0.19807  Biso   1.000  C
  C115     1.0000 0.18931  0.39364  0.53134  Biso   1.000  C
  C116     1.0000 0.01374  0.80183  0.91986  Biso   1.000  C
  C117     1.0000 0.60252  0.97843  0.34334  Biso   1.000  C
  C118     1.0000 0.68800  0.39455  0.00849  Biso   1.000  C
  C119     1.0000 0.50302  0.80380  0.60031  Biso   1.000  C
  C120     1.0000 0.10353  0.96822  0.19877  Biso   1.000  C
  C121     1.0000 0.83008  0.97352  0.11140  Biso   1.000  C
  C122     1.0000 0.09013  0.80137  0.02496  Biso   1.000  C
  C123     1.0000 0.99156  0.07284  0.83511  Biso   1.000  C
  C124     1.0000 0.33361  0.98138  0.42204  Biso   1.000  C
  C125     1.0000 0.59666  0.79753  0.51811  Biso   1.000  C
  C126     1.0000 0.49002  0.07113  0.69457  Biso   1.000  C
  C127     1.0000 0.68481  0.48345  0.09315  Biso   1.000  C
  C128     1.0000 0.42287  0.30325  0.00961  Biso   1.000  C
  C129     1.0000 0.49232  0.56534  0.83120  Biso   1.000  C
  C130     1.0000 0.18940  0.46954  0.43599  Biso   1.000  C
  C131     1.0000 0.91685  0.30163  0.52507  Biso   1.000  C
  C132     1.0000 0.01789  0.57496  0.68727  Biso   1.000  C
  C133     1.0000 0.18007  0.97562  0.92536  Biso   1.000  C
  C134     1.0000 0.92463  0.15611  0.02090  Biso   1.000  C
  C135     1.0000 0.00546  0.89726  0.19360  Biso   1.000  C
  C136     1.0000 0.68436  0.98017  0.60878  Biso   1.000  C
  C137     1.0000 0.42361  0.16392  0.51101  Biso   1.000  C
  C138     1.0000 0.51832  0.89653  0.33635  Biso   1.000  C
  C139     1.0000 0.32243  0.48665  0.92925  Biso   1.000  C
  C140     1.0000 0.59241  0.66403  0.00579  Biso   1.000  C
  C141     1.0000 0.49733  0.39740  0.19238  Biso   1.000  C
  C142     1.0000 0.82582  0.48760  0.59024  Biso   1.000  C
  C143     1.0000 0.09249  0.66310  0.51146  Biso   1.000  C
  C144     1.0000 0.01655  0.39182  0.33834  Biso   1.000  C
  C145     1.0000 0.32261  0.47926  0.10478  Biso   1.000  C
  C146     1.0000 0.08998  0.30481  0.52344  Biso   1.000  C
  C147     1.0000 0.51825  0.07163  0.33729  Biso   1.000  C
  C148     1.0000 0.81732  0.46854  0.42038  Biso   1.000  C
  C149     1.0000 0.59118  0.30153  0.01897  Biso   1.000  C
  C150     1.0000 0.02014  0.06663  0.19809  Biso   1.000  C
  C151     1.0000 0.20005  0.97243  0.09891  Biso   1.000  C
  C152     1.0000 0.42160  0.80509  0.51246  Biso   1.000  C
  C153     1.0000 0.00205  0.56634  0.33152  Biso   1.000  C
  C154     1.0000 0.69474  0.99204  0.43636  Biso   1.000  C
  C155     1.0000 0.92074  0.80607  0.99320  Biso   1.000  C
  C156     1.0000 0.51916  0.56752  0.18999  Biso   1.000  C
  C157     1.0000 0.68494  0.48993  0.92193  Biso   1.000  C
  C158     1.0000 0.91927  0.66350  0.50618  Biso   1.000  C
  C159     1.0000 0.49872  0.89962  0.69743  Biso   1.000  C
  C160     1.0000 0.19079  0.48439  0.60602  Biso   1.000  C
  C161     1.0000 0.42186  0.65856  0.02130  Biso   1.000  C
  C162     1.0000 0.00483  0.90049  0.83152  Biso   1.000  C
  C163     1.0000 0.81884  0.98552  0.93635  Biso   1.000  C
  C164     1.0000 0.59378  0.16012  0.51920  Biso   1.000  C
  C165     1.0000 0.99292  0.40452  0.70019  Biso   1.000  C
  C166     1.0000 0.31817  0.97879  0.59400  Biso   1.000  C
  C167     1.0000 0.09808  0.15919  0.00467  Biso   1.000  C
  C168     1.0000 0.51313  0.39465  0.82926  Biso   1.000  C
  C169     1.0000 0.00237  0.80610  0.09313  Biso   1.000  C
  C170     1.0000 0.08205  0.99474  0.83209  Biso   1.000  C
  C171     1.0000 0.82581  0.06630  0.02993  Biso   1.000  C
  C172     1.0000 0.51608  0.79904  0.42901  Biso   1.000  C
  C173     1.0000 0.58314  0.98452  0.69867  Biso   1.000  C
  C174     1.0000 0.32809  0.06833  0.51459  Biso   1.000  C
  C175     1.0000 0.50353  0.29999  0.09991  Biso   1.000  C
  C176     1.0000 0.41982  0.47273  0.83234  Biso   1.000  C
  C177     1.0000 0.68485  0.56511  0.00475  Biso   1.000  C
  C178     1.0000 0.00364  0.30161  0.43598  Biso   1.000  C
  C179     1.0000 0.91537  0.50052  0.69056  Biso   1.000  C
  C180     1.0000 0.19040  0.56556  0.52413  Biso   1.000  C
  C181     1.0000 0.00683  0.16406  0.92906  Biso   1.000  C
  C182     1.0000 0.92763  0.98624  0.19780  Biso   1.000  C
  C183     1.0000 0.18800  0.89149  0.01335  Biso   1.000  C
  C184     1.0000 0.51861  0.16159  0.59996  Biso   1.000  C
  C185     1.0000 0.43216  0.99541  0.33326  Biso   1.000  C
  C186     1.0000 0.68625  0.89492  0.51475  Biso   1.000  C
  C187     1.0000 0.50019  0.66545  0.92439  Biso   1.000  C
  C188     1.0000 0.59127  0.48577  0.18907  Biso   1.000  C
  C189     1.0000 0.32103  0.39426  0.01280  Biso   1.000  C
  C190     1.0000 0.00295  0.66636  0.59126  Biso   1.000  C
  C191     1.0000 0.09383  0.47604  0.34250  Biso   1.000  C
  C192     1.0000 0.82005  0.39601  0.51609  Biso   1.000  C
  C193     1.0000 0.84497  0.98466  0.91949  Biso   1.000  C
  C194     1.0000 0.90143  0.83083  0.99581  Biso   1.000  C
  C195     1.0000 0.00739  0.88354  0.85793  Biso   1.000  C
  C196     1.0000 0.34503  0.98106  0.61006  Biso   1.000  C
  C197     1.0000 0.40386  0.83168  0.51334  Biso   1.000  C
  C198     1.0000 0.50075  0.88368  0.66921  Biso   1.000  C
  C199     1.0000 0.65778  0.49450  0.90616  Biso   1.000  C
  C200     1.0000 0.60790  0.32773  0.01522  Biso   1.000  C
  C201     1.0000 0.51313  0.37959  0.85659  Biso   1.000  C
  C202     1.0000 0.16276  0.48682  0.62151  Biso   1.000  C
  C203     1.0000 0.10792  0.33067  0.52719  Biso   1.000  C
  C204     1.0000 0.99214  0.38827  0.67301  Biso   1.000  C
  C205     1.0000 0.17231  0.96863  0.11594  Biso   1.000  C
  C206     1.0000 0.11710  0.13345  0.00913  Biso   1.000  C
  C207     1.0000 0.02267  0.08196  0.17127  Biso   1.000  C
  C208     1.0000 0.66786  0.99037  0.42032  Biso   1.000  C
  C209     1.0000 0.61016  0.13319  0.51594  Biso   1.000  C
  C210     1.0000 0.52118  0.08968  0.36250  Biso   1.000  C
  C211     1.0000 0.34914  0.48367  0.12001  Biso   1.000  C
  C212     1.0000 0.40321  0.63238  0.01997  Biso   1.000  C
  C213     1.0000 0.51357  0.58507  0.16353  Biso   1.000  C
  C214     1.0000 0.84614  0.46885  0.40603  Biso   1.000  C
  C215     1.0000 0.90433  0.63662  0.50469  Biso   1.000  C
  C216     1.0000 0.00468  0.58549  0.35819  Biso   1.000  C
  C217     1.0000 0.09884  0.98974  0.85785  Biso   1.000  C
  C218     1.0000 0.85293  0.08072  0.02606  Biso   1.000  C
  C219     1.0000 0.00063  0.83393  0.10995  Biso   1.000  C
  C220     1.0000 0.59987  0.98302  0.67305  Biso   1.000  C
  C221     1.0000 0.35548  0.08478  0.51162  Biso   1.000  C
  C222     1.0000 0.51407  0.82627  0.41357  Biso   1.000  C
  C223     1.0000 0.40300  0.47650  0.85915  Biso   1.000  C
  C224     1.0000 0.65727  0.58048  0.00621  Biso   1.000  C
  C225     1.0000 0.50208  0.32718  0.11527  Biso   1.000  C
  C226     1.0000 0.90180  0.49476  0.66263  Biso   1.000  C
  C227     1.0000 0.16299  0.58344  0.52225  Biso   1.000  C
  C228     1.0000 0.00572  0.32717  0.41796  Biso   1.000  C
  C229     1.0000 0.91213  0.98179  0.17059  Biso   1.000  C
  C230     1.0000 0.16120  0.87707  0.01497  Biso   1.000  C
  C231     1.0000 0.99914  0.13862  0.91244  Biso   1.000  C
  C232     1.0000 0.41607  0.99552  0.36088  Biso   1.000  C
  C233     1.0000 0.65902  0.87816  0.51604  Biso   1.000  C
  C234     1.0000 0.51471  0.13406  0.61530  Biso   1.000  C
  C235     1.0000 0.60712  0.48751  0.16098  Biso   1.000  C
  C236     1.0000 0.34855  0.38125  0.01421  Biso   1.000  C
  C237     1.0000 0.49553  0.63832  0.90988  Biso   1.000  C
  C238     1.0000 0.10984  0.47667  0.36945  Biso   1.000  C
  C239     1.0000 0.84713  0.38008  0.51654  Biso   1.000  C
  C240     1.0000 0.00534  0.63895  0.60557  Biso   1.000  C
  C241     1.0000 0.60785  0.50450  0.85727  Biso   1.000  C
  C242     1.0000 0.85307  0.58440  0.50098  Biso   1.000  C
  C243     1.0000 0.50191  0.83161  0.61558  Biso   1.000  C
  C244     1.0000 0.10773  0.48020  0.66758  Biso   1.000  C
  C245     1.0000 0.35095  0.58123  0.02419  Biso   1.000  C
  C246     1.0000 0.01490  0.82944  0.90605  Biso   1.000  C
  C247     1.0000 0.89506  0.97530  0.86578  Biso   1.000  C
  C248     1.0000 0.66083  0.08279  0.52104  Biso   1.000  C
  C249     1.0000 0.00148  0.33591  0.62409  Biso   1.000  C
  C250     1.0000 0.39545  0.97957  0.66382  Biso   1.000  C
  C251     1.0000 0.16588  0.08160  0.00984  Biso   1.000  C
  C252     1.0000 0.51426  0.32964  0.91057  Biso   1.000  C
  C253     1.0000 0.40219  0.48236  0.17234  Biso   1.000  C
  C254     1.0000 0.16144  0.38044  0.52924  Biso   1.000  C
  C255     1.0000 0.51293  0.14395  0.41264  Biso   1.000  C
  C256     1.0000 0.90335  0.48077  0.36016  Biso   1.000  C
  C257     1.0000 0.65994  0.37821  0.00532  Biso   1.000  C
  C258     1.0000 0.01875  0.13425  0.11905  Biso   1.000  C
  C259     1.0000 0.11798  0.96775  0.17020  Biso   1.000  C
  C260     1.0000 0.35328  0.88091  0.51285  Biso   1.000  C
  C261     1.0000 0.00432  0.63823  0.40439  Biso   1.000  C
  C262     1.0000 0.61862  0.98761  0.36889  Biso   1.000  C
  C263     1.0000 0.84612  0.87915  0.00676  Biso   1.000  C
  C264     1.0000 0.50725  0.63826  0.11448  Biso   1.000  C
  C265     1.0000 0.99303  0.08907  0.86226  Biso   1.000  C
  C266     1.0000 0.85773  0.97556  0.12552  Biso   1.000  C
  C267     1.0000 0.10789  0.82640  0.02127  Biso   1.000  C
  C268     1.0000 0.49579  0.08526  0.66685  Biso   1.000  C
  C269     1.0000 0.36291  0.98194  0.40875  Biso   1.000  C
  C270     1.0000 0.61068  0.82456  0.51738  Biso   1.000  C
  C271     1.0000 0.49250  0.58188  0.85842  Biso   1.000  C
  C272     1.0000 0.65742  0.48609  0.10864  Biso   1.000  C
  C273     1.0000 0.40668  0.33075  0.01168  Biso   1.000  C
  C274     1.0000 0.01641  0.59046  0.66033  Biso   1.000  C
  C275     1.0000 0.16189  0.46982  0.42042  Biso   1.000  C
  C276     1.0000 0.90097  0.32895  0.52396  Biso   1.000  C
  C277     1.0000 0.00560  0.88274  0.16504  Biso   1.000  C
  C278     1.0000 0.15247  0.97987  0.90914  Biso   1.000  C
  C279     1.0000 0.90745  0.13055  0.02107  Biso   1.000  C
  C280     1.0000 0.51887  0.88027  0.36340  Biso   1.000  C
  C281     1.0000 0.65668  0.97988  0.62275  Biso   1.000  C
  C282     1.0000 0.40804  0.13580  0.51289  Biso   1.000  C
  C283     1.0000 0.49467  0.38012  0.16657  Biso   1.000  C
  C284     1.0000 0.35056  0.48325  0.91445  Biso   1.000  C
  C285     1.0000 0.60674  0.63647  0.00611  Biso   1.000  C
  C286     1.0000 0.01337  0.37478  0.36473  Biso   1.000  C
  C287     1.0000 0.85199  0.48967  0.60826  Biso   1.000  C
  C288     1.0000 0.10737  0.63577  0.51548  Biso   1.000  C
  C289     1.0000 0.35165  0.85066  0.51621  Biso   1.000  C
  C290     1.0000 0.51169  0.32828  0.88020  Biso   1.000  C
  C291     1.0000 0.87142  0.47937  0.35459  Biso   1.000  C
  C292     1.0000 0.84693  0.84820  0.00419  Biso   1.000  C
  C293     1.0000 0.99710  0.33531  0.65459  Biso   1.000  C
  C294     1.0000 0.37140  0.48012  0.17231  Biso   1.000  C
  C295     1.0000 0.16034  0.34934  0.53158  Biso   1.000  C
  C296     1.0000 0.01242  0.83095  0.87537  Biso   1.000  C
  C297     1.0000 0.64988  0.98439  0.36796  Biso   1.000  C
  C298     1.0000 0.66062  0.34790  0.01085  Biso   1.000  C
  C299     1.0000 0.50122  0.83029  0.64686  Biso   1.000  C
  C300     1.0000 0.14920  0.96819  0.16886  Biso   1.000  C
  C301     1.0000 0.66227  0.11294  0.52268  Biso   1.000  C
  C302     1.0000 0.51236  0.63867  0.14518  Biso   1.000  C
  C303     1.0000 0.13910  0.47993  0.67239  Biso   1.000  C
  C304     1.0000 0.17030  0.11225  0.00713  Biso   1.000  C
  C305     1.0000 0.00360  0.63981  0.37274  Biso   1.000  C
  C306     1.0000 0.63854  0.50324  0.85481  Biso   1.000  C
  C307     1.0000 0.85051  0.61684  0.49976  Biso   1.000  C
  C308     1.0000 0.01828  0.13515  0.14984  Biso   1.000  C
  C309     1.0000 0.36349  0.98183  0.66208  Biso   1.000  C
  C310     1.0000 0.34999  0.61251  0.02247  Biso   1.000  C
  C311     1.0000 0.50997  0.14269  0.38177  Biso   1.000  C
  C312     1.0000 0.86459  0.97447  0.86607  Biso   1.000  C
  C313     1.0000 0.16286  0.46925  0.38860  Biso   1.000  C
  C314     1.0000 0.37613  0.13785  0.51145  Biso   1.000  C
  C315     1.0000 0.49652  0.34944  0.16710  Biso   1.000  C
  C316     1.0000 0.65947  0.48599  0.14088  Biso   1.000  C
  C317     1.0000 0.87587  0.13301  0.02283  Biso   1.000  C
  C318     1.0000 0.01014  0.34353  0.36470  Biso   1.000  C
  C319     1.0000 0.36213  0.98861  0.37879  Biso   1.000  C
  C320     1.0000 0.13939  0.63622  0.51832  Biso   1.000  C
  C321     1.0000 0.00308  0.85218  0.16524  Biso   1.000  C
  C322     1.0000 0.85668  0.97880  0.15603  Biso   1.000  C
  C323     1.0000 0.63809  0.63403  0.00586  Biso   1.000  C
  C324     1.0000 0.52397  0.84902  0.36357  Biso   1.000  C
  C325     1.0000 0.84951  0.48869  0.63982  Biso   1.000  C
  C326     1.0000 0.64286  0.82477  0.51358  Biso   1.000  C
  C327     1.0000 0.49189  0.61394  0.85760  Biso   1.000  C
  C328     1.0000 0.35124  0.48344  0.88244  Biso   1.000  C
  C329     1.0000 0.13836  0.82579  0.02258  Biso   1.000  C
  C330     1.0000 0.01570  0.62101  0.66017  Biso   1.000  C
  C331     1.0000 0.65393  0.98178  0.65467  Biso   1.000  C
  C332     1.0000 0.86972  0.32819  0.52558  Biso   1.000  C
  C333     1.0000 0.99552  0.12096  0.86022  Biso   1.000  C
  C334     1.0000 0.15211  0.98473  0.87777  Biso   1.000  C
  C335     1.0000 0.37575  0.32945  0.01007  Biso   1.000  C
  C336     1.0000 0.50145  0.11543  0.66700  Biso   1.000  C
  C337     1.0000 0.65998  0.49775  0.87570  Biso   1.000  C
  C338     1.0000 0.87307  0.63782  0.50162  Biso   1.000  C
  C339     1.0000 0.49968  0.85226  0.66912  Biso   1.000  C
  C340     1.0000 0.16332  0.48170  0.65258  Biso   1.000  C
  C341     1.0000 0.37192  0.63434  0.02204  Biso   1.000  C
  C342     1.0000 0.00969  0.85234  0.85518  Biso   1.000  C
  C343     1.0000 0.84429  0.97731  0.88881  Biso   1.000  C
  C344     1.0000 0.64085  0.13395  0.52109  Biso   1.000  C
  C345     1.0000 0.99313  0.35760  0.67560  Biso   1.000  C
  C346     1.0000 0.34187  0.98079  0.64095  Biso   1.000  C
  C347     1.0000 0.14893  0.13354  0.00651  Biso   1.000  C
  C348     1.0000 0.51175  0.34847  0.85777  Biso   1.000  C
  C349     1.0000 0.34941  0.47982  0.15088  Biso   1.000  C
  C350     1.0000 0.13937  0.32826  0.52848  Biso   1.000  C
  C351     1.0000 0.51302  0.12083  0.36121  Biso   1.000  C
  C352     1.0000 0.84831  0.47479  0.37414  Biso   1.000  C
  C353     1.0000 0.63913  0.32682  0.01550  Biso   1.000  C
  C354     1.0000 0.02074  0.11356  0.17083  Biso   1.000  C
  C355     1.0000 0.17166  0.96902  0.14700  Biso   1.000  C
  C356     1.0000 0.37247  0.82866  0.51498  Biso   1.000  C
  C357     1.0000 0.00202  0.61671  0.35325  Biso   1.000  C
  C358     1.0000 0.67144  0.98738  0.38977  Biso   1.000  C
  C359     1.0000 0.86947  0.82916  0.99933  Biso   1.000  C
  C360     1.0000 0.51621  0.61591  0.16539  Biso   1.000  C
  C361     1.0000 0.99939  0.14064  0.88191  Biso   1.000  C
  C362     1.0000 0.88003  0.98007  0.17461  Biso   1.000  C
  C363     1.0000 0.16149  0.84578  0.01971  Biso   1.000  C
  C364     1.0000 0.51088  0.13572  0.64662  Biso   1.000  C
  C365     1.0000 0.38416  0.99357  0.35775  Biso   1.000  C
  C366     1.0000 0.66257  0.84717  0.51177  Biso   1.000  C
  C367     1.0000 0.49404  0.63615  0.87844  Biso   1.000  C
  C368     1.0000 0.63788  0.48719  0.16220  Biso   1.000  C
  C369     1.0000 0.35262  0.35097  0.00987  Biso   1.000  C
  C370     1.0000 0.01139  0.64103  0.63757  Biso   1.000  C
  C371     1.0000 0.14181  0.47353  0.36744  Biso   1.000  C
  C372     1.0000 0.84697  0.34972  0.52145  Biso   1.000  C
  C373     1.0000 0.00246  0.83188  0.14213  Biso   1.000  C
  C374     1.0000 0.13027  0.98874  0.85667  Biso   1.000  C
  C375     1.0000 0.85324  0.11268  0.02391  Biso   1.000  C
  C376     1.0000 0.52269  0.82625  0.38418  Biso   1.000  C
  C377     1.0000 0.63196  0.98213  0.67559  Biso   1.000  C
  C378     1.0000 0.35438  0.11679  0.51079  Biso   1.000  C
  C379     1.0000 0.49931  0.32729  0.14631  Biso   1.000  C
  C380     1.0000 0.37255  0.48036  0.85950  Biso   1.000  C
  C381     1.0000 0.65922  0.61108  0.00690  Biso   1.000  C
  C382     1.0000 0.00689  0.32314  0.38691  Biso   1.000  C
  C383     1.0000 0.87013  0.49382  0.66175  Biso   1.000  C
  C384     1.0000 0.16182  0.61523  0.52057  Biso   1.000  C
  C385     1.0000 0.19667  0.12827  0.00366  Biso   1.000  C
  C386     1.0000 0.01555  0.16210  0.16531  Biso   1.000  C
  C387     1.0000 0.16456  0.96857  0.19567  Biso   1.000  C
  C388     1.0000 0.68923  0.12824  0.52858  Biso   1.000  C
  C389     1.0000 0.50354  0.16851  0.36434  Biso   1.000  C
  C390     1.0000 0.66448  0.98001  0.34149  Biso   1.000  C
  C391     1.0000 0.32329  0.62901  0.02249  Biso   1.000  C
  C392     1.0000 0.51694  0.66496  0.16167  Biso   1.000  C
  C393     1.0000 0.35679  0.47547  0.19867  Biso   1.000  C
  C394     1.0000 0.82390  0.63126  0.49811  Biso   1.000  C
  C395     1.0000 0.00460  0.66518  0.35525  Biso   1.000  C
  C396     1.0000 0.85811  0.48283  0.32582  Biso   1.000  C
  C397     1.0000 0.82184  0.83062  0.00546  Biso   1.000  C
  C398     1.0000 0.01517  0.80450  0.85788  Biso   1.000  C
  C399     1.0000 0.84850  0.96889  0.83973  Biso   1.000  C
  C400     1.0000 0.32421  0.83498  0.51771  Biso   1.000  C
  C401     1.0000 0.50149  0.80425  0.66385  Biso   1.000  C
  C402     1.0000 0.34832  0.98372  0.68991  Biso   1.000  C
  C403     1.0000 0.68720  0.33249  0.01581  Biso   1.000  C
  C404     1.0000 0.50897  0.30146  0.86484  Biso   1.000  C
  C405     1.0000 0.65415  0.50678  0.82828  Biso   1.000  C
  C406     1.0000 0.18591  0.33182  0.53365  Biso   1.000  C
  C407     1.0000 0.99719  0.30863  0.67051  Biso   1.000  C
  C408     1.0000 0.15275  0.47807  0.69975  Biso   1.000  C
  C409     1.0000 0.14616  0.99006  0.83013  Biso   1.000  C
  C410     1.0000 0.82729  0.13020  0.02597  Biso   1.000  C
  C411     1.0000 0.00454  0.80430  0.15564  Biso   1.000  C
  C412     1.0000 0.64628  0.98362  0.70276  Biso   1.000  C
  C413     1.0000 0.32714  0.13220  0.51342  Biso   1.000  C
  C414     1.0000 0.52704  0.80076  0.36916  Biso   1.000  C
  C415     1.0000 0.35584  0.48226  0.83294  Biso   1.000  C
  C416     1.0000 0.68633  0.62557  0.00858  Biso   1.000  C
  C417     1.0000 0.49881  0.30109  0.16279  Biso   1.000  C
  C418     1.0000 0.85204  0.49738  0.68710  Biso   1.000  C
  C419     1.0000 0.18764  0.63055  0.52107  Biso   1.000  C
  C420     1.0000 0.00628  0.29574  0.37323  Biso   1.000  C
  C421     1.0000 0.86690  0.97996  0.20252  Biso   1.000  C
  C422     1.0000 0.18695  0.82888  0.02337  Biso   1.000  C
  C423     1.0000 0.00248  0.16867  0.86667  Biso   1.000  C
  C424     1.0000 0.36943  0.99440  0.33026  Biso   1.000  C
  C425     1.0000 0.69124  0.83384  0.50675  Biso   1.000  C
  C426     1.0000 0.51353  0.16235  0.66218  Biso   1.000  C
  C427     1.0000 0.65453  0.48548  0.18842  Biso   1.000  C
  C428     1.0000 0.32680  0.33309  0.00615  Biso   1.000  C
  C429     1.0000 0.49501  0.66186  0.86169  Biso   1.000  C
  C430     1.0000 0.15677  0.47221  0.34083  Biso   1.000  C
  C431     1.0000 0.82017  0.33325  0.52538  Biso   1.000  C
  C432     1.0000 0.01396  0.66843  0.65254  Biso   1.000  C
  C433     1.0000 0.99535  0.13672  0.83276  Biso   1.000  C
  C434     1.0000 0.83107  0.97947  0.17309  Biso   1.000  C
  C435     1.0000 0.15195  0.79847  0.02925  Biso   1.000  C
  C436     1.0000 0.50063  0.13203  0.69277  Biso   1.000  C
  C437     1.0000 0.33686  0.98677  0.36139  Biso   1.000  C
  C438     1.0000 0.66014  0.79916  0.51161  Biso   1.000  C
  C439     1.0000 0.49012  0.62879  0.83097  Biso   1.000  C
  C440     1.0000 0.68697  0.48711  0.15612  Biso   1.000  C
  C441     1.0000 0.36159  0.30188  0.00414  Biso   1.000  C
  C442     1.0000 0.01995  0.63711  0.68529  Biso   1.000  C
  C443     1.0000 0.19064  0.46746  0.37249  Biso   1.000  C
  C444     1.0000 0.85328  0.30198  0.53037  Biso   1.000  C
  C445     1.0000 0.00434  0.83486  0.19096  Biso   1.000  C
  C446     1.0000 0.17809  0.98454  0.86021  Biso   1.000  C
  C447     1.0000 0.86115  0.16107  0.02457  Biso   1.000  C
  C448     1.0000 0.53080  0.83340  0.33691  Biso   1.000  C
  C449     1.0000 0.68102  0.98282  0.67163  Biso   1.000  C
  C450     1.0000 0.36046  0.16510  0.51260  Biso   1.000  C
  C451     1.0000 0.49721  0.33503  0.19517  Biso   1.000  C
  C452     1.0000 0.32428  0.48612  0.86724  Biso   1.000  C
  C453     1.0000 0.65509  0.66010  0.00433  Biso   1.000  C
  C454     1.0000 0.01156  0.32648  0.33884  Biso   1.000  C
  C455     1.0000 0.82167  0.49019  0.65406  Biso   1.000  C
  C456     1.0000 0.15468  0.66323  0.51704  Biso   1.000  C
  C457     1.0000 0.00012  0.63042  0.32519  Biso   1.000  C
  C458     1.0000 0.31528  0.98125  0.65626  Biso   1.000  C
  C459     1.0000 0.65480  0.30031  0.02002  Biso   1.000  C
  C460     1.0000 0.52271  0.63084  0.19202  Biso   1.000  C
  C461     1.0000 0.81669  0.97206  0.87476  Biso   1.000  C
  C462     1.0000 0.15348  0.30043  0.52915  Biso   1.000  C
  C463     1.0000 0.50639  0.13388  0.33420  Biso   1.000  C
  C464     1.0000 0.18895  0.47979  0.66895  Biso   1.000  C
  C465     1.0000 0.85671  0.80123  0.99936  Biso   1.000  C
  C466     1.0000 0.01846  0.13040  0.19792  Biso   1.000  C
  C467     1.0000 0.68750  0.49814  0.85969  Biso   1.000  C
  C468     1.0000 0.35713  0.80122  0.51557  Biso   1.000  C
  C469     1.0000 0.99270  0.34246  0.70291  Biso   1.000  C
  C470     1.0000 0.69778  0.98545  0.37428  Biso   1.000  C
  C471     1.0000 0.35547  0.66084  0.02519  Biso   1.000  C
  C472     1.0000 0.50935  0.33212  0.83095  Biso   1.000  C
  C473     1.0000 0.19845  0.97258  0.16280  Biso   1.000  C
  C474     1.0000 0.85767  0.66437  0.49964  Biso   1.000  C
  C475     1.0000 0.49821  0.83716  0.69522  Biso   1.000  C
  C476     1.0000 0.82233  0.47719  0.35742  Biso   1.000  C
  C477     1.0000 0.16368  0.16067  0.00169  Biso   1.000  C
  C478     1.0000 0.00961  0.83803  0.82713  Biso   1.000  C
  C479     1.0000 0.32249  0.47687  0.16654  Biso   1.000  C
  C480     1.0000 0.65687  0.15968  0.52732  Biso   1.000  C
  C481     1.0000 0.37540  0.77482  0.51374  Biso   1.000  C
  C482     1.0000 0.51123  0.34589  0.80284  Biso   1.000  C
  C483     1.0000 0.79404  0.47493  0.37281  Biso   1.000  C
  C484     1.0000 0.87420  0.77617  0.99191  Biso   1.000  C
  C485     1.0000 0.99206  0.35888  0.72919  Biso   1.000  C
  C486     1.0000 0.29562  0.47430  0.15205  Biso   1.000  C
  C487     1.0000 0.13493  0.27398  0.52735  Biso   1.000  C
  C488     1.0000 0.00765  0.85594  0.80175  Biso   1.000  C
  C489     1.0000 0.72463  0.98626  0.38923  Biso   1.000  C
  C490     1.0000 0.63917  0.27283  0.02627  Biso   1.000  C
  C491     1.0000 0.49488  0.85182  0.72321  Biso   1.000  C
  C492     1.0000 0.22798  0.97419  0.14637  Biso   1.000  C
  C493     1.0000 0.63987  0.18638  0.53247  Biso   1.000  C
  C494     1.0000 0.53103  0.61268  0.21665  Biso   1.000  C
  C495     1.0000 0.21787  0.48212  0.65308  Biso   1.000  C
  C496     1.0000 0.14378  0.18626  0.99914  Biso   1.000  C
  C497     1.0000 0.99640  0.61143  0.30024  Biso   1.000  C
  C498     1.0000 0.71393  0.49394  0.87573  Biso   1.000  C
  C499     1.0000 0.87312  0.69142  0.50087  Biso   1.000  C
  C500     1.0000 0.01557  0.11426  0.22540  Biso   1.000  C
  C501     1.0000 0.28856  0.97726  0.63926  Biso   1.000  C
  C502     1.0000 0.37371  0.68722  0.02801  Biso   1.000  C
  C503     1.0000 0.50582  0.11635  0.30811  Biso   1.000  C
  C504     1.0000 0.79011  0.97518  0.89126  Biso   1.000  C
  C505     1.0000 0.63746  0.50641  0.80089  Biso   1.000  C
  C506     1.0000 0.79787  0.61500  0.49524  Biso   1.000  C
  C507     1.0000 0.50376  0.77518  0.64980  Biso   1.000  C
  C508     1.0000 0.13415  0.47360  0.72618  Biso   1.000  C
  C509     1.0000 0.29496  0.61399  0.02283  Biso   1.000  C
  C510     1.0000 0.01412  0.77715  0.87185  Biso   1.000  C
  C511     1.0000 0.86348  0.96774  0.81197  Biso   1.000  C
  C512     1.0000 0.71746  0.11180  0.53173  Biso   1.000  C
  C513     1.0000 0.99942  0.28174  0.65382  Biso   1.000  C
  C514     1.0000 0.36294  0.98663  0.71662  Biso   1.000  C
  C515     1.0000 0.22318  0.10855  0.00235  Biso   1.000  C
  C516     1.0000 0.50603  0.27425  0.88039  Biso   1.000  C
  C517     1.0000 0.37214  0.47107  0.22699  Biso   1.000  C
  C518     1.0000 0.21408  0.34568  0.53750  Biso   1.000  C
  C519     1.0000 0.50054  0.19665  0.37973  Biso   1.000  C
  C520     1.0000 0.87685  0.48796  0.30199  Biso   1.000  C
  C521     1.0000 0.71553  0.34547  0.01507  Biso   1.000  C
  C522     1.0000 0.01328  0.19010  0.14896  Biso   1.000  C
  C523     1.0000 0.15089  0.96453  0.22305  Biso   1.000  C
  C524     1.0000 0.29728  0.85164  0.51545  Biso   1.000  C
  C525     1.0000 0.00400  0.69176  0.37085  Biso   1.000  C
  C526     1.0000 0.65010  0.97626  0.31441  Biso   1.000  C
  C527     1.0000 0.79322  0.84448  0.00964  Biso   1.000  C
  C528     1.0000 0.51306  0.69227  0.14540  Biso   1.000  C
  C529     1.0000 0.79947  0.11478  0.03025  Biso   1.000  C
  C530     1.0000 0.00652  0.77756  0.13842  Biso   1.000  C
  C531     1.0000 0.13073  0.99629  0.80351  Biso   1.000  C
  C532     1.0000 0.30168  0.11678  0.51743  Biso   1.000  C
  C533     1.0000 0.52894  0.77360  0.38358  Biso   1.000  C
  C534     1.0000 0.62839  0.98448  0.72800  Biso   1.000  C
  C535     1.0000 0.71423  0.61101  0.00914  Biso   1.000  C
  C536     1.0000 0.50062  0.27247  0.14796  Biso   1.000  C
  C537     1.0000 0.37150  0.47790  0.80496  Biso   1.000  C
  C538     1.0000 0.21500  0.61500  0.52415  Biso   1.000  C
  C539     1.0000 0.99944  0.27129  0.38992  Biso   1.000  C
  C540     1.0000 0.86595  0.50474  0.71506  Biso   1.000  C
  C541     1.0000 0.21425  0.84224  0.02026  Biso   1.000  C
  C542     1.0000 0.00906  0.19466  0.88443  Biso   1.000  C
  C543     1.0000 0.88348  0.98042  0.22929  Biso   1.000  C
  C544     1.0000 0.71808  0.85026  0.50364  Biso   1.000  C
  C545     1.0000 0.51641  0.19040  0.64653  Biso   1.000  C
  C546     1.0000 0.38691  0.99789  0.30273  Biso   1.000  C
  C547     1.0000 0.29598  0.34528  0.00699  Biso   1.000  C
  C548     1.0000 0.49951  0.69012  0.87564  Biso   1.000  C
  C549     1.0000 0.63970  0.48367  0.21594  Biso   1.000  C
  C550     1.0000 0.79307  0.34828  0.52177  Biso   1.000  C
  C551     1.0000 0.01258  0.69545  0.63559  Biso   1.000  C
  C552     1.0000 0.14102  0.47318  0.31227  Biso   1.000  C
  C553     1.0000 0.99208  0.11901  0.80631  Biso   1.000  C
  C554     1.0000 0.80243  0.97751  0.16114  Biso   1.000  C
  C555     1.0000 0.13485  0.77238  0.03365  Biso   1.000  C
  C556     1.0000 0.49409  0.11905  0.72019  Biso   1.000  C
  C557     1.0000 0.30862  0.98163  0.37524  Biso   1.000  C
  C558     1.0000 0.64493  0.77133  0.51316  Biso   1.000  C
  C559     1.0000 0.48366  0.61170  0.80288  Biso   1.000  C
  C560     1.0000 0.71256  0.48420  0.13964  Biso   1.000  C
  C561     1.0000 0.37733  0.27363  0.00128  Biso   1.000  C
  C562     1.0000 0.02173  0.62248  0.71325  Biso   1.000  C
  C563     1.0000 0.21694  0.46438  0.38929  Biso   1.000  C
  C564     1.0000 0.86937  0.27534  0.53547  Biso   1.000  C
  C565     1.0000 0.00210  0.84923  0.21992  Biso   1.000  C
  C566     1.0000 0.20569  0.97816  0.87662  Biso   1.000  C
  C567     1.0000 0.87852  0.18749  0.02150  Biso   1.000  C
  C568     1.0000 0.53048  0.84950  0.30900  Biso   1.000  C
  C569     1.0000 0.70965  0.98650  0.65597  Biso   1.000  C
  C570     1.0000 0.37652  0.19199  0.51320  Biso   1.000  C
  C571     1.0000 0.49788  0.35209  0.22116  Biso   1.000  C
  C572     1.0000 0.29649  0.49052  0.88200  Biso   1.000  C
  C573     1.0000 0.64187  0.68847  0.00099  Biso   1.000  C
  C574     1.0000 0.01828  0.34318  0.31273  Biso   1.000  C
  C575     1.0000 0.79543  0.48686  0.63657  Biso   1.000  C
  C576     1.0000 0.13907  0.69013  0.51151  Biso   1.000  C
  C577     1.0000 0.29622  0.47413  0.12012  Biso   1.000  C
  C578     1.0000 0.10337  0.27578  0.52417  Biso   1.000  C
  C579     1.0000 0.51035  0.08532  0.31038  Biso   1.000  C
  C580     1.0000 0.79166  0.47337  0.40398  Biso   1.000  C
  C581     1.0000 0.60682  0.27443  0.02628  Biso   1.000  C
  C582     1.0000 0.01687  0.08314  0.22470  Biso   1.000  C
  C583     1.0000 0.22795  0.97751  0.11367  Biso   1.000  C
  C584     1.0000 0.40693  0.77762  0.51547  Biso   1.000  C
  C585     1.0000 0.99927  0.57987  0.30264  Biso   1.000  C
  C586     1.0000 0.72394  0.99197  0.42055  Biso   1.000  C
  C587     1.0000 0.90637  0.77807  0.98968  Biso   1.000  C
  C588     1.0000 0.52963  0.58234  0.21534  Biso   1.000  C
  C589     1.0000 0.71310  0.48813  0.90764  Biso   1.000  C
  C590     1.0000 0.90400  0.69086  0.50580  Biso   1.000  C
  C591     1.0000 0.49446  0.88391  0.72347  Biso   1.000  C
  C592     1.0000 0.21767  0.48301  0.62147  Biso   1.000  C
  C593     1.0000 0.40508  0.68518  0.02282  Biso   1.000  C
  C594     1.0000 0.00445  0.88672  0.80344  Biso   1.000  C
  C595     1.0000 0.79156  0.98198  0.92115  Biso   1.000  C
  C596     1.0000 0.60874  0.18546  0.52619  Biso   1.000  C
  C597     1.0000 0.99164  0.38997  0.72824  Biso   1.000  C
  C598     1.0000 0.28988  0.97679  0.60884  Biso   1.000  C
  C599     1.0000 0.11287  0.18587  0.99913  Biso   1.000  C
  C600     1.0000 0.51127  0.37641  0.80176  Biso   1.000  C
  C601     1.0000 0.20601  0.97410  0.90765  Biso   1.000  C
  C602     1.0000 0.90943  0.18501  0.01929  Biso   1.000  C
  C603     1.0000 0.00269  0.87953  0.21998  Biso   1.000  C
  C604     1.0000 0.71104  0.98541  0.62509  Biso   1.000  C
  C605     1.0000 0.40780  0.18990  0.51156  Biso   1.000  C
  C606     1.0000 0.52502  0.88052  0.31014  Biso   1.000  C
  C607     1.0000 0.29518  0.49256  0.91423  Biso   1.000  C
  C608     1.0000 0.60989  0.69151  0.00257  Biso   1.000  C
  C609     1.0000 0.49601  0.38466  0.22032  Biso   1.000  C
  C610     1.0000 0.79856  0.48327  0.60559  Biso   1.000  C
  C611     1.0000 0.10783  0.69057  0.50841  Biso   1.000  C
  C612     1.0000 0.01813  0.37530  0.31167  Biso   1.000  C
  C613     1.0000 0.80067  0.97267  0.12947  Biso   1.000  C
  C614     1.0000 0.10239  0.77285  0.02988  Biso   1.000  C
  C615     1.0000 0.98820  0.08667  0.80880  Biso   1.000  C
  C616     1.0000 0.30652  0.98131  0.40595  Biso   1.000  C
  C617     1.0000 0.61374  0.77074  0.51584  Biso   1.000  C
  C618     1.0000 0.48808  0.08836  0.72118  Biso   1.000  C
  C619     1.0000 0.71290  0.48335  0.10865  Biso   1.000  C
  C620     1.0000 0.40875  0.27524  0.00461  Biso   1.000  C
  C621     1.0000 0.48590  0.57980  0.80360  Biso   1.000  C
  C622     1.0000 0.21702  0.46532  0.42075  Biso   1.000  C
  C623     1.0000 0.90087  0.27476  0.52914  Biso   1.000  C
  C624     1.0000 0.01991  0.59032  0.71448  Biso   1.000  C
  C625     1.0000 0.01077  0.19159  0.91455  Biso   1.000  C
  C626     1.0000 0.91465  0.98370  0.22660  Biso   1.000  C
  C627     1.0000 0.21444  0.87377  0.01468  Biso   1.000  C
  C628     1.0000 0.51885  0.18960  0.61533  Biso   1.000  C
  C629     1.0000 0.41798  0.99707  0.30558  Biso   1.000  C
  C630     1.0000 0.71466  0.88102  0.50786  Biso   1.000  C
  C631     1.0000 0.49997  0.69177  0.90703  Biso   1.000  C
  C632     1.0000 0.60787  0.48412  0.21667  Biso   1.000  C
  C633     1.0000 0.29409  0.37693  0.00982  Biso   1.000  C
  C634     1.0000 0.00469  0.69441  0.60555  Biso   1.000  C
  C635     1.0000 0.10902  0.47404  0.31526  Biso   1.000  C
  C636     1.0000 0.79343  0.37993  0.51660  Biso   1.000  C
  C637     1.0000 0.00399  0.77879  0.10754  Biso   1.000  C
  C638     1.0000 0.09933  0.99703  0.80444  Biso   1.000  C
  C639     1.0000 0.79987  0.08359  0.03361  Biso   1.000  C
  C640     1.0000 0.52425  0.77309  0.41416  Biso   1.000  C
  C641     1.0000 0.59624  0.98378  0.72611  Biso   1.000  C
  C642     1.0000 0.30277  0.08601  0.51850  Biso   1.000  C
  C643     1.0000 0.50389  0.27219  0.11586  Biso   1.000  C
  C644     1.0000 0.40311  0.47433  0.80520  Biso   1.000  C
  C645     1.0000 0.71402  0.57968  0.00669  Biso   1.000  C
  C646     1.0000 0.99746  0.27509  0.42137  Biso   1.000  C
  C647     1.0000 0.89748  0.50618  0.71649  Biso   1.000  C
  C648     1.0000 0.21715  0.58240  0.52491  Biso   1.000  C
  C649     1.0000 0.00193  0.69426  0.40303  Biso   1.000  C
  C650     1.0000 0.39429  0.98904  0.71776  Biso   1.000  C
  C651     1.0000 0.71617  0.37767  0.01349  Biso   1.000  C
  C652     1.0000 0.51155  0.69377  0.11397  Biso   1.000  C
  C653     1.0000 0.89439  0.96904  0.81345  Biso   1.000  C
  C654     1.0000 0.21587  0.37724  0.53614  Biso   1.000  C
  C655     1.0000 0.50535  0.19912  0.41200  Biso   1.000  C
  C656     1.0000 0.10246  0.47190  0.72138  Biso   1.000  C
  C657     1.0000 0.79229  0.87681  0.01211  Biso   1.000  C
  C658     1.0000 0.01136  0.18837  0.11668  Biso   1.000  C
  C659     1.0000 0.60586  0.50604  0.80324  Biso   1.000  C
  C660     1.0000 0.29851  0.88343  0.51304  Biso   1.000  C
  C661     1.0000 0.00167  0.28242  0.62230  Biso   1.000  C
  C662     1.0000 0.61885  0.97410  0.31583  Biso   1.000  C
  C663     1.0000 0.29628  0.58184  0.02463  Biso   1.000  C
  C664     1.0000 0.50305  0.27565  0.91166  Biso   1.000  C
  C665     1.0000 0.11954  0.96572  0.22588  Biso   1.000  C
  C666     1.0000 0.79905  0.58368  0.49697  Biso   1.000  C
  C667     1.0000 0.50480  0.77668  0.61820  Biso   1.000  C
  C668     1.0000 0.90768  0.48763  0.30691  Biso   1.000  C
  C669     1.0000 0.21945  0.07716  0.00809  Biso   1.000  C
  C670     1.0000 0.01035  0.77497  0.90297  Biso   1.000  C
  C671     1.0000 0.40282  0.47215  0.22504  Biso   1.000  C
  C672     1.0000 0.71624  0.08103  0.52879  Biso   1.000  C
  C673     1.0000 0.19336  0.98695  0.81442  Biso   1.000  C
  C674     1.0000 0.81484  0.17730  0.02354  Biso   1.000  C
  C675     1.0000 0.00187  0.78741  0.20178  Biso   1.000  C
  C676     1.0000 0.69219  0.98320  0.71825  Biso   1.000  C
  C677     1.0000 0.31297  0.17746  0.51555  Biso   1.000  C
  C678     1.0000 0.53009  0.78650  0.32048  Biso   1.000  C
  C679     1.0000 0.30768  0.48243  0.82051  Biso   1.000  C
  C680     1.0000 0.70262  0.67212  0.00647  Biso   1.000  C
  C681     1.0000 0.49833  0.29006  0.21073  Biso   1.000  C
  C682     1.0000 0.80640  0.49462  0.70092  Biso   1.000  C
  C683     1.0000 0.20174  0.67706  0.51844  Biso   1.000  C
  C684     1.0000 0.00657  0.28000  0.32659  Biso   1.000  C
  C685     1.0000 0.81997  0.97832  0.22063  Biso   1.000  C
  C686     1.0000 0.19838  0.78382  0.03265  Biso   1.000  C
  C687     1.0000 0.99885  0.18549  0.82323  Biso   1.000  C
  C688     1.0000 0.32302  0.98852  0.31605  Biso   1.000  C
  C689     1.0000 0.70593  0.78775  0.50052  Biso   1.000  C
  C690     1.0000 0.50824  0.17663  0.71015  Biso   1.000  C
  C691     1.0000 0.70228  0.48780  0.20204  Biso   1.000  C
  C692     1.0000 0.31783  0.28568  0.99723  Biso   1.000  C
  C693     1.0000 0.48853  0.67651  0.81696  Biso   1.000  C
  C694     1.0000 0.20232  0.47076  0.32557  Biso   1.000  C
  C695     1.0000 0.80707  0.28777  0.53065  Biso   1.000  C
  C696     1.0000 0.01696  0.68395  0.69839  Biso   1.000  C
  C697     1.0000 0.71123  0.98123  0.32862  Biso   1.000  C
  C698     1.0000 0.30782  0.67536  0.03091  Biso   1.000  C
  C699     1.0000 0.99681  0.29588  0.71691  Biso   1.000  C
  C700     1.0000 0.21211  0.97519  0.20894  Biso   1.000  C
  C701     1.0000 0.80975  0.67718  0.49657  Biso   1.000  C
  C702     1.0000 0.50590  0.28495  0.81994  Biso   1.000  C
  C703     1.0000 0.81239  0.48018  0.31010  Biso   1.000  C
  C704     1.0000 0.21031  0.17468  0.99837  Biso   1.000  C
  C705     1.0000 0.49521  0.79003  0.71083  Biso   1.000  C
  C706     1.0000 0.31038  0.47176  0.21475  Biso   1.000  C
  C707     1.0000 0.70224  0.17507  0.53460  Biso   1.000  C
  C708     1.0000 0.01501  0.79145  0.81082  Biso   1.000  C
  C709     1.0000 0.29960  0.98451  0.70239  Biso   1.000  C
  C710     1.0000 0.70219  0.28641  0.02373  Biso   1.000  C
  C711     1.0000 0.00151  0.67742  0.30850  Biso   1.000  C
  C712     1.0000 0.80209  0.96918  0.82826  Biso   1.000  C
  C713     1.0000 0.19992  0.28385  0.52885  Biso   1.000  C
  C714     1.0000 0.52482  0.67811  0.20912  Biso   1.000  C
  C715     1.0000 0.20028  0.47514  0.71457  Biso   1.000  C
  C716     1.0000 0.81144  0.78289  0.00327  Biso   1.000  C
  C717     1.0000 0.49693  0.17836  0.31799  Biso   1.000  C
  C718     1.0000 0.69965  0.50623  0.81376  Biso   1.000  C
  C719     1.0000 0.31216  0.78593  0.51720  Biso   1.000  C
  C720     1.0000 0.01515  0.17582  0.21194  Biso   1.000  C
  C721     1.0000 0.54996  0.78823  0.29504  Biso   1.000  C
  C722     1.0000 0.31227  0.49763  0.79240  Biso   1.000  C
  C723     1.0000 0.77846  0.29279  0.54626  Biso   1.000  C
  C724     1.0000 0.98591  0.76095  0.19759  Biso   1.000  C
  C725     1.0000 0.77709  0.50481  0.69558  Biso   1.000  C
  C726     1.0000 0.29625  0.28701  0.97486  Biso   1.000  C
  C727     1.0000 0.99758  0.28654  0.29712  Biso   1.000  C
  C728     1.0000 0.22294  0.99725  0.81778  Biso   1.000  C
  C729     1.0000 0.73616  0.78836  0.51100  Biso   1.000  C
  C730     1.0000 0.47909  0.29296  0.23508  Biso   1.000  C
  C731     1.0000 0.72087  0.97074  0.71330  Biso   1.000  C
  C732     1.0000 0.22156  0.78173  0.01028  Biso   1.000  C
  C733     1.0000 0.48409  0.17892  0.73200  Biso   1.000  C
  C734     1.0000 0.70219  0.47030  0.22737  Biso   1.000  C
  C735     1.0000 0.19900  0.70697  0.53143  Biso   1.000  C
  C736     1.0000 0.98856  0.21380  0.83040  Biso   1.000  C
  C737     1.0000 0.22852  0.45432  0.32601  Biso   1.000  C
  C738     1.0000 0.72842  0.67022  0.02446  Biso   1.000  C
  C739     1.0000 0.03676  0.68239  0.72257  Biso   1.000  C
  C740     1.0000 0.79603  0.95803  0.21844  Biso   1.000  C
  C741     1.0000 0.28568  0.17422  0.50257  Biso   1.000  C
  C742     1.0000 0.50004  0.67224  0.78780  Biso   1.000  C
  C743     1.0000 0.30121  0.96562  0.31452  Biso   1.000  C
  C744     1.0000 0.81872  0.20547  0.03849  Biso   1.000  C
  C745     1.0000 0.02227  0.69932  0.30555  Biso   1.000  C
  C746     1.0000 0.27234  0.99978  0.69764  Biso   1.000  C
  C747     1.0000 0.72871  0.29170  0.03899  Biso   1.000  C
  C748     1.0000 0.53522  0.70611  0.20315  Biso   1.000  C
  C749     1.0000 0.77325  0.95542  0.82975  Biso   1.000  C
  C750     1.0000 0.22144  0.28034  0.55105  Biso   1.000  C
  C751     1.0000 0.51587  0.17785  0.29228  Biso   1.000  C
  C752     1.0000 0.22771  0.46034  0.70749  Biso   1.000  C
  C753     1.0000 0.78400  0.78712  0.98974  Biso   1.000  C
  C754     1.0000 0.03263  0.17441  0.23804  Biso   1.000  C
  C755     1.0000 0.69649  0.52634  0.78821  Biso   1.000  C
  C756     1.0000 0.28352  0.78921  0.50210  Biso   1.000  C
  C757     1.0000 0.98328  0.26696  0.71306  Biso   1.000  C
  C758     1.0000 0.70905  0.99867  0.30231  Biso   1.000  C
  C759     1.0000 0.27892  0.67151  0.04474  Biso   1.000  C
  C760     1.0000 0.52664  0.26033  0.82227  Biso   1.000  C
  C761     1.0000 0.23465  0.99899  0.20667  Biso   1.000  C
  C762     1.0000 0.81632  0.70415  0.47897  Biso   1.000  C
  C763     1.0000 0.47467  0.79205  0.73590  Biso   1.000  C
  C764     1.0000 0.79234  0.45771  0.30418  Biso   1.000  C
  C765     1.0000 0.23975  0.17107  0.01016  Biso   1.000  C
  C766     1.0000 0.99653  0.79489  0.78570  Biso   1.000  C
  C767     1.0000 0.31157  0.48904  0.24122  Biso   1.000  C
  C768     1.0000 0.69718  0.20354  0.51861  Biso   1.000  C
  C769     1.0000 0.47299  0.70411  0.82123  Biso   1.000  C
  C770     1.0000 0.81207  0.48748  0.73156  Biso   1.000  C
  C771     1.0000 0.69807  0.76194  0.48503  Biso   1.000  C
  C772     1.0000 0.99799  0.70829  0.69700  Biso   1.000  C
  C773     1.0000 0.27979  0.46682  0.82453  Biso   1.000  C
  C774     1.0000 0.19673  0.76204  0.05447  Biso   1.000  C
  C775     1.0000 0.01032  0.18173  0.79337  Biso   1.000  C
  C776     1.0000 0.68800  0.99440  0.74774  Biso   1.000  C
  C777     1.0000 0.81043  0.25866  0.51640  Biso   1.000  C
  C778     1.0000 0.53080  0.19948  0.71175  Biso   1.000  C
  C779     1.0000 0.18549  0.97546  0.78560  Biso   1.000  C
  C780     1.0000 0.31651  0.26237  0.01700  Biso   1.000  C
  C781     1.0000 0.51710  0.26535  0.21063  Biso   1.000  C
  C782     1.0000 0.19966  0.48681  0.29977  Biso   1.000  C
  C783     1.0000 0.31657  0.20273  0.53420  Biso   1.000  C
  C784     1.0000 0.01414  0.24913  0.33108  Biso   1.000  C
  C785     1.0000 0.72735  0.50456  0.19939  Biso   1.000  C
  C786     1.0000 0.78678  0.17492  0.00728  Biso   1.000  C
  C787     1.0000 0.01746  0.78899  0.22870  Biso   1.000  C
  C788     1.0000 0.32260  0.01067  0.29241  Biso   1.000  C
  C789     1.0000 0.22992  0.67145  0.50584  Biso   1.000  C
  C790     1.0000 0.50954  0.76304  0.32407  Biso   1.000  C
  C791     1.0000 0.82144  0.99822  0.24531  Biso   1.000  C
  C792     1.0000 0.69955  0.69790  0.98814  Biso   1.000  C
  C793     1.0000 0.47663  0.20283  0.32052  Biso   1.000  C
  C794     1.0000 0.28689  0.45133  0.21082  Biso   1.000  C
  C795     1.0000 0.19978  0.26336  0.50491  Biso   1.000  C
  C796     1.0000 0.99643  0.19976  0.20944  Biso   1.000  C
  C797     1.0000 0.80989  0.50485  0.28979  Biso   1.000  C
  C798     1.0000 0.69989  0.25889  0.00805  Biso   1.000  C
  C799     1.0000 0.97878  0.67594  0.28553  Biso   1.000  C
  C800     1.0000 0.21417  0.95573  0.23336  Biso   1.000  C
  C801     1.0000 0.31541  0.75911  0.53387  Biso   1.000  C
  C802     1.0000 0.51397  0.67240  0.23830  Biso   1.000  C
  C803     1.0000 0.73780  0.96450  0.33011  Biso   1.000  C
  C804     1.0000 0.81752  0.75671  0.01704  Biso   1.000  C
  C805     1.0000 0.51516  0.76409  0.71160  Biso   1.000  C
  C806     1.0000 0.72448  0.48715  0.81447  Biso   1.000  C
  C807     1.0000 0.78168  0.67424  0.50928  Biso   1.000  C
  C808     1.0000 0.03453  0.76668  0.81176  Biso   1.000  C
  C809     1.0000 0.19614  0.48867  0.74190  Biso   1.000  C
  C810     1.0000 0.31352  0.70481  0.01903  Biso   1.000  C
  C811     1.0000 0.01324  0.30116  0.74310  Biso   1.000  C
  C812     1.0000 0.80628  0.98930  0.80303  Biso   1.000  C
  C813     1.0000 0.72872  0.17370  0.55023  Biso   1.000  C
  C814     1.0000 0.48597  0.28549  0.79547  Biso   1.000  C
  C815     1.0000 0.30410  0.97050  0.72956  Biso   1.000  C
  C816     1.0000 0.20537  0.20167  0.98161  Biso   1.000  C
  C817     1.0000 0.99108  0.23664  0.81103  Biso   1.000  C
  C818     1.0000 0.77484  0.95791  0.24043  Biso   1.000  C
  C819     1.0000 0.24125  0.76011  0.01201  Biso   1.000  C
  C820     1.0000 0.48654  0.19984  0.75487  Biso   1.000  C
  C821     1.0000 0.28039  0.96656  0.29340  Biso   1.000  C
  C822     1.0000 0.75436  0.76749  0.50443  Biso   1.000  C
  C823     1.0000 0.49763  0.69359  0.76702  Biso   1.000  C
  C824     1.0000 0.72504  0.46946  0.24782  Biso   1.000  C
  C825     1.0000 0.27405  0.26599  0.97286  Biso   1.000  C
  C826     1.0000 0.03515  0.70276  0.74503  Biso   1.000  C
  C827     1.0000 0.24820  0.45397  0.30262  Biso   1.000  C
  C828     1.0000 0.75756  0.27032  0.54806  Biso   1.000  C
  C829     1.0000 0.98552  0.73905  0.21719  Biso   1.000  C
  C830     1.0000 0.24283  0.99564  0.79494  Biso   1.000  C
  C831     1.0000 0.79737  0.22596  0.03526  Biso   1.000  C
  C832     1.0000 0.54748  0.76702  0.27423  Biso   1.000  C
  C833     1.0000 0.74240  0.96710  0.73477  Biso   1.000  C
  C834     1.0000 0.26426  0.19437  0.50568  Biso   1.000  C
  C835     1.0000 0.47730  0.27119  0.25620  Biso   1.000  C
  C836     1.0000 0.29331  0.49454  0.76916  Biso   1.000  C
  C837     1.0000 0.74975  0.69276  0.02609  Biso   1.000  C
  C838     1.0000 0.00032  0.26691  0.27470  Biso   1.000  C
  C839     1.0000 0.75740  0.50846  0.71767  Biso   1.000  C
  C840     1.0000 0.22054  0.72798  0.53021  Biso   1.000  C
  C841     1.0000 0.20711  0.97196  0.76465  Biso   1.000  C
  C842     1.0000 0.76585  0.19555  0.00756  Biso   1.000  C
  C843     1.0000 0.01556  0.76752  0.24887  Biso   1.000  C
  C844     1.0000 0.71017  0.99267  0.76806  Biso   1.000  C
  C845     1.0000 0.29428  0.22298  0.53587  Biso   1.000  C
  C846     1.0000 0.50814  0.74470  0.30014  Biso   1.000  C
  C847     1.0000 0.26165  0.46624  0.80063  Biso   1.000  C
  C848     1.0000 0.72020  0.71899  0.99035  Biso   1.000  C
  C849     1.0000 0.51584  0.24416  0.23196  Biso   1.000  C
  C850     1.0000 0.79194  0.49380  0.75185  Biso   1.000  C
  C851     1.0000 0.25170  0.69217  0.50613  Biso   1.000  C
  C852     1.0000 0.01606  0.23110  0.30759  Biso   1.000  C
  C853     1.0000 0.79945  0.99689  0.26640  Biso   1.000  C
  C854     1.0000 0.22051  0.74363  0.05582  Biso   1.000  C
  C855     1.0000 0.01025  0.20519  0.77389  Biso   1.000  C
  C856     1.0000 0.30124  0.00772  0.27027  Biso   1.000  C
  C857     1.0000 0.71798  0.73920  0.48142  Biso   1.000  C
  C858     1.0000 0.53138  0.21881  0.73409  Biso   1.000  C
  C859     1.0000 0.74997  0.50492  0.21845  Biso   1.000  C
  C860     1.0000 0.29617  0.24030  0.01341  Biso   1.000  C
  C861     1.0000 0.47288  0.72658  0.80088  Biso   1.000  C
  C862     1.0000 0.21738  0.48634  0.27591  Biso   1.000  C
  C863     1.0000 0.78897  0.23852  0.51880  Biso   1.000  C
  C864     1.0000 0.99635  0.72788  0.72111  Biso   1.000  C
  C865     1.0000 0.71795  0.52741  0.76705  Biso   1.000  C
  C866     1.0000 0.79348  0.72272  0.47513  Biso   1.000  C
  C867     1.0000 0.47350  0.77011  0.75569  Biso   1.000  C
  C868     1.0000 0.25081  0.46094  0.72863  Biso   1.000  C
  C869     1.0000 0.25911  0.69459  0.04700  Biso   1.000  C
  C870     1.0000 0.99767  0.77517  0.76433  Biso   1.000  C
  C871     1.0000 0.75321  0.95706  0.80710  Biso   1.000  C
  C872     1.0000 0.71819  0.22577  0.52177  Biso   1.000  C
  C873     1.0000 0.98657  0.24711  0.73480  Biso   1.000  C
  C874     1.0000 0.25140  0.99478  0.71908  Biso   1.000  C
  C875     1.0000 0.26041  0.19266  0.00580  Biso   1.000  C
  C876     1.0000 0.52765  0.23934  0.80104  Biso   1.000  C
  C877     1.0000 0.28910  0.48754  0.26217  Biso   1.000  C
  C878     1.0000 0.24332  0.25965  0.54732  Biso   1.000  C
  C879     1.0000 0.51413  0.19999  0.27312  Biso   1.000  C
  C880     1.0000 0.77210  0.46024  0.28147  Biso   1.000  C
  C881     1.0000 0.75173  0.27167  0.03772  Biso   1.000  C
  C882     1.0000 0.03119  0.19525  0.26014  Biso   1.000  C
  C883     1.0000 0.25531  0.00231  0.22760  Biso   1.000  C
  C884     1.0000 0.26356  0.76759  0.50309  Biso   1.000  C
  C885     1.0000 0.02022  0.71930  0.28535  Biso   1.000  C
  C886     1.0000 0.72985  0.99799  0.28101  Biso   1.000  C
  C887     1.0000 0.76291  0.76565  0.99135  Biso   1.000  C
  C888     1.0000 0.53560  0.72837  0.22490  Biso   1.000  C
  C889     1.0000 0.75869  0.96326  0.30844  Biso   1.000  C
  C890     1.0000 0.29248  0.72603  0.02319  Biso   1.000  C
  C891     1.0000 0.01160  0.28122  0.76489  Biso   1.000  C
  C892     1.0000 0.23713  0.95906  0.25281  Biso   1.000  C
  C893     1.0000 0.75941  0.69469  0.50293  Biso   1.000  C
  C894     1.0000 0.48710  0.26263  0.77465  Biso   1.000  C
  C895     1.0000 0.78970  0.50792  0.26811  Biso   1.000  C
  C896     1.0000 0.22649  0.22268  0.97815  Biso   1.000  C
  C897     1.0000 0.51129  0.74214  0.73206  Biso   1.000  C
  C898     1.0000 0.26393  0.45137  0.23186  Biso   1.000  C
  C899     1.0000 0.74769  0.19603  0.55348  Biso   1.000  C
  C900     1.0000 0.03553  0.74625  0.78914  Biso   1.000  C
  C901     1.0000 0.28287  0.96735  0.75033  Biso   1.000  C
  C902     1.0000 0.72260  0.23968  0.00673  Biso   1.000  C
  C903     1.0000 0.97990  0.69676  0.26264  Biso   1.000  C
  C904     1.0000 0.78434  0.99025  0.78216  Biso   1.000  C
  C905     1.0000 0.22171  0.24359  0.50259  Biso   1.000  C
  C906     1.0000 0.51481  0.69478  0.25898  Biso   1.000  C
  C907     1.0000 0.21969  0.49056  0.76047  Biso   1.000  C
  C908     1.0000 0.79556  0.73532  0.01773  Biso   1.000  C
  C909     1.0000 0.47545  0.22435  0.29900  Biso   1.000  C
  C910     1.0000 0.74441  0.48688  0.79121  Biso   1.000  C
  C911     1.0000 0.29396  0.73802  0.53466  Biso   1.000  C
  C912     1.0000 0.99403  0.21991  0.23205  Biso   1.000  C
  C913     1.0000 0.76446  0.50438  0.74670  Biso   1.000  C
  C914     1.0000 0.74628  0.74431  0.48792  Biso   1.000  C
  C915     1.0000 0.48613  0.72060  0.77387  Biso   1.000  C
  C916     1.0000 0.26838  0.47910  0.77399  Biso   1.000  C
  C917     1.0000 0.24260  0.74295  0.03616  Biso   1.000  C
  C918     1.0000 0.01518  0.72725  0.74320  Biso   1.000  C
  C919     1.0000 0.73631  0.98098  0.76094  Biso   1.000  C
  C920     1.0000 0.76406  0.24407  0.53558  Biso   1.000  C
  C921     1.0000 0.00031  0.23168  0.78273  Biso   1.000  C
  C922     1.0000 0.23493  0.98234  0.76842  Biso   1.000  C
  C923     1.0000 0.27592  0.24281  0.99115  Biso   1.000  C
  C924     1.0000 0.50989  0.21879  0.75497  Biso   1.000  C
  C925     1.0000 0.24239  0.47025  0.27692  Biso   1.000  C
  C926     1.0000 0.26740  0.21891  0.52201  Biso   1.000  C
  C927     1.0000 0.49486  0.24708  0.25388  Biso   1.000  C
  C928     1.0000 0.74782  0.48759  0.24216  Biso   1.000  C
  C929     1.0000 0.77053  0.22233  0.02157  Biso   1.000  C
  C930     1.0000 0.00911  0.23952  0.27997  Biso   1.000  C
  C931     1.0000 0.28104  0.98496  0.27150  Biso   1.000  C
  C932     1.0000 0.24702  0.71920  0.51875  Biso   1.000  C
  C933     1.0000 0.00084  0.74252  0.24256  Biso   1.000  C
  C934     1.0000 0.77806  0.97737  0.26291  Biso   1.000  C
  C935     1.0000 0.74506  0.71792  0.00850  Biso   1.000  C
  C936     1.0000 0.52829  0.74447  0.27614  Biso   1.000  C
  C937     1.0000 0.74838  0.24581  0.02059  Biso   1.000  C
  C938     1.0000 0.00018  0.71806  0.26313  Biso   1.000  C
  C939     1.0000 0.25625  0.98008  0.74544  Biso   1.000  C
  C940     1.0000 0.24353  0.24127  0.52263  Biso   1.000  C
  C941     1.0000 0.52592  0.72219  0.25284  Biso   1.000  C
  C942     1.0000 0.75698  0.97700  0.78506  Biso   1.000  C
  C943     1.0000 0.76855  0.73950  0.00472  Biso   1.000  C
  C944     1.0000 0.49490  0.22335  0.27617  Biso   1.000  C
  C945     1.0000 0.24490  0.47706  0.75400  Biso   1.000  C
  C946     1.0000 0.26934  0.74173  0.51838  Biso   1.000  C
  C947     1.0000 0.01275  0.21923  0.25543  Biso   1.000  C
  C948     1.0000 0.74200  0.50836  0.76912  Biso   1.000  C
  C949     1.0000 0.26588  0.72172  0.03645  Biso   1.000  C
  C950     1.0000 0.00004  0.25403  0.76076  Biso   1.000  C
  C951     1.0000 0.75427  0.98046  0.28403  Biso   1.000  C
  C952     1.0000 0.76592  0.71880  0.48706  Biso   1.000  C
  C953     1.0000 0.50822  0.24083  0.77803  Biso   1.000  C
  C954     1.0000 0.25644  0.98278  0.25051  Biso   1.000  C
  C955     1.0000 0.25401  0.21897  0.99176  Biso   1.000  C
  C956     1.0000 0.49020  0.74511  0.75321  Biso   1.000  C
  C957     1.0000 0.77003  0.48555  0.26529  Biso   1.000  C
  C958     1.0000 0.74254  0.22092  0.53898  Biso   1.000  C
  C959     1.0000 0.01634  0.75090  0.76592  Biso   1.000  C
  C960     1.0000 0.26550  0.46959  0.25606  Biso   1.000  C
  Cu1      1.0000 0.00261  0.48993  0.66577  Biso   1.000  Cu
  Cu2      1.0000 0.66156  0.98381  0.52179  Biso   1.000  Cu
  Cu3      1.0000 0.50901  0.63667  0.01027  Biso   1.000  Cu
  Cu4      1.0000 0.50618  0.48118  0.85822  Biso   1.000  Cu
  Cu5      1.0000 0.16142  0.97734  0.01592  Biso   1.000  Cu
  Cu6      1.0000 0.00482  0.63920  0.50638  Biso   1.000  Cu
  Cu7      1.0000 0.49688  0.98603  0.66912  Biso   1.000  Cu
  Cu8      1.0000 0.84942  0.48124  0.50277  Biso   1.000  Cu
  Cu9      1.0000 0.01128  0.13113  0.01399  Biso   1.000  Cu
  Cu10     1.0000 0.99717  0.98497  0.86399  Biso   1.000  Cu
  Cu11     1.0000 0.34913  0.48252  0.01654  Biso   1.000  Cu
  Cu12     1.0000 0.50845  0.13957  0.51251  Biso   1.000  Cu
  Cu13     1.0000 0.00882  0.47881  0.36490  Biso   1.000  Cu
  Cu14     1.0000 0.35364  0.98315  0.50984  Biso   1.000  Cu
  Cu15     1.0000 0.50951  0.32913  0.01345  Biso   1.000  Cu
  Cu16     1.0000 0.50333  0.48065  0.16326  Biso   1.000  Cu
  Cu17     1.0000 0.85094  0.97938  0.02285  Biso   1.000  Cu
  Cu18     1.0000 0.00132  0.33297  0.52130  Biso   1.000  Cu
  Cu19     1.0000 0.51589  0.98392  0.36582  Biso   1.000  Cu
  Cu20     1.0000 0.16237  0.48035  0.52249  Biso   1.000  Cu
  Cu21     1.0000 0.00704  0.83145  0.00543  Biso   1.000  Cu
  Cu22     1.0000 0.01669  0.98148  0.17212  Biso   1.000  Cu
  Cu23     1.0000 0.65868  0.48039  0.00547  Biso   1.000  Cu
  Cu24     1.0000 0.50931  0.82680  0.51402  Biso   1.000  Cu
  Cu25     1.0000 0.21643  0.97585  0.00817  Biso   1.000  Cu
  Cu26     1.0000 0.01080  0.18605  0.01626  Biso   1.000  Cu
  Cu27     1.0000 0.01593  0.97971  0.22578  Biso   1.000  Cu
  Cu28     1.0000 0.71588  0.97896  0.52396  Biso   1.000  Cu
  Cu29     1.0000 0.51132  0.19269  0.51496  Biso   1.000  Cu
  Cu30     1.0000 0.51848  0.98515  0.31130  Biso   1.000  Cu
  Cu31     1.0000 0.29466  0.48022  0.01685  Biso   1.000  Cu
  Cu32     1.0000 0.50384  0.69028  0.01063  Biso   1.000  Cu
  Cu33     1.0000 0.50792  0.48456  0.21726  Biso   1.000  Cu
  Cu34     1.0000 0.79534  0.48340  0.50640  Biso   1.000  Cu
  Cu35     1.0000 0.00642  0.69296  0.50471  Biso   1.000  Cu
  Cu36     1.0000 0.01049  0.47859  0.31179  Biso   1.000  Cu
  Cu37     1.0000 0.79955  0.98040  0.02703  Biso   1.000  Cu
  Cu38     1.0000 0.00712  0.77838  0.00653  Biso   1.000  Cu
  Cu39     1.0000 0.99431  0.98713  0.80832  Biso   1.000  Cu
  Cu40     1.0000 0.29881  0.98474  0.50534  Biso   1.000  Cu
  Cu41     1.0000 0.50769  0.77128  0.51414  Biso   1.000  Cu
  Cu42     1.0000 0.49304  0.98708  0.72231  Biso   1.000  Cu
  Cu43     1.0000 0.71216  0.47963  0.00540  Biso   1.000  Cu
  Cu44     1.0000 0.50786  0.27313  0.01346  Biso   1.000  Cu
  Cu45     1.0000 0.50671  0.48001  0.80267  Biso   1.000  Cu
  Cu46     1.0000 0.21709  0.47918  0.52039  Biso   1.000  Cu
  Cu47     1.0000 0.00659  0.27885  0.52498  Biso   1.000  Cu
  Cu48     1.0000 0.00260  0.48961  0.72004  Biso   1.000  Cu
  H1       1.0000 0.24414  0.76979  0.48967  Biso   1.000  H
  H2       1.0000 0.54121  0.21944  0.80179  Biso   1.000  H
  H3       1.0000 0.75708  0.44125  0.27851  Biso   1.000  H
  H4       1.0000 0.74200  0.76886  0.98262  Biso   1.000  H
  H5       1.0000 0.97314  0.22738  0.73464  Biso   1.000  H
  H6       1.0000 0.28480  0.49901  0.28270  Biso   1.000  H
  H7       1.0000 0.25664  0.25920  0.56575  Biso   1.000  H
  H8       1.0000 0.98101  0.77717  0.74775  Biso   1.000  H
  H9       1.0000 0.72643  0.01145  0.26182  Biso   1.000  H
  H10      1.0000 0.77347  0.27558  0.04807  Biso   1.000  H
  H11      1.0000 0.45700  0.77362  0.77096  Biso   1.000  H
  H12      1.0000 0.26725  0.02183  0.22346  Biso   1.000  H
  H13      1.0000 0.71369  0.24584  0.51031  Biso   1.000  H
  H14      1.0000 0.54508  0.74884  0.21884  Biso   1.000  H
  H15      1.0000 0.27242  0.44941  0.72337  Biso   1.000  H
  H16      1.0000 0.28281  0.18743  0.01431  Biso   1.000  H
  H17      1.0000 0.03679  0.73552  0.28576  Biso   1.000  H
  H18      1.0000 0.71818  0.54053  0.74842  Biso   1.000  H
  H19      1.0000 0.79685  0.74429  0.46354  Biso   1.000  H
  H20      1.0000 0.04734  0.19391  0.27655  Biso   1.000  H
  H21      1.0000 0.22901  0.00026  0.71323  Biso   1.000  H
  H22      1.0000 0.23653  0.69350  0.05656  Biso   1.000  H
  H23      1.0000 0.53079  0.19866  0.25631  Biso   1.000  H
  H24      1.0000 0.73425  0.94118  0.80910  Biso   1.000  H
  H25      1.0000 0.26342  0.00586  0.79709  Biso   1.000  H
  H26      1.0000 0.80348  0.24869  0.04333  Biso   1.000  H
  H27      1.0000 0.97330  0.72138  0.21038  Biso   1.000  H
  H28      1.0000 0.76059  0.95522  0.73165  Biso   1.000  H
  H29      1.0000 0.24324  0.18765  0.49735  Biso   1.000  H
  H30      1.0000 0.56080  0.76885  0.25480  Biso   1.000  H
  H31      1.0000 0.29578  0.50590  0.74963  Biso   1.000  H
  H32      1.0000 0.76667  0.69411  0.03953  Biso   1.000  H
  H33      1.0000 0.46024  0.27424  0.27155  Biso   1.000  H
  H34      1.0000 0.73455  0.51306  0.71285  Biso   1.000  H
  H35      1.0000 0.21860  0.74955  0.54100  Biso   1.000  H
  H36      1.0000 0.99350  0.27460  0.25405  Biso   1.000  H
  H37      1.0000 0.75734  0.94163  0.24070  Biso   1.000  H
  H38      1.0000 0.25820  0.75532  0.99485  Biso   1.000  H
  H39      1.0000 0.98122  0.25719  0.81663  Biso   1.000  H
  H40      1.0000 0.26437  0.95097  0.29660  Biso   1.000  H
  H41      1.0000 0.77702  0.77032  0.51138  Biso   1.000  H
  H42      1.0000 0.46947  0.20239  0.77095  Biso   1.000  H
  H43      1.0000 0.72198  0.45677  0.26676  Biso   1.000  H
  H44      1.0000 0.25803  0.26336  0.95624  Biso   1.000  H
  H45      1.0000 0.50639  0.68788  0.74475  Biso   1.000  H
  H46      1.0000 0.26766  0.44077  0.30196  Biso   1.000  H
  H47      1.0000 0.73667  0.27424  0.55655  Biso   1.000  H
  H48      1.0000 0.04951  0.69973  0.76321  Biso   1.000  H
  H49      1.0000 0.21607  0.50421  0.26132  Biso   1.000  H
  H50      1.0000 0.30032  0.24276  0.54881  Biso   1.000  H
  H51      1.0000 0.53070  0.22503  0.22931  Biso   1.000  H
  H52      1.0000 0.76956  0.51747  0.21742  Biso   1.000  H
  H53      1.0000 0.74580  0.19320  0.99512  Biso   1.000  H
  H54      1.0000 0.02455  0.21056  0.31438  Biso   1.000  H
  H55      1.0000 0.30104  0.02264  0.25200  Biso   1.000  H
  H56      1.0000 0.27342  0.68848  0.49847  Biso   1.000  H
  H57      1.0000 0.02688  0.76904  0.26948  Biso   1.000  H
  H58      1.0000 0.79983  0.01609  0.28195  Biso   1.000  H
  H59      1.0000 0.71488  0.73752  0.97633  Biso   1.000  H
  H60      1.0000 0.49253  0.72755  0.30371  Biso   1.000  H
  H61      1.0000 0.79986  0.49128  0.77403  Biso   1.000  H
  H62      1.0000 0.71357  0.71974  0.46814  Biso   1.000  H
  H63      1.0000 0.46442  0.74870  0.80463  Biso   1.000  H
  H64      1.0000 0.24101  0.45494  0.80226  Biso   1.000  H
  H65      1.0000 0.22302  0.72806  0.07291  Biso   1.000  H
  H66      1.0000 0.98101  0.74530  0.71910  Biso   1.000  H
  H67      1.0000 0.70685  0.00521  0.78843  Biso   1.000  H
  H68      1.0000 0.78934  0.21930  0.50343  Biso   1.000  H
  H69      1.0000 0.01854  0.20336  0.75104  Biso   1.000  H
  H70      1.0000 0.20167  0.96421  0.74364  Biso   1.000  H
  H71      1.0000 0.29304  0.22367  0.02967  Biso   1.000  H
  H72      1.0000 0.55071  0.23307  0.73736  Biso   1.000  H
  H73      1.0000 0.76069  0.46979  0.78929  Biso   1.000  H
  H74      1.0000 0.73808  0.69398  0.51235  Biso   1.000  H
  H75      1.0000 0.52501  0.72352  0.72685  Biso   1.000  H
  H76      1.0000 0.21839  0.50330  0.78128  Biso   1.000  H
  H77      1.0000 0.29601  0.74820  0.01412  Biso   1.000  H
  H78      1.0000 0.05430  0.73180  0.78765  Biso   1.000  H
  H79      1.0000 0.78692  0.00555  0.76504  Biso   1.000  H
  H80      1.0000 0.76594  0.19245  0.56767  Biso   1.000  H
  H81      1.0000 0.02332  0.28772  0.78379  Biso   1.000  H
  H82      1.0000 0.28476  0.95416  0.77050  Biso   1.000  H
  H83      1.0000 0.22356  0.24120  0.96340  Biso   1.000  H
  H84      1.0000 0.47450  0.26238  0.75497  Biso   1.000  H
  H85      1.0000 0.24788  0.43502  0.22857  Biso   1.000  H
  H86      1.0000 0.22401  0.23281  0.48156  Biso   1.000  H
  H87      1.0000 0.45716  0.23862  0.29985  Biso   1.000  H
  H88      1.0000 0.78993  0.52626  0.25404  Biso   1.000  H
  H89      1.0000 0.71666  0.22017  0.99516  Biso   1.000  H
  H90      1.0000 0.97841  0.23592  0.22908  Biso   1.000  H
  H91      1.0000 0.23801  0.94283  0.26953  Biso   1.000  H
  H92      1.0000 0.29786  0.71761  0.54622  Biso   1.000  H
  H93      1.0000 0.96871  0.69382  0.24230  Biso   1.000  H
  H94      1.0000 0.77749  0.94937  0.30661  Biso   1.000  H
  H95      1.0000 0.79985  0.71502  0.02721  Biso   1.000  H
  H96      1.0000 0.50894  0.69021  0.28075  Biso   1.000  H
  H97      1.0000 0.86494  0.98901  0.93155  Biso   1.000  H
  H98      1.0000 0.91174  0.85210  0.99508  Biso   1.000  H
  H99      1.0000 0.00465  0.89312  0.87933  Biso   1.000  H
  H100     1.0000 0.36687  0.98555  0.60185  Biso   1.000  H
  H101     1.0000 0.41304  0.85239  0.51317  Biso   1.000  H
  H102     1.0000 0.50328  0.89620  0.64892  Biso   1.000  H
  H103     1.0000 0.63759  0.49489  0.91914  Biso   1.000  H
  H104     1.0000 0.59714  0.34829  0.01037  Biso   1.000  H
  H105     1.0000 0.51595  0.39089  0.87760  Biso   1.000  H
  H106     1.0000 0.14131  0.48929  0.61168  Biso   1.000  H
  H107     1.0000 0.09802  0.35183  0.52858  Biso   1.000  H
  H108     1.0000 0.99178  0.39711  0.65100  Biso   1.000  H
  H109     1.0000 0.15078  0.96627  0.10552  Biso   1.000  H
  H110     1.0000 0.10624  0.11389  0.01307  Biso   1.000  H
  H111     1.0000 0.02675  0.07277  0.15069  Biso   1.000  H
  H112     1.0000 0.64649  0.99004  0.43112  Biso   1.000  H
  H113     1.0000 0.60030  0.11292  0.51257  Biso   1.000  H
  H114     1.0000 0.53014  0.08152  0.38388  Biso   1.000  H
  H115     1.0000 0.36927  0.48722  0.10853  Biso   1.000  H
  H116     1.0000 0.41548  0.61149  0.01861  Biso   1.000  H
  H117     1.0000 0.50489  0.57261  0.14550  Biso   1.000  H
  H118     1.0000 0.86650  0.47048  0.41705  Biso   1.000  H
  H119     1.0000 0.91539  0.61595  0.50706  Biso   1.000  H
  H120     1.0000 0.00632  0.57543  0.37984  Biso   1.000  H
  H121     1.0000 0.09079  0.98104  0.87852  Biso   1.000  H
  H122     1.0000 0.87377  0.06874  0.02496  Biso   1.000  H
  H123     1.0000 0.99734  0.85507  0.10069  Biso   1.000  H
  H124     1.0000 0.59173  0.98133  0.65212  Biso   1.000  H
  H125     1.0000 0.37636  0.07338  0.51103  Biso   1.000  H
  H126     1.0000 0.50241  0.84500  0.42325  Biso   1.000  H
  H127     1.0000 0.41296  0.47695  0.88083  Biso   1.000  H
  H128     1.0000 0.63672  0.56859  0.00552  Biso   1.000  H
  H129     1.0000 0.50203  0.34835  0.10324  Biso   1.000  H
  H130     1.0000 0.91507  0.48677  0.64429  Biso   1.000  H
  H131     1.0000 0.14191  0.57464  0.52133  Biso   1.000  H
  H132     1.0000 0.00805  0.34851  0.42523  Biso   1.000  H
  H133     1.0000 0.92351  0.98512  0.14936  Biso   1.000  H
  H134     1.0000 0.13908  0.88755  0.01062  Biso   1.000  H
  H135     1.0000 0.99472  0.11874  0.92178  Biso   1.000  H
  H136     1.0000 0.42626  0.99631  0.38227  Biso   1.000  H
  H137     1.0000 0.64016  0.89047  0.52214  Biso   1.000  H
  H138     1.0000 0.51257  0.11440  0.60375  Biso   1.000  H
  H139     1.0000 0.59594  0.48874  0.13985  Biso   1.000  H
  H140     1.0000 0.36999  0.39337  0.01896  Biso   1.000  H
  H141     1.0000 0.49476  0.61941  0.92281  Biso   1.000  H
  H142     1.0000 0.09867  0.47706  0.38981  Biso   1.000  H
  H143     1.0000 0.86694  0.39114  0.51353  Biso   1.000  H
  H144     1.0000 0.00083  0.61935  0.59434  Biso   1.000  H
  H145     1.0000 0.59736  0.50253  0.87880  Biso   1.000  H
  H146     1.0000 0.87436  0.57339  0.50547  Biso   1.000  H
  H147     1.0000 0.49897  0.85092  0.60457  Biso   1.000  H
  H148     1.0000 0.09731  0.48138  0.64681  Biso   1.000  H
  H149     1.0000 0.36978  0.56843  0.01715  Biso   1.000  H
  H150     1.0000 0.01747  0.85123  0.91755  Biso   1.000  H
  H151     1.0000 0.90524  0.98093  0.88650  Biso   1.000  H
  H152     1.0000 0.64169  0.07169  0.51396  Biso   1.000  H
  H153     1.0000 0.00220  0.35659  0.61442  Biso   1.000  H
  H154     1.0000 0.40747  0.97531  0.64296  Biso   1.000  H
  H155     1.0000 0.14347  0.07247  0.01444  Biso   1.000  H
  H156     1.0000 0.51961  0.35217  0.92042  Biso   1.000  H
  H157     1.0000 0.41374  0.48277  0.15099  Biso   1.000  H
  H158     1.0000 0.14092  0.39440  0.52825  Biso   1.000  H
  H159     1.0000 0.51798  0.12340  0.42505  Biso   1.000  H
  H160     1.0000 0.91071  0.48168  0.38396  Biso   1.000  H
  H161     1.0000 0.63860  0.38824  0.00481  Biso   1.000  H
  H162     1.0000 0.01987  0.11309  0.10772  Biso   1.000  H
  H163     1.0000 0.10682  0.96940  0.15007  Biso   1.000  H
  H164     1.0000 0.37448  0.89120  0.51127  Biso   1.000  H
  H165     1.0000 0.00380  0.61755  0.41666  Biso   1.000  H
  H166     1.0000 0.60770  0.99118  0.38986  Biso   1.000  H
  H167     1.0000 0.86537  0.89269  0.00371  Biso   1.000  H
  H168     1.0000 0.49842  0.61993  0.10191  Biso   1.000  H
  H169     1.0000 0.99590  0.07934  0.88214  Biso   1.000  H
  H170     1.0000 0.87713  0.97460  0.11226  Biso   1.000  H
  H171     1.0000 0.09810  0.84830  0.02004  Biso   1.000  H
  H172     1.0000 0.49782  0.07352  0.64754  Biso   1.000  H
  H173     1.0000 0.38430  0.98022  0.41963  Biso   1.000  H
  H174     1.0000 0.59790  0.84487  0.52316  Biso   1.000  H
  H175     1.0000 0.49369  0.57084  0.87920  Biso   1.000  H
  H176     1.0000 0.63845  0.48633  0.09507  Biso   1.000  H
  H177     1.0000 0.41469  0.35279  0.01589  Biso   1.000  H
  H178     1.0000 0.01662  0.57870  0.64002  Biso   1.000  H
  H179     1.0000 0.14121  0.46996  0.43090  Biso   1.000  H
  H180     1.0000 0.91005  0.35063  0.52008  Biso   1.000  H
  H181     1.0000 0.00594  0.89187  0.14414  Biso   1.000  H
  H182     1.0000 0.13484  0.97781  0.92292  Biso   1.000  H
  H183     1.0000 0.91852  0.11030  0.01804  Biso   1.000  H
  H184     1.0000 0.51080  0.88696  0.38301  Biso   1.000  H
  H185     1.0000 0.63717  0.97601  0.60976  Biso   1.000  H
  H186     1.0000 0.41900  0.11405  0.51067  Biso   1.000  H
  H187     1.0000 0.49253  0.39082  0.14643  Biso   1.000  H
  H188     1.0000 0.36913  0.48107  0.92844  Biso   1.000  H
  H189     1.0000 0.59569  0.61718  0.00897  Biso   1.000  H
  H190     1.0000 0.01084  0.38415  0.38634  Biso   1.000  H
  H191     1.0000 0.87337  0.49201  0.59933  Biso   1.000  H
  H192     1.0000 0.09608  0.61428  0.51526  Biso   1.000  H
  H193     1.0000 0.27467  0.84259  0.51488  Biso   1.000  H
  H194     1.0000 0.50565  0.25292  0.87158  Biso   1.000  H
  H195     1.0000 0.86867  0.49198  0.28120  Biso   1.000  H
  H196     1.0000 0.77253  0.83392  0.00930  Biso   1.000  H
  H197     1.0000 0.00253  0.26066  0.66347  Biso   1.000  H
  H198     1.0000 0.35908  0.46695  0.24593  Biso   1.000  H
  H199     1.0000 0.23505  0.33364  0.53885  Biso   1.000  H
  H200     1.0000 0.01243  0.75634  0.85951  Biso   1.000  H
  H201     1.0000 0.65834  0.97471  0.29367  Biso   1.000  H
  H202     1.0000 0.73462  0.33317  0.01460  Biso   1.000  H
  H203     1.0000 0.50717  0.75455  0.66124  Biso   1.000  H
  H204     1.0000 0.16287  0.96267  0.24300  Biso   1.000  H
  H205     1.0000 0.73935  0.12181  0.53320  Biso   1.000  H
  H206     1.0000 0.51314  0.71332  0.15681  Biso   1.000  H
  H207     1.0000 0.14196  0.47032  0.74714  Biso   1.000  H
  H208     1.0000 0.24422  0.11840  0.99860  Biso   1.000  H
  H209     1.0000 0.00213  0.71223  0.35784  Biso   1.000  H
  H210     1.0000 0.64979  0.50405  0.78064  Biso   1.000  H
  H211     1.0000 0.77661  0.62457  0.49227  Biso   1.000  H
  H212     1.0000 0.01393  0.21196  0.15868  Biso   1.000  H
  H213     1.0000 0.35150  0.99143  0.73484  Biso   1.000  H
  H214     1.0000 0.27331  0.62539  0.02059  Biso   1.000  H
  H215     1.0000 0.49342  0.21621  0.36734  Biso   1.000  H
  H216     1.0000 0.85212  0.96472  0.79078  Biso   1.000  H
  H217     1.0000 0.23647  0.46439  0.37785  Biso   1.000  H
  H218     1.0000 0.36578  0.21190  0.50887  Biso   1.000  H
  H219     1.0000 0.49863  0.34088  0.24214  Biso   1.000  H
  H220     1.0000 0.73295  0.48453  0.14944  Biso   1.000  H
  H221     1.0000 0.86783  0.20787  0.01882  Biso   1.000  H
  H222     1.0000 0.02113  0.33290  0.29185  Biso   1.000  H
  H223     1.0000 0.28786  0.97713  0.36318  Biso   1.000  H
  H224     1.0000 0.15159  0.71086  0.50705  Biso   1.000  H
  H225     1.0000 0.00050  0.83961  0.24114  Biso   1.000  H
  H226     1.0000 0.78304  0.97590  0.17457  Biso   1.000  H
  H227     1.0000 0.65380  0.70970  0.00205  Biso   1.000  H
  H228     1.0000 0.53237  0.84049  0.28681  Biso   1.000  H
  H229     1.0000 0.77428  0.48510  0.64434  Biso   1.000  H
  H230     1.0000 0.65566  0.75207  0.51439  Biso   1.000  H
  H231     1.0000 0.48016  0.62102  0.78111  Biso   1.000  H
  H232     1.0000 0.27576  0.49456  0.86953  Biso   1.000  H
  H233     1.0000 0.14816  0.75162  0.03756  Biso   1.000  H
  H234     1.0000 0.02587  0.63327  0.73291  Biso   1.000  H
  H235     1.0000 0.73015  0.99237  0.66556  Biso   1.000  H
  H236     1.0000 0.85988  0.25459  0.53877  Biso   1.000  H
  H237     1.0000 0.99273  0.13091  0.78605  Biso   1.000  H
  H238     1.0000 0.22421  0.97489  0.86523  Biso   1.000  H
  H239     1.0000 0.36940  0.25306  0.99493  Biso   1.000  H
  H240     1.0000 0.49830  0.13228  0.73928  Biso   1.000  H
  H241     1.0000 0.73483  0.49356  0.86608  Biso   1.000  H
  H242     1.0000 0.86312  0.71317  0.49978  Biso   1.000  H
  H243     1.0000 0.49233  0.84183  0.74436  Biso   1.000  H
  H244     1.0000 0.23874  0.48279  0.66527  Biso   1.000  H
  H245     1.0000 0.36536  0.70848  0.03224  Biso   1.000  H
  H246     1.0000 0.00791  0.84706  0.77983  Biso   1.000  H
  H247     1.0000 0.76855  0.97001  0.88330  Biso   1.000  H
  H248     1.0000 0.64942  0.20627  0.54049  Biso   1.000  H
  H249     1.0000 0.99143  0.34803  0.75017  Biso   1.000  H
  H250     1.0000 0.26738  0.97733  0.64914  Biso   1.000  H
  H251     1.0000 0.15358  0.20763  0.99513  Biso   1.000  H
  H252     1.0000 0.50781  0.33442  0.78169  Biso   1.000  H
  H253     1.0000 0.27469  0.47322  0.16398  Biso   1.000  H
  H254     1.0000 0.14544  0.25299  0.52774  Biso   1.000  H
  H255     1.0000 0.49973  0.12646  0.28769  Biso   1.000  H
  H256     1.0000 0.77385  0.47723  0.36213  Biso   1.000  H
  H257     1.0000 0.64807  0.25181  0.03321  Biso   1.000  H
  H258     1.0000 0.00980  0.12318  0.24611  Biso   1.000  H
  H259     1.0000 0.24719  0.97659  0.15995  Biso   1.000  H
  H260     1.0000 0.36563  0.75406  0.51736  Biso   1.000  H
  H261     1.0000 0.99304  0.62256  0.27925  Biso   1.000  H
  H262     1.0000 0.74549  0.98694  0.37794  Biso   1.000  H
  H263     1.0000 0.86401  0.75481  0.98860  Biso   1.000  H
  H264     1.0000 0.54097  0.62090  0.23538  Biso   1.000  H
  H265     1.0000 0.01536  0.21436  0.87323  Biso   1.000  H
  H266     1.0000 0.87427  0.97892  0.25206  Biso   1.000  H
  H267     1.0000 0.23528  0.83149  0.02046  Biso   1.000  H
  H268     1.0000 0.51867  0.20833  0.66085  Biso   1.000  H
  H269     1.0000 0.37330  0.00020  0.28405  Biso   1.000  H
  H270     1.0000 0.74159  0.84318  0.50145  Biso   1.000  H
  H271     1.0000 0.50009  0.71060  0.86484  Biso   1.000  H
  H272     1.0000 0.65103  0.48445  0.23554  Biso   1.000  H
  H273     1.0000 0.27683  0.33120  0.00596  Biso   1.000  H
  H274     1.0000 0.01469  0.71757  0.64556  Biso   1.000  H
  H275     1.0000 0.14931  0.47181  0.28964  Biso   1.000  H
  H276     1.0000 0.77129  0.33710  0.51986  Biso   1.000  H
  H277     1.0000 0.00767  0.75625  0.14821  Biso   1.000  H
  H278     1.0000 0.13973  0.99817  0.78242  Biso   1.000  H
  H279     1.0000 0.77830  0.12585  0.03392  Biso   1.000  H
  H280     1.0000 0.53629  0.75386  0.37297  Biso   1.000  H
  H281     1.0000 0.63869  0.98489  0.74869  Biso   1.000  H
  H282     1.0000 0.28103  0.12890  0.52047  Biso   1.000  H
  H283     1.0000 0.50089  0.25222  0.16107  Biso   1.000  H
  H284     1.0000 0.36047  0.47289  0.78413  Biso   1.000  H
  H285     1.0000 0.73523  0.62154  0.01094  Biso   1.000  H
  H286     1.0000 0.99777  0.24944  0.38212  Biso   1.000  H
  H287     1.0000 0.85491  0.50980  0.73507  Biso   1.000  H
  H288     1.0000 0.23567  0.62479  0.52464  Biso   1.000  H
  H289     1.0000 0.10105  0.20573  0.99441  Biso   1.000  H
  H290     1.0000 0.01708  0.07042  0.24470  Biso   1.000  H
  H291     1.0000 0.24950  0.97728  0.10339  Biso   1.000  H
  H292     1.0000 0.59698  0.20523  0.52893  Biso   1.000  H
  H293     1.0000 0.50838  0.07166  0.29039  Biso   1.000  H
  H294     1.0000 0.74601  0.99331  0.43154  Biso   1.000  H
  H295     1.0000 0.41631  0.70556  0.01841  Biso   1.000  H
  H296     1.0000 0.53745  0.56775  0.23262  Biso   1.000  H
  H297     1.0000 0.27641  0.47223  0.10795  Biso   1.000  H
  H298     1.0000 0.91467  0.71122  0.50696  Biso   1.000  H
  H299     1.0000 0.99764  0.56679  0.28247  Biso   1.000  H
  H300     1.0000 0.77114  0.47359  0.41606  Biso   1.000  H
  H301     1.0000 0.91763  0.75877  0.98355  Biso   1.000  H
  H302     1.0000 0.00256  0.89728  0.78203  Biso   1.000  H
  H303     1.0000 0.77126  0.98155  0.93179  Biso   1.000  H
  H304     1.0000 0.42055  0.75878  0.51503  Biso   1.000  H
  H305     1.0000 0.49031  0.89350  0.74386  Biso   1.000  H
  H306     1.0000 0.26943  0.97504  0.59860  Biso   1.000  H
  H307     1.0000 0.59501  0.25577  0.03086  Biso   1.000  H
  H308     1.0000 0.51376  0.38650  0.78036  Biso   1.000  H
  H309     1.0000 0.73445  0.48507  0.91749  Biso   1.000  H
  H310     1.0000 0.09173  0.25496  0.52407  Biso   1.000  H
  H311     1.0000 0.99098  0.40278  0.74813  Biso   1.000  H
  H312     1.0000 0.23867  0.48605  0.61064  Biso   1.000  H
  H313     1.0000 0.22576  0.97071  0.91823  Biso   1.000  H
  H314     1.0000 0.92288  0.20297  0.01530  Biso   1.000  H
  H315     1.0000 0.00152  0.89059  0.23999  Biso   1.000  H
  H316     1.0000 0.73240  0.98913  0.61466  Biso   1.000  H
  H317     1.0000 0.41926  0.21072  0.50968  Biso   1.000  H
  H318     1.0000 0.52530  0.89093  0.28913  Biso   1.000  H
  H319     1.0000 0.27607  0.49627  0.92732  Biso   1.000  H
  H320     1.0000 0.60137  0.71415  0.00461  Biso   1.000  H
  H321     1.0000 0.49588  0.39775  0.23929  Biso   1.000  H
  H322     1.0000 0.78016  0.47778  0.59334  Biso   1.000  H
  H323     1.0000 0.09652  0.71076  0.50623  Biso   1.000  H
  H324     1.0000 0.01709  0.38781  0.29063  Biso   1.000  H
  H325     1.0000 0.78101  0.97146  0.11930  Biso   1.000  H
  H326     1.0000 0.09389  0.75185  0.03054  Biso   1.000  H
  H327     1.0000 0.98367  0.07455  0.78940  Biso   1.000  H
  H328     1.0000 0.28617  0.97964  0.41630  Biso   1.000  H
  H329     1.0000 0.60460  0.74892  0.51690  Biso   1.000  H
  H330     1.0000 0.48551  0.07809  0.74363  Biso   1.000  H
  H331     1.0000 0.73319  0.48092  0.09758  Biso   1.000  H
  H332     1.0000 0.42244  0.25673  0.00318  Biso   1.000  H
  H333     1.0000 0.48780  0.56814  0.78210  Biso   1.000  H
  H334     1.0000 0.23721  0.46364  0.43162  Biso   1.000  H
  H335     1.0000 0.91297  0.25514  0.52921  Biso   1.000  H
  H336     1.0000 0.02238  0.57935  0.73485  Biso   1.000  H
  H337     1.0000 0.01646  0.21322  0.92615  Biso   1.000  H
  H338     1.0000 0.93010  0.98182  0.24551  Biso   1.000  H
  H339     1.0000 0.23458  0.88436  0.01030  Biso   1.000  H
  H340     1.0000 0.52299  0.20933  0.60318  Biso   1.000  H
  H341     1.0000 0.43157  0.99262  0.28533  Biso   1.000  H
  H342     1.0000 0.73425  0.89530  0.50401  Biso   1.000  H
  H343     1.0000 0.50487  0.71204  0.91853  Biso   1.000  H
  H344     1.0000 0.59997  0.48300  0.23936  Biso   1.000  H
  H345     1.0000 0.27276  0.38799  0.00830  Biso   1.000  H
  H346     1.0000 0.00390  0.71516  0.59491  Biso   1.000  H
  H347     1.0000 0.09967  0.47411  0.29396  Biso   1.000  H
  H348     1.0000 0.77315  0.39145  0.51228  Biso   1.000  H
  H349     1.0000 0.00569  0.75729  0.09631  Biso   1.000  H
  H350     1.0000 0.08727  0.00122  0.78373  Biso   1.000  H
  H351     1.0000 0.77974  0.07432  0.03857  Biso   1.000  H
  H352     1.0000 0.52280  0.75223  0.42708  Biso   1.000  H
  H353     1.0000 0.58374  0.98023  0.74575  Biso   1.000  H
  H354     1.0000 0.28277  0.07416  0.52138  Biso   1.000  H
  H355     1.0000 0.50759  0.25212  0.10361  Biso   1.000  H
  H356     1.0000 0.41365  0.46909  0.78454  Biso   1.000  H
  H357     1.0000 0.73500  0.56911  0.00446  Biso   1.000  H
  H358     1.0000 0.99434  0.25657  0.43509  Biso   1.000  H
  H359     1.0000 0.90692  0.51048  0.73762  Biso   1.000  H
  H360     1.0000 0.23959  0.57366  0.52425  Biso   1.000  H
  H361     1.0000 0.00106  0.71423  0.41398  Biso   1.000  H
  H362     1.0000 0.40506  0.99230  0.73859  Biso   1.000  H
  H363     1.0000 0.73499  0.38950  0.01764  Biso   1.000  H
  H364     1.0000 0.51186  0.71394  0.10141  Biso   1.000  H
  H365     1.0000 0.90476  0.96748  0.79277  Biso   1.000  H
  H366     1.0000 0.23648  0.38787  0.53887  Biso   1.000  H
  H367     1.0000 0.50119  0.22055  0.42548  Biso   1.000  H
  H368     1.0000 0.08953  0.46646  0.73965  Biso   1.000  H
  H369     1.0000 0.77213  0.88805  0.01742  Biso   1.000  H
  H370     1.0000 0.00959  0.20847  0.10283  Biso   1.000  H
  H371     1.0000 0.59366  0.50616  0.78350  Biso   1.000  H
  H372     1.0000 0.27775  0.89524  0.51269  Biso   1.000  H
  H373     1.0000 0.00529  0.26136  0.61146  Biso   1.000  H
  H374     1.0000 0.60864  0.96843  0.29653  Biso   1.000  H
  H375     1.0000 0.27614  0.57018  0.02221  Biso   1.000  H
  H376     1.0000 0.49640  0.25637  0.92468  Biso   1.000  H
  H377     1.0000 0.11140  0.96540  0.24853  Biso   1.000  H
  H378     1.0000 0.77938  0.57219  0.49443  Biso   1.000  H
  H379     1.0000 0.50822  0.75577  0.60667  Biso   1.000  H
  H380     1.0000 0.91972  0.48601  0.28684  Biso   1.000  H
  H381     1.0000 0.24020  0.06426  0.00826  Biso   1.000  H
  H382     1.0000 0.00291  0.75499  0.91402  Biso   1.000  H
  H383     1.0000 0.41323  0.46785  0.24588  Biso   1.000  H
  H384     1.0000 0.73408  0.06584  0.53383  Biso   1.000  H
  H385     1.0000 0.22964  0.43854  0.34382  Biso   1.000  H
  H386     1.0000 0.28245  0.15586  0.48795  Biso   1.000  H
  H387     1.0000 0.46340  0.31119  0.23573  Biso   1.000  H
  H388     1.0000 0.68461  0.45408  0.22874  Biso   1.000  H
  H389     1.0000 0.83582  0.21120  0.05357  Biso   1.000  H
  H390     1.0000 0.99147  0.30888  0.29259  Biso   1.000  H
  H391     1.0000 0.30390  0.94795  0.32875  Biso   1.000  H
  H392     1.0000 0.17977  0.71330  0.54541  Biso   1.000  H
  H393     1.0000 0.97174  0.76012  0.17922  Biso   1.000  H
  H394     1.0000 0.79691  0.94137  0.20164  Biso   1.000  H
  H395     1.0000 0.73025  0.65184  0.03767  Biso   1.000  H
  H396     1.0000 0.56492  0.80609  0.29267  Biso   1.000  H
  H397     1.0000 0.76834  0.51368  0.67474  Biso   1.000  H
  H398     1.0000 0.74353  0.80519  0.52517  Biso   1.000  H
  H399     1.0000 0.51075  0.65118  0.78301  Biso   1.000  H
  H400     1.0000 0.33113  0.51300  0.78968  Biso   1.000  H
  H401     1.0000 0.22120  0.79525  0.99111  Biso   1.000  H
  H402     1.0000 0.05471  0.66605  0.72421  Biso   1.000  H
  H403     1.0000 0.72398  0.96119  0.69117  Biso   1.000  H
  H404     1.0000 0.77412  0.31443  0.55546  Biso   1.000  H
  H405     1.0000 0.97908  0.21738  0.85082  Biso   1.000  H
  H406     1.0000 0.22645  0.00792  0.83748  Biso   1.000  H
  H407     1.0000 0.29457  0.30629  0.96230  Biso   1.000  H
  H408     1.0000 0.46509  0.16539  0.72739  Biso   1.000  H
  H409     1.0000 0.28616  0.43782  0.19222  Biso   1.000  H
  H410     1.0000 0.18377  0.26477  0.48851  Biso   1.000  H
  H411     1.0000 0.46041  0.20478  0.33766  Biso   1.000  H
  H412     1.0000 0.82404  0.52285  0.29450  Biso   1.000  H
  H413     1.0000 0.67908  0.25208  0.99779  Biso   1.000  H
  H414     1.0000 0.98201  0.20543  0.19076  Biso   1.000  H
  H415     1.0000 0.20161  0.93647  0.23442  Biso   1.000  H
  H416     1.0000 0.33336  0.75467  0.54734  Biso   1.000  H
  H417     1.0000 0.96302  0.65787  0.28628  Biso   1.000  H
  H418     1.0000 0.74220  0.94946  0.34939  Biso   1.000  H
  H419     1.0000 0.83848  0.75341  0.02651  Biso   1.000  H
  H420     1.0000 0.50279  0.65222  0.24348  Biso   1.000  H
  H421     1.0000 0.72735  0.47198  0.83167  Biso   1.000  H
  H422     1.0000 0.77694  0.65634  0.52159  Biso   1.000  H
  H423     1.0000 0.53295  0.76133  0.69520  Biso   1.000  H
  H424     1.0000 0.17625  0.49869  0.75037  Biso   1.000  H
  H425     1.0000 0.33360  0.71132  0.00687  Biso   1.000  H
  H426     1.0000 0.04974  0.76350  0.82908  Biso   1.000  H
  H427     1.0000 0.82610  0.99974  0.80215  Biso   1.000  H
  H428     1.0000 0.73294  0.15333  0.56133  Biso   1.000  H
  H429     1.0000 0.02516  0.32206  0.74549  Biso   1.000  H
  H430     1.0000 0.32374  0.95518  0.73012  Biso   1.000  H
  H431     1.0000 0.18770  0.20342  0.96509  Biso   1.000  H
  H432     1.0000 0.47411  0.30518  0.79287  Biso   1.000  H
  H433     1.0000 0.27053  0.01004  0.67707  Biso   1.000  H
  H434     1.0000 0.72994  0.31066  0.05227  Biso   1.000  H
  H435     1.0000 0.04161  0.70022  0.32018  Biso   1.000  H
  H436     1.0000 0.76701  0.94037  0.84788  Biso   1.000  H
  H437     1.0000 0.21885  0.29225  0.57188  Biso   1.000  H
  H438     1.0000 0.54355  0.71097  0.18201  Biso   1.000  H
  H439     1.0000 0.23114  0.44902  0.68743  Biso   1.000  H
  H440     1.0000 0.77928  0.80700  0.97776  Biso   1.000  H
  H441     1.0000 0.53201  0.16098  0.28710  Biso   1.000  H
  H442     1.0000 0.67886  0.54024  0.78521  Biso   1.000  H
  H443     1.0000 0.28028  0.80754  0.48840  Biso   1.000  H
  H444     1.0000 0.04926  0.15594  0.24013  Biso   1.000  H
  H445     1.0000 0.68921  0.01234  0.29817  Biso   1.000  H
  H446     1.0000 0.27373  0.65069  0.05418  Biso   1.000  H
  H447     1.0000 0.96973  0.26031  0.69569  Biso   1.000  H
  H448     1.0000 0.23436  0.01254  0.18865  Biso   1.000  H
  H449     1.0000 0.83647  0.70791  0.46584  Biso   1.000  H
  H450     1.0000 0.54074  0.25938  0.84093  Biso   1.000  H
  H451     1.0000 0.79278  0.43932  0.31823  Biso   1.000  H
  H452     1.0000 0.24671  0.15329  0.02474  Biso   1.000  H
  H453     1.0000 0.45800  0.80876  0.73550  Biso   1.000  H
  H454     1.0000 0.32853  0.50609  0.24469  Biso   1.000  H
  H455     1.0000 0.67885  0.20631  0.50294  Biso   1.000  H
  H456     1.0000 0.98065  0.81194  0.78619  Biso   1.000  H
  H457     1.0000 0.67719  0.75581  0.47359  Biso   1.000  H
  H458     1.0000 0.46277  0.70919  0.84191  Biso   1.000  H
  H459     1.0000 0.83208  0.47684  0.73691  Biso   1.000  H
  H460     1.0000 0.17977  0.76153  0.06924  Biso   1.000  H
  H461     1.0000 0.98411  0.70657  0.67968  Biso   1.000  H
  H462     1.0000 0.27541  0.45518  0.84467  Biso   1.000  H
  H463     1.0000 0.82772  0.25155  0.50224  Biso   1.000  H
  H464     1.0000 0.02041  0.16219  0.78711  Biso   1.000  H
  H465     1.0000 0.66971  0.00545  0.75466  Biso   1.000  H
  H466     1.0000 0.32867  0.26095  0.03758  Biso   1.000  H
  H467     1.0000 0.54680  0.20083  0.69469  Biso   1.000  H
  H468     1.0000 0.16458  0.96613  0.77934  Biso   1.000  H
  H469     1.0000 0.33748  0.20813  0.54515  Biso   1.000  H
  H470     1.0000 0.53287  0.26289  0.19312  Biso   1.000  H
  H471     1.0000 0.18089  0.50214  0.29966  Biso   1.000  H
  H472     1.0000 0.78029  0.15390  0.99742  Biso   1.000  H
  H473     1.0000 0.02059  0.23989  0.35117  Biso   1.000  H
  H474     1.0000 0.72842  0.51963  0.18120  Biso   1.000  H
  H475     1.0000 0.23714  0.65129  0.49585  Biso   1.000  H
  H476     1.0000 0.02800  0.80830  0.23495  Biso   1.000  H
  H477     1.0000 0.33724  0.02826  0.29135  Biso   1.000  H
  H478     1.0000 0.68083  0.70081  0.97291  Biso   1.000  H
  H479     1.0000 0.49533  0.76137  0.34245  Biso   1.000  H
  H480     1.0000 0.83789  0.01657  0.24669  Biso   1.000  H
  N1       1.0000 0.68464  0.15534  0.53035  Biso   1.000  N
  N2       1.0000 0.52281  0.65922  0.18858  Biso   1.000  N
  N3       1.0000 0.18102  0.47744  0.69526  Biso   1.000  N
  N4       1.0000 0.19090  0.15540  0.00166  Biso   1.000  N
  N5       1.0000 0.00252  0.65812  0.32886  Biso   1.000  N
  N6       1.0000 0.68118  0.50379  0.83363  Biso   1.000  N
  N7       1.0000 0.83037  0.65877  0.49815  Biso   1.000  N
  N8       1.0000 0.01667  0.15742  0.19249  Biso   1.000  N
  N9       1.0000 0.32011  0.98345  0.68415  Biso   1.000  N
  N10      1.0000 0.32704  0.65590  0.02591  Biso   1.000  N
  N11      1.0000 0.50329  0.16093  0.33762  Biso   1.000  N
  N12      1.0000 0.82148  0.96915  0.84774  Biso   1.000  N
  N13      1.0000 0.32929  0.80608  0.51653  Biso   1.000  N
  N14      1.0000 0.50757  0.30556  0.83752  Biso   1.000  N
  N15      1.0000 0.83009  0.47845  0.33073  Biso   1.000  N
  N16      1.0000 0.82903  0.80417  0.00301  Biso   1.000  N
  N17      1.0000 0.99607  0.31526  0.69761  Biso   1.000  N
  N18      1.0000 0.32904  0.47386  0.19481  Biso   1.000  N
  N19      1.0000 0.18070  0.30456  0.53080  Biso   1.000  N
  N20      1.0000 0.01339  0.81068  0.83146  Biso   1.000  N
  N21      1.0000 0.69238  0.98145  0.34789  Biso   1.000  N
  N22      1.0000 0.68224  0.30608  0.01978  Biso   1.000  N
  N23      1.0000 0.49849  0.80891  0.69120  Biso   1.000  N
  N24      1.0000 0.19283  0.97083  0.18990  Biso   1.000  N
  N25      1.0000 0.82538  0.49422  0.68161  Biso   1.000  N
  N26      1.0000 0.68610  0.80597  0.50662  Biso   1.000  N
  N27      1.0000 0.49125  0.65644  0.83529  Biso   1.000  N
  N28      1.0000 0.32824  0.48302  0.84006  Biso   1.000  N
  N29      1.0000 0.17914  0.80247  0.02886  Biso   1.000  N
  N30      1.0000 0.01824  0.66426  0.67903  Biso   1.000  N
  N31      1.0000 0.67391  0.98359  0.69862  Biso   1.000  N
  N32      1.0000 0.82589  0.30669  0.52945  Biso   1.000  N
  N33      1.0000 0.99986  0.16322  0.83971  Biso   1.000  N
  N34      1.0000 0.17345  0.98783  0.83298  Biso   1.000  N
  N35      1.0000 0.33461  0.30726  0.00131  Biso   1.000  N
  N36      1.0000 0.50959  0.15811  0.68920  Biso   1.000  N
  N37      1.0000 0.18400  0.47060  0.34573  Biso   1.000  N
  N38      1.0000 0.33289  0.15911  0.51342  Biso   1.000  N
  N39      1.0000 0.49791  0.30724  0.18971  Biso   1.000  N
  N40      1.0000 0.68226  0.48700  0.18337  Biso   1.000  N
  N41      1.0000 0.83418  0.15785  0.02583  Biso   1.000  N
  N42      1.0000 0.00850  0.29951  0.34595  Biso   1.000  N
  N43      1.0000 0.34218  0.98998  0.33478  Biso   1.000  N
  N44      1.0000 0.18141  0.65733  0.51926  Biso   1.000  N
  N45      1.0000 0.00365  0.80839  0.18342  Biso   1.000  N
  N46      1.0000 0.83923  0.97874  0.20058  Biso   1.000  N
  N47      1.0000 0.68226  0.65277  0.00692  Biso   1.000  N
  N48      1.0000 0.52992  0.80624  0.34159  Biso   1.000  N
  O1       1.0000 0.34682  0.52157  0.01754  Biso   1.000  O
  O2       1.0000 0.00594  0.33279  0.56213  Biso   1.000  O
  O3       1.0000 0.55784  0.97662  0.36639  Biso   1.000  O
  O4       1.0000 0.84838  0.52284  0.50080  Biso   1.000  O
  O5       1.0000 0.51567  0.32761  0.96991  Biso   1.000  O
  O6       1.0000 0.05871  0.96947  0.17507  Biso   1.000  O
  O7       1.0000 0.16787  0.02044  0.01407  Biso   1.000  O
  O8       1.0000 0.51135  0.82532  0.55506  Biso   1.000  O
  O9       1.0000 0.96744  0.47571  0.35977  Biso   1.000  O
  O10      1.0000 0.66496  0.02461  0.52435  Biso   1.000  O
  O11      1.0000 0.01429  0.82406  0.96498  Biso   1.000  O
  O12      1.0000 0.46120  0.47790  0.17046  Biso   1.000  O
  O13      1.0000 0.66388  0.43907  0.00946  Biso   1.000  O
  O14      1.0000 0.00659  0.64383  0.46417  Biso   1.000  O
  O15      1.0000 0.45514  0.98570  0.66686  Biso   1.000  O
  O16      1.0000 0.16875  0.43807  0.52328  Biso   1.000  O
  O17      1.0000 0.51156  0.64089  0.05443  Biso   1.000  O
  O18      1.0000 0.95663  0.98122  0.86287  Biso   1.000  O
  O19      1.0000 0.84536  0.93722  0.02157  Biso   1.000  O
  O20      1.0000 0.50344  0.14533  0.47188  Biso   1.000  O
  O21      1.0000 0.04518  0.47922  0.66491  Biso   1.000  O
  O22      1.0000 0.35186  0.94202  0.51535  Biso   1.000  O
  O23      1.0000 0.01551  0.13414  0.05736  Biso   1.000  O
  O24      1.0000 0.54954  0.48662  0.85710  Biso   1.000  O
  O25      1.0000 0.97298  0.98906  0.17300  Biso   1.000  O
  O26      1.0000 0.16514  0.93615  0.01368  Biso   1.000  O
  O27      1.0000 0.00395  0.13695  0.97262  Biso   1.000  O
  O28      1.0000 0.47606  0.98849  0.35836  Biso   1.000  O
  O29      1.0000 0.66225  0.93902  0.51987  Biso   1.000  O
  O30      1.0000 0.51178  0.14139  0.55293  Biso   1.000  O
  O31      1.0000 0.54698  0.48309  0.16506  Biso   1.000  O
  O32      1.0000 0.34211  0.43981  0.01503  Biso   1.000  O
  O33      1.0000 0.50799  0.64102  0.96783  Biso   1.000  O
  O34      1.0000 0.04918  0.47720  0.36715  Biso   1.000  O
  O35      1.0000 0.84505  0.43842  0.50706  Biso   1.000  O
  O36      1.0000 0.99977  0.64239  0.54790  Biso   1.000  O
  O37      1.0000 0.03822  0.99021  0.85681  Biso   1.000  O
  O38      1.0000 0.84986  0.02225  0.02294  Biso   1.000  O
  O39      1.0000 0.00229  0.83027  0.04790  Biso   1.000  O
  O40      1.0000 0.53826  0.98834  0.67373  Biso   1.000  O
  O41      1.0000 0.35147  0.02511  0.50988  Biso   1.000  O
  O42      1.0000 0.51308  0.82443  0.47382  Biso   1.000  O
  O43      1.0000 0.46347  0.47765  0.85413  Biso   1.000  O
  O44      1.0000 0.65973  0.52129  0.00825  Biso   1.000  O
  O45      1.0000 0.50690  0.32381  0.05648  Biso   1.000  O
  O46      1.0000 0.96120  0.49832  0.66822  Biso   1.000  O
  O47      1.0000 0.16427  0.52244  0.51850  Biso   1.000  O
  O48      1.0000 0.00151  0.32855  0.47917  Biso   1.000  O
  O49      1.0000 0.00547  0.94219  0.17410  Biso   1.000  O
  O50      1.0000 0.15981  0.97867  0.97508  Biso   1.000  O
  O51      1.0000 0.96807  0.13150  0.01690  Biso   1.000  O
  O52      1.0000 0.50785  0.94071  0.36228  Biso   1.000  O
  O53      1.0000 0.66199  0.97796  0.56354  Biso   1.000  O
  O54      1.0000 0.46645  0.13845  0.51672  Biso   1.000  O
  O55      1.0000 0.50465  0.43970  0.16588  Biso   1.000  O
  O56      1.0000 0.34451  0.48302  0.97467  Biso   1.000  O
  O57      1.0000 0.54896  0.64191  0.00951  Biso   1.000  O
  O58      1.0000 0.01369  0.43701  0.36225  Biso   1.000  O
  O59      1.0000 0.84904  0.48794  0.54447  Biso   1.000  O
  O60      1.0000 0.04744  0.64020  0.51126  Biso   1.000  O
  O61      1.0000 0.98909  0.02991  0.86059  Biso   1.000  O
  O62      1.0000 0.85171  0.97846  0.06625  Biso   1.000  O
  O63      1.0000 0.04967  0.82829  0.01088  Biso   1.000  O
  O64      1.0000 0.49863  0.02725  0.67024  Biso   1.000  O
  O65      1.0000 0.35635  0.98450  0.46570  Biso   1.000  O
  O66      1.0000 0.55198  0.82054  0.51553  Biso   1.000  O
  O67      1.0000 0.50011  0.52141  0.85605  Biso   1.000  O
  O68      1.0000 0.65994  0.48262  0.04835  Biso   1.000  O
  O69      1.0000 0.46803  0.32548  0.01287  Biso   1.000  O
  O70      1.0000 0.01090  0.53065  0.66389  Biso   1.000  O
  O71      1.0000 0.16352  0.47896  0.47951  Biso   1.000  O
  O72      1.0000 0.96080  0.32617  0.52534  Biso   1.000  O
  O73      1.0000 0.99756  0.44727  0.67370  Biso   1.000  O
  O74      1.0000 0.66841  0.98449  0.48011  Biso   1.000  O
  O75      1.0000 0.46520  0.63793  0.01166  Biso   1.000  O
  O76      1.0000 0.50952  0.43984  0.85426  Biso   1.000  O
  O77      1.0000 0.17188  0.97420  0.05570  Biso   1.000  O
  O78      1.0000 0.96385  0.63848  0.50667  Biso   1.000  O
  O79      1.0000 0.50027  0.94297  0.67260  Biso   1.000  O
  O80      1.0000 0.84213  0.47589  0.46270  Biso   1.000  O
  O81      1.0000 0.05308  0.13416  0.00980  Biso   1.000  O
  O82      1.0000 0.00701  0.94336  0.85911  Biso   1.000  O
  O83      1.0000 0.34596  0.48279  0.05877  Biso   1.000  O
  O84      1.0000 0.55000  0.13679  0.51027  Biso   1.000  O
  O85      1.0000 0.00914  0.52332  0.35973  Biso   1.000  O
  O86      1.0000 0.34578  0.98278  0.55101  Biso   1.000  O
  O87      1.0000 0.54900  0.32601  0.01108  Biso   1.000  O
  O88      1.0000 0.49966  0.52548  0.16725  Biso   1.000  O
  O89      1.0000 0.84540  0.98129  0.97988  Biso   1.000  O
  O90      1.0000 0.04448  0.32915  0.51794  Biso   1.000  O
  O91      1.0000 0.51906  0.02607  0.36318  Biso   1.000  O
  O92      1.0000 0.16536  0.48103  0.56311  Biso   1.000  O
  O93      1.0000 0.96492  0.83295  0.99843  Biso   1.000  O
  O94      1.0000 0.02710  0.02136  0.17697  Biso   1.000  O
  O95      1.0000 0.65936  0.48169  0.96624  Biso   1.000  O
  O96      1.0000 0.46745  0.82680  0.51657  Biso   1.000  O
  O97      1.0000 0.46881  0.18638  0.51241  Biso   1.000  O
  O98      1.0000 0.50742  0.44122  0.21403  Biso   1.000  O
  O99      1.0000 0.21360  0.47598  0.47943  Biso   1.000  O
  O100     1.0000 0.96914  0.18019  0.02177  Biso   1.000  O
  O101     1.0000 0.01329  0.43835  0.31384  Biso   1.000  O
  O102     1.0000 0.70889  0.48203  0.04815  Biso   1.000  O
  O103     1.0000 0.04790  0.68832  0.50697  Biso   1.000  O
  O104     1.0000 0.00754  0.93912  0.22266  Biso   1.000  O
  O105     1.0000 0.30733  0.98153  0.46430  Biso   1.000  O
  O106     1.0000 0.54722  0.68956  0.01066  Biso   1.000  O
  O107     1.0000 0.51205  0.94159  0.31321  Biso   1.000  O
  O108     1.0000 0.80285  0.97569  0.06852  Biso   1.000  O
  O109     1.0000 0.55123  0.77089  0.51580  Biso   1.000  O
  O110     1.0000 0.50134  0.52060  0.80852  Biso   1.000  O
  O111     1.0000 0.80098  0.49015  0.54664  Biso   1.000  O
  O112     1.0000 0.04689  0.78032  0.01127  Biso   1.000  O
  O113     1.0000 0.00663  0.53344  0.71423  Biso   1.000  O
  O114     1.0000 0.29624  0.48378  0.97127  Biso   1.000  O
  O115     1.0000 0.96325  0.27762  0.52353  Biso   1.000  O
  O116     1.0000 0.99032  0.02676  0.81297  Biso   1.000  O
  O117     1.0000 0.71145  0.97335  0.56409  Biso   1.000  O
  O118     1.0000 0.46699  0.27616  0.01078  Biso   1.000  O
  O119     1.0000 0.49690  0.02867  0.71881  Biso   1.000  O
  O120     1.0000 0.20731  0.97360  0.96884  Biso   1.000  O
  O121     1.0000 0.04489  0.47967  0.71429  Biso   1.000  O
  O122     1.0000 0.71361  0.02298  0.53082  Biso   1.000  O
  O123     1.0000 0.50703  0.68908  0.05341  Biso   1.000  O
  O124     1.0000 0.54911  0.48492  0.80776  Biso   1.000  O
  O125     1.0000 0.21524  0.01695  0.00929  Biso   1.000  O
  O126     1.0000 0.00970  0.69254  0.46344  Biso   1.000  O
  O127     1.0000 0.45222  0.98728  0.71617  Biso   1.000  O
  O128     1.0000 0.79932  0.52540  0.49880  Biso   1.000  O
  O129     1.0000 0.01260  0.18329  0.05759  Biso   1.000  O
  O130     1.0000 0.95409  0.97956  0.81363  Biso   1.000  O
  O131     1.0000 0.29687  0.52410  0.01935  Biso   1.000  O
  O132     1.0000 0.51160  0.19271  0.47346  Biso   1.000  O
  O133     1.0000 0.96874  0.48017  0.31084  Biso   1.000  O
  O134     1.0000 0.30294  0.94286  0.50807  Biso   1.000  O
  O135     1.0000 0.51147  0.27839  0.97091  Biso   1.000  O
  O136     1.0000 0.46398  0.48207  0.21957  Biso   1.000  O
  O137     1.0000 0.79699  0.93908  0.02215  Biso   1.000  O
  O138     1.0000 0.00320  0.28467  0.56561  Biso   1.000  O
  O139     1.0000 0.55912  0.97602  0.31700  Biso   1.000  O
  O140     1.0000 0.21657  0.43652  0.52639  Biso   1.000  O
  O141     1.0000 0.01185  0.77512  0.96414  Biso   1.000  O
  O142     1.0000 0.05910  0.97345  0.22371  Biso   1.000  O
  O143     1.0000 0.71212  0.43903  0.01173  Biso   1.000  O
  O144     1.0000 0.50889  0.77753  0.55514  Biso   1.000  O
  O145     1.0000 0.54870  0.48713  0.21445  Biso   1.000  O
  O146     1.0000 0.21399  0.52090  0.51700  Biso   1.000  O
  O147     1.0000 0.51040  0.18936  0.55780  Biso   1.000  O
  O148     1.0000 0.05160  0.48171  0.31723  Biso   1.000  O
  O149     1.0000 0.70783  0.52026  0.99933  Biso   1.000  O
  O150     1.0000 0.01391  0.18476  0.97484  Biso   1.000  O
  O151     1.0000 0.97404  0.98789  0.22044  Biso   1.000  O
  O152     1.0000 0.30192  0.02568  0.50597  Biso   1.000  O
  O153     1.0000 0.00599  0.69079  0.54620  Biso   1.000  O
  O154     1.0000 0.47676  0.99223  0.30998  Biso   1.000  O
  O155     1.0000 0.80254  0.02158  0.03155  Biso   1.000  O
  O156     1.0000 0.50096  0.68919  0.96957  Biso   1.000  O
  O157     1.0000 0.46517  0.47263  0.80497  Biso   1.000  O
  O158     1.0000 0.79612  0.44238  0.51228  Biso   1.000  O
  O159     1.0000 0.51090  0.77605  0.47262  Biso   1.000  O
  O160     1.0000 0.95907  0.49659  0.71753  Biso   1.000  O
  O161     1.0000 0.29471  0.43836  0.01606  Biso   1.000  O
  O162     1.0000 0.00601  0.78206  0.04953  Biso   1.000  O
  O163     1.0000 0.03666  0.99295  0.80823  Biso   1.000  O
  O164     1.0000 0.71184  0.93724  0.51411  Biso   1.000  O
  O165     1.0000 0.00705  0.28085  0.48264  Biso   1.000  O
  O166     1.0000 0.53695  0.98606  0.72098  Biso   1.000  O
  O167     1.0000 0.21327  0.93492  0.00606  Biso   1.000  O
  O168     1.0000 0.50257  0.27449  0.05468  Biso   1.000  O
  O169     1.0000 0.01819  0.02283  0.22577  Biso   1.000  O
  O170     1.0000 0.22090  0.97200  0.05042  Biso   1.000  O
  O171     1.0000 0.05279  0.18282  0.01077  Biso   1.000  O
  O172     1.0000 0.52491  0.02743  0.31507  Biso   1.000  O
  O173     1.0000 0.71707  0.98472  0.48276  Biso   1.000  O
  O174     1.0000 0.55216  0.18554  0.51631  Biso   1.000  O
  O175     1.0000 0.50736  0.52692  0.21602  Biso   1.000  O
  O176     1.0000 0.29840  0.47616  0.05920  Biso   1.000  O
  O177     1.0000 0.46349  0.68585  0.01819  Biso   1.000  O
  O178     1.0000 0.01032  0.51975  0.31150  Biso   1.000  O
  O179     1.0000 0.79340  0.47253  0.46647  Biso   1.000  O
  O180     1.0000 0.96511  0.68768  0.50299  Biso   1.000  O
  O181     1.0000 0.00170  0.94624  0.81004  Biso   1.000  O
  O182     1.0000 0.79645  0.98523  0.98220  Biso   1.000  O
  O183     1.0000 0.96504  0.78300  0.99960  Biso   1.000  O
  O184     1.0000 0.49183  0.94557  0.72109  Biso   1.000  O
  O185     1.0000 0.29578  0.98676  0.54894  Biso   1.000  O
  O186     1.0000 0.46487  0.77819  0.51159  Biso   1.000  O
  O187     1.0000 0.51192  0.43873  0.80566  Biso   1.000  O
  O188     1.0000 0.70792  0.47502  0.96412  Biso   1.000  O
  O189     1.0000 0.54726  0.27732  0.02057  Biso   1.000  O
  O190     1.0000 0.99472  0.44839  0.72293  Biso   1.000  O
  O191     1.0000 0.21410  0.48259  0.56281  Biso   1.000  O
  O192     1.0000 0.04770  0.27929  0.52680  Biso   1.000  O
