data_image0
_cell_length_a       46.8992
_cell_length_b       46.6504
_cell_length_c       46.5873
_cell_angle_alpha    90
_cell_angle_beta     90
_cell_angle_gamma    90

_symmetry_space_group_name_H-M    "P 1"
_symmetry_int_tables_number       1

loop_
  _symmetry_equiv_pos_as_xyz
  'x, y, z'

loop_
  _atom_site_label
  _atom_site_occupancy
  _atom_site_fract_x
  _atom_site_fract_y
  _atom_site_fract_z
  _atom_site_thermal_displace_type
  _atom_site_B_iso_or_equiv
  _atom_site_type_symbol
  C1       1.0000 0.55453  0.99457  0.34742  Biso   1.000  C
  C2       1.0000 0.33103  0.54336  0.03571  Biso   1.000  C
  C3       1.0000 0.01343  0.31473  0.59055  Biso   1.000  C
  C4       1.0000 0.05875  0.97867  0.21461  Biso   1.000  C
  C5       1.0000 0.81932  0.53841  0.52261  Biso   1.000  C
  C6       1.0000 0.49494  0.31072  0.98825  Biso   1.000  C
  C7       1.0000 0.95514  0.47875  0.35349  Biso   1.000  C
  C8       1.0000 0.17817  0.04133  0.03211  Biso   1.000  C
  C9       1.0000 0.48968  0.80295  0.57290  Biso   1.000  C
  C10      1.0000 0.45926  0.49528  0.21604  Biso   1.000  C
  C11      1.0000 0.67881  0.03864  0.53121  Biso   1.000  C
  C12      1.0000 0.00888  0.81608  0.96949  Biso   1.000  C
  C13      1.0000 0.44465  0.99005  0.71146  Biso   1.000  C
  C14      1.0000 0.68911  0.43277  0.02371  Biso   1.000  C
  C15      1.0000 0.98027  0.67327  0.48000  Biso   1.000  C
  C16      1.0000 0.95252  0.00326  0.85113  Biso   1.000  C
  C17      1.0000 0.18491  0.44765  0.53572  Biso   1.000  C
  C18      1.0000 0.50567  0.67141  0.07124  Biso   1.000  C
  C19      1.0000 0.05070  0.49936  0.71567  Biso   1.000  C
  C20      1.0000 0.82900  0.93755  0.03899  Biso   1.000  C
  C21      1.0000 0.51923  0.17834  0.49023  Biso   1.000  C
  C22      1.0000 0.55431  0.48805  0.85226  Biso   1.000  C
  C23      1.0000 0.31298  0.94766  0.54929  Biso   1.000  C
  C24      1.0000 0.00794  0.17457  0.09483  Biso   1.000  C
  C25      1.0000 0.32173  0.05325  0.51887  Biso   1.000  C
  C26      1.0000 0.51298  0.30749  0.09645  Biso   1.000  C
  C27      1.0000 0.06461  0.49466  0.35597  Biso   1.000  C
  C28      1.0000 0.83059  0.04449  0.01699  Biso   1.000  C
  C29      1.0000 0.01012  0.30951  0.48221  Biso   1.000  C
  C30      1.0000 0.56834  0.49143  0.21227  Biso   1.000  C
  C31      1.0000 0.17594  0.55580  0.54186  Biso   1.000  C
  C32      1.0000 0.99480  0.80389  0.07911  Biso   1.000  C
  C33      1.0000 0.44608  0.99387  0.35195  Biso   1.000  C
  C34      1.0000 0.68935  0.54090  0.03118  Biso   1.000  C
  C35      1.0000 0.48852  0.81262  0.46551  Biso   1.000  C
  C36      1.0000 0.94939  0.99169  0.21316  Biso   1.000  C
  C37      1.0000 0.67057  0.92790  0.52404  Biso   1.000  C
  C38      1.0000 0.50257  0.66955  0.96179  Biso   1.000  C
  C39      1.0000 0.94281  0.49424  0.71138  Biso   1.000  C
  C40      1.0000 0.17868  0.93393  0.02962  Biso   1.000  C
  C41      1.0000 0.99700  0.67848  0.58606  Biso   1.000  C
  C42      1.0000 0.44299  0.48825  0.84932  Biso   1.000  C
  C43      1.0000 0.82581  0.43051  0.53100  Biso   1.000  C
  C44      1.0000 0.00307  0.17565  0.98595  Biso   1.000  C
  C45      1.0000 0.55480  0.98032  0.70906  Biso   1.000  C
  C46      1.0000 0.32669  0.43703  0.04097  Biso   1.000  C
  C47      1.0000 0.50440  0.17255  0.59790  Biso   1.000  C
  C48      1.0000 0.06003  0.01291  0.84959  Biso   1.000  C
  C49      1.0000 0.00062  0.06196  0.85285  Biso   1.000  C
  C50      1.0000 0.82861  0.99562  0.08240  Biso   1.000  C
  C51      1.0000 0.05718  0.80297  0.02846  Biso   1.000  C
  C52      1.0000 0.49882  0.04050  0.71617  Biso   1.000  C
  C53      1.0000 0.32151  0.98510  0.47986  Biso   1.000  C
  C54      1.0000 0.54149  0.79825  0.51692  Biso   1.000  C
  C55      1.0000 0.49753  0.53929  0.84258  Biso   1.000  C
  C56      1.0000 0.68909  0.48000  0.08381  Biso   1.000  C
  C57      1.0000 0.45307  0.30907  0.04835  Biso   1.000  C
  C58      1.0000 0.99332  0.55170  0.71276  Biso   1.000  C
  C59      1.0000 0.18761  0.50528  0.48573  Biso   1.000  C
  C60      1.0000 0.95666  0.30824  0.54113  Biso   1.000  C
  C61      1.0000 0.99557  0.92788  0.21140  Biso   1.000  C
  C62      1.0000 0.18048  0.98747  0.97825  Biso   1.000  C
  C63      1.0000 0.95187  0.16945  0.04742  Biso   1.000  C
  C64      1.0000 0.49959  0.94172  0.34707  Biso   1.000  C
  C65      1.0000 0.67738  0.98090  0.58143  Biso   1.000  C
  C66      1.0000 0.45613  0.17348  0.53788  Biso   1.000  C
  C67      1.0000 0.51255  0.44189  0.21538  Biso   1.000  C
  C68      1.0000 0.32848  0.49360  0.98271  Biso   1.000  C
  C69      1.0000 0.56147  0.66850  0.01610  Biso   1.000  C
  C70      1.0000 0.01538  0.43505  0.35694  Biso   1.000  C
  C71      1.0000 0.81894  0.49125  0.58314  Biso   1.000  C
  C72      1.0000 0.04206  0.67651  0.52929  Biso   1.000  C
  C73      1.0000 0.99764  0.54095  0.35142  Biso   1.000  C
  C74      1.0000 0.31948  0.00924  0.58478  Biso   1.000  C
  C75      1.0000 0.55985  0.30872  0.03172  Biso   1.000  C
  C76      1.0000 0.51179  0.55127  0.21028  Biso   1.000  C
  C77      1.0000 0.82888  0.98398  0.97322  Biso   1.000  C
  C78      1.0000 0.06483  0.31464  0.53304  Biso   1.000  C
  C79      1.0000 0.49730  0.05133  0.35667  Biso   1.000  C
  C80      1.0000 0.18267  0.50526  0.59383  Biso   1.000  C
  C81      1.0000 0.94985  0.81142  0.01850  Biso   1.000  C
  C82      1.0000 0.01074  0.03714  0.21403  Biso   1.000  C
  C83      1.0000 0.68973  0.48702  0.97475  Biso   1.000  C
  C84      1.0000 0.43455  0.81804  0.51755  Biso   1.000  C
  C85      1.0000 0.99831  0.44210  0.71785  Biso   1.000  C
  C86      1.0000 0.67844  0.98492  0.47331  Biso   1.000  C
  C87      1.0000 0.45273  0.66950  0.01590  Biso   1.000  C
  C88      1.0000 0.49848  0.43094  0.85812  Biso   1.000  C
  C89      1.0000 0.17968  0.98608  0.08687  Biso   1.000  C
  C90      1.0000 0.93392  0.67330  0.54330  Biso   1.000  C
  C91      1.0000 0.49562  0.93017  0.70550  Biso   1.000  C
  C92      1.0000 0.82227  0.47755  0.47584  Biso   1.000  C
  C93      1.0000 0.06017  0.17540  0.03977  Biso   1.000  C
  C94      1.0000 0.00918  0.95510  0.84936  Biso   1.000  C
  C95      1.0000 0.33010  0.49390  0.09329  Biso   1.000  C
  C96      1.0000 0.56570  0.17350  0.54983  Biso   1.000  C
  C97      1.0000 0.68176  0.07060  0.53484  Biso   1.000  C
  C98      1.0000 0.50459  0.67143  0.10365  Biso   1.000  C
  C99      1.0000 0.08261  0.50044  0.71839  Biso   1.000  C
  C100     1.0000 0.18038  0.07466  0.02786  Biso   1.000  C
  C101     1.0000 0.97548  0.67250  0.44723  Biso   1.000  C
  C102     1.0000 0.58622  0.48801  0.85336  Biso   1.000  C
  C103     1.0000 0.81791  0.57032  0.52094  Biso   1.000  C
  C104     1.0000 0.00821  0.17245  0.12759  Biso   1.000  C
  C105     1.0000 0.41335  0.99286  0.71192  Biso   1.000  C
  C106     1.0000 0.33098  0.57491  0.02842  Biso   1.000  C
  C107     1.0000 0.52225  0.17752  0.45680  Biso   1.000  C
  C108     1.0000 0.92051  0.99795  0.84837  Biso   1.000  C
  C109     1.0000 0.31224  0.91537  0.55455  Biso   1.000  C
  C110     1.0000 0.49029  0.31025  0.95678  Biso   1.000  C
  C111     1.0000 0.92278  0.47719  0.35303  Biso   1.000  C
  C112     1.0000 0.82676  0.90417  0.04418  Biso   1.000  C
  C113     1.0000 0.01744  0.31822  0.62188  Biso   1.000  C
  C114     1.0000 0.42645  0.49036  0.21921  Biso   1.000  C
  C115     1.0000 0.18637  0.41612  0.52710  Biso   1.000  C
  C116     1.0000 0.01104  0.82028  0.93769  Biso   1.000  C
  C117     1.0000 0.58647  0.99592  0.34608  Biso   1.000  C
  C118     1.0000 0.68850  0.40048  0.01591  Biso   1.000  C
  C119     1.0000 0.49100  0.80314  0.60457  Biso   1.000  C
  C120     1.0000 0.08998  0.97915  0.21351  Biso   1.000  C
  C121     1.0000 0.82514  0.99697  0.11488  Biso   1.000  C
  C122     1.0000 0.08983  0.80167  0.02629  Biso   1.000  C
  C123     1.0000 0.00632  0.09357  0.85480  Biso   1.000  C
  C124     1.0000 0.32067  0.98006  0.44833  Biso   1.000  C
  C125     1.0000 0.57354  0.79861  0.51571  Biso   1.000  C
  C126     1.0000 0.49759  0.07218  0.71774  Biso   1.000  C
  C127     1.0000 0.68957  0.47071  0.11481  Biso   1.000  C
  C128     1.0000 0.42262  0.31174  0.04212  Biso   1.000  C
  C129     1.0000 0.49640  0.57051  0.83912  Biso   1.000  C
  C130     1.0000 0.18903  0.50578  0.45401  Biso   1.000  C
  C131     1.0000 0.92477  0.30581  0.54083  Biso   1.000  C
  C132     1.0000 0.99457  0.58447  0.71311  Biso   1.000  C
  C133     1.0000 0.17929  0.98456  0.94713  Biso   1.000  C
  C134     1.0000 0.92105  0.16966  0.04336  Biso   1.000  C
  C135     1.0000 0.99142  0.89679  0.21042  Biso   1.000  C
  C136     1.0000 0.67781  0.97541  0.61356  Biso   1.000  C
  C137     1.0000 0.42433  0.17458  0.53742  Biso   1.000  C
  C138     1.0000 0.49877  0.91014  0.34546  Biso   1.000  C
  C139     1.0000 0.32519  0.49635  0.95171  Biso   1.000  C
  C140     1.0000 0.59334  0.66912  0.01566  Biso   1.000  C
  C141     1.0000 0.51326  0.40894  0.21890  Biso   1.000  C
  C142     1.0000 0.81821  0.49087  0.61536  Biso   1.000  C
  C143     1.0000 0.07382  0.67753  0.52419  Biso   1.000  C
  C144     1.0000 0.01809  0.40301  0.35632  Biso   1.000  C
  C145     1.0000 0.32902  0.49739  0.12564  Biso   1.000  C
  C146     1.0000 0.09566  0.31549  0.52906  Biso   1.000  C
  C147     1.0000 0.49777  0.08419  0.35996  Biso   1.000  C
  C148     1.0000 0.82384  0.47273  0.44374  Biso   1.000  C
  C149     1.0000 0.59069  0.30760  0.02782  Biso   1.000  C
  C150     1.0000 0.00749  0.07007  0.21553  Biso   1.000  C
  C151     1.0000 0.18325  0.98666  0.11852  Biso   1.000  C
  C152     1.0000 0.40167  0.82029  0.51930  Biso   1.000  C
  C153     1.0000 0.99217  0.57262  0.35295  Biso   1.000  C
  C154     1.0000 0.67826  0.98616  0.44107  Biso   1.000  C
  C155     1.0000 0.91833  0.81048  0.01790  Biso   1.000  C
  C156     1.0000 0.50579  0.58365  0.20810  Biso   1.000  C
  C157     1.0000 0.68736  0.49073  0.94374  Biso   1.000  C
  C158     1.0000 0.90223  0.67169  0.54483  Biso   1.000  C
  C159     1.0000 0.49616  0.89817  0.70252  Biso   1.000  C
  C160     1.0000 0.17963  0.50689  0.62650  Biso   1.000  C
  C161     1.0000 0.42021  0.67160  0.01609  Biso   1.000  C
  C162     1.0000 0.00659  0.92374  0.84886  Biso   1.000  C
  C163     1.0000 0.82693  0.97866  0.94129  Biso   1.000  C
  C164     1.0000 0.59718  0.17158  0.54815  Biso   1.000  C
  C165     1.0000 0.00381  0.41095  0.71805  Biso   1.000  C
  C166     1.0000 0.31783  0.00704  0.61794  Biso   1.000  C
  C167     1.0000 0.09206  0.17419  0.04049  Biso   1.000  C
  C168     1.0000 0.50151  0.39916  0.86023  Biso   1.000  C
  C169     1.0000 0.98986  0.80333  0.11144  Biso   1.000  C
  C170     1.0000 0.09204  0.01126  0.85017  Biso   1.000  C
  C171     1.0000 0.82950  0.07670  0.01152  Biso   1.000  C
  C172     1.0000 0.48381  0.81353  0.43385  Biso   1.000  C
  C173     1.0000 0.58687  0.97623  0.71120  Biso   1.000  C
  C174     1.0000 0.32566  0.08482  0.51603  Biso   1.000  C
  C175     1.0000 0.51503  0.30829  0.12798  Biso   1.000  C
  C176     1.0000 0.41033  0.48530  0.84926  Biso   1.000  C
  C177     1.0000 0.68912  0.57202  0.02455  Biso   1.000  C
  C178     1.0000 0.01479  0.30970  0.44981  Biso   1.000  C
  C179     1.0000 0.91124  0.49257  0.71322  Biso   1.000  C
  C180     1.0000 0.17403  0.58822  0.54016  Biso   1.000  C
  C181     1.0000 0.00503  0.17875  0.95381  Biso   1.000  C
  C182     1.0000 0.91640  0.99735  0.21360  Biso   1.000  C
  C183     1.0000 0.17921  0.90180  0.02737  Biso   1.000  C
  C184     1.0000 0.50049  0.17248  0.62973  Biso   1.000  C
  C185     1.0000 0.41410  0.99014  0.35224  Biso   1.000  C
  C186     1.0000 0.66863  0.89618  0.52301  Biso   1.000  C
  C187     1.0000 0.49537  0.66918  0.93051  Biso   1.000  C
  C188     1.0000 0.59970  0.48698  0.21195  Biso   1.000  C
  C189     1.0000 0.32481  0.40532  0.03919  Biso   1.000  C
  C190     1.0000 0.00761  0.67933  0.61700  Biso   1.000  C
  C191     1.0000 0.09699  0.49518  0.35642  Biso   1.000  C
  C192     1.0000 0.82774  0.39788  0.52935  Biso   1.000  C
  C193     1.0000 0.85398  0.98132  0.92500  Biso   1.000  C
  C194     1.0000 0.90369  0.83686  0.02490  Biso   1.000  C
  C195     1.0000 0.00517  0.90587  0.87575  Biso   1.000  C
  C196     1.0000 0.34526  0.00445  0.63301  Biso   1.000  C
  C197     1.0000 0.38613  0.84714  0.52698  Biso   1.000  C
  C198     1.0000 0.49367  0.88341  0.67442  Biso   1.000  C
  C199     1.0000 0.65946  0.49087  0.92985  Biso   1.000  C
  C200     1.0000 0.60839  0.33527  0.02525  Biso   1.000  C
  C201     1.0000 0.49634  0.38428  0.88733  Biso   1.000  C
  C202     1.0000 0.15146  0.50658  0.64136  Biso   1.000  C
  C203     1.0000 0.11113  0.34323  0.52449  Biso   1.000  C
  C204     1.0000 0.01053  0.39518  0.69172  Biso   1.000  C
  C205     1.0000 0.15786  0.98585  0.13522  Biso   1.000  C
  C206     1.0000 0.10858  0.14660  0.03538  Biso   1.000  C
  C207     1.0000 0.00831  0.08774  0.18933  Biso   1.000  C
  C208     1.0000 0.65123  0.99088  0.42571  Biso   1.000  C
  C209     1.0000 0.60959  0.14274  0.54531  Biso   1.000  C
  C210     1.0000 0.50566  0.09745  0.38794  Biso   1.000  C
  C211     1.0000 0.35582  0.49428  0.14197  Biso   1.000  C
  C212     1.0000 0.40373  0.64466  0.01596  Biso   1.000  C
  C213     1.0000 0.50623  0.59619  0.17865  Biso   1.000  C
  C214     1.0000 0.85144  0.47717  0.42745  Biso   1.000  C
  C215     1.0000 0.88884  0.64400  0.53980  Biso   1.000  C
  C216     1.0000 0.98631  0.58974  0.38005  Biso   1.000  C
  C217     1.0000 0.10598  0.00751  0.87795  Biso   1.000  C
  C218     1.0000 0.85507  0.09226  0.01823  Biso   1.000  C
  C219     1.0000 0.98796  0.83066  0.12740  Biso   1.000  C
  C220     1.0000 0.60284  0.97683  0.68441  Biso   1.000  C
  C221     1.0000 0.35285  0.09781  0.52531  Biso   1.000  C
  C222     1.0000 0.48914  0.84160  0.41884  Biso   1.000  C
  C223     1.0000 0.39725  0.48451  0.87675  Biso   1.000  C
  C224     1.0000 0.66228  0.58649  0.02249  Biso   1.000  C
  C225     1.0000 0.51771  0.33646  0.14186  Biso   1.000  C
  C226     1.0000 0.89447  0.49058  0.68557  Biso   1.000  C
  C227     1.0000 0.14605  0.60122  0.53470  Biso   1.000  C
  C228     1.0000 0.01245  0.33743  0.43352  Biso   1.000  C
  C229     1.0000 0.90070  0.99889  0.18549  Biso   1.000  C
  C230     1.0000 0.15241  0.88416  0.02770  Biso   1.000  C
  C231     1.0000 0.00446  0.15389  0.93479  Biso   1.000  C
  C232     1.0000 0.39977  0.98288  0.37912  Biso   1.000  C
  C233     1.0000 0.64204  0.87953  0.51897  Biso   1.000  C
  C234     1.0000 0.50078  0.14450  0.64432  Biso   1.000  C
  C235     1.0000 0.61517  0.48190  0.18515  Biso   1.000  C
  C236     1.0000 0.35259  0.39081  0.03981  Biso   1.000  C
  C237     1.0000 0.49699  0.64179  0.91483  Biso   1.000  C
  C238     1.0000 0.11156  0.49593  0.38511  Biso   1.000  C
  C239     1.0000 0.85447  0.38288  0.53519  Biso   1.000  C
  C240     1.0000 0.00710  0.65288  0.63249  Biso   1.000  C
  C241     1.0000 0.60301  0.48806  0.87958  Biso   1.000  C
  C242     1.0000 0.84250  0.58835  0.52787  Biso   1.000  C
  C243     1.0000 0.48882  0.82906  0.62075  Biso   1.000  C
  C244     1.0000 0.10109  0.50204  0.69144  Biso   1.000  C
  C245     1.0000 0.35707  0.59221  0.02634  Biso   1.000  C
  C246     1.0000 0.01088  0.84913  0.92321  Biso   1.000  C
  C247     1.0000 0.90383  0.99448  0.87587  Biso   1.000  C
  C248     1.0000 0.65622  0.08805  0.53919  Biso   1.000  C
  C249     1.0000 0.01238  0.34483  0.63770  Biso   1.000  C
  C250     1.0000 0.39810  0.99920  0.68547  Biso   1.000  C
  C251     1.0000 0.15598  0.09323  0.03039  Biso   1.000  C
  C252     1.0000 0.49233  0.33543  0.94042  Biso   1.000  C
  C253     1.0000 0.40901  0.49157  0.19288  Biso   1.000  C
  C254     1.0000 0.15920  0.39850  0.52634  Biso   1.000  C
  C255     1.0000 0.51864  0.14921  0.44112  Biso   1.000  C
  C256     1.0000 0.90456  0.47839  0.37854  Biso   1.000  C
  C257     1.0000 0.66262  0.38442  0.01858  Biso   1.000  C
  C258     1.0000 0.00504  0.14388  0.14014  Biso   1.000  C
  C259     1.0000 0.10677  0.98084  0.18654  Biso   1.000  C
  C260     1.0000 0.33870  0.89790  0.54907  Biso   1.000  C
  C261     1.0000 0.98006  0.64598  0.43141  Biso   1.000  C
  C262     1.0000 0.60231  0.99618  0.37414  Biso   1.000  C
  C263     1.0000 0.85372  0.88814  0.04265  Biso   1.000  C
  C264     1.0000 0.50825  0.64471  0.12021  Biso   1.000  C
  C265     1.0000 0.00726  0.10789  0.88319  Biso   1.000  C
  C266     1.0000 0.85064  0.00195  0.13247  Biso   1.000  C
  C267     1.0000 0.10469  0.82963  0.02741  Biso   1.000  C
  C268     1.0000 0.49807  0.09021  0.69251  Biso   1.000  C
  C269     1.0000 0.34865  0.97818  0.43079  Biso   1.000  C
  C270     1.0000 0.58959  0.82554  0.51622  Biso   1.000  C
  C271     1.0000 0.49603  0.58861  0.86499  Biso   1.000  C
  C272     1.0000 0.66262  0.47317  0.13158  Biso   1.000  C
  C273     1.0000 0.40520  0.33982  0.04354  Biso   1.000  C
  C274     1.0000 0.00186  0.60013  0.68594  Biso   1.000  C
  C275     1.0000 0.16290  0.50101  0.43797  Biso   1.000  C
  C276     1.0000 0.90967  0.33242  0.53988  Biso   1.000  C
  C277     1.0000 0.98802  0.88200  0.18254  Biso   1.000  C
  C278     1.0000 0.15292  0.99434  0.93227  Biso   1.000  C
  C279     1.0000 0.90585  0.14317  0.03377  Biso   1.000  C
  C280     1.0000 0.50176  0.89147  0.37034  Biso   1.000  C
  C281     1.0000 0.65085  0.97581  0.63098  Biso   1.000  C
  C282     1.0000 0.40808  0.14771  0.53507  Biso   1.000  C
  C283     1.0000 0.51623  0.39260  0.19218  Biso   1.000  C
  C284     1.0000 0.35049  0.49111  0.93413  Biso   1.000  C
  C285     1.0000 0.60824  0.64065  0.01701  Biso   1.000  C
  C286     1.0000 0.02008  0.38670  0.38228  Biso   1.000  C
  C287     1.0000 0.84559  0.49357  0.63169  Biso   1.000  C
  C288     1.0000 0.09152  0.65222  0.52701  Biso   1.000  C
  C289     1.0000 0.33505  0.86746  0.54280  Biso   1.000  C
  C290     1.0000 0.49432  0.33183  0.90964  Biso   1.000  C
  C291     1.0000 0.87333  0.47682  0.37535  Biso   1.000  C
  C292     1.0000 0.85097  0.85760  0.03609  Biso   1.000  C
  C293     1.0000 0.01296  0.34254  0.66942  Biso   1.000  C
  C294     1.0000 0.37793  0.49686  0.19302  Biso   1.000  C
  C295     1.0000 0.16277  0.36603  0.52586  Biso   1.000  C
  C296     1.0000 0.01033  0.85015  0.89182  Biso   1.000  C
  C297     1.0000 0.63316  0.99538  0.37272  Biso   1.000  C
  C298     1.0000 0.66250  0.35366  0.01701  Biso   1.000  C
  C299     1.0000 0.48909  0.82824  0.65254  Biso   1.000  C
  C300     1.0000 0.13770  0.98257  0.18811  Biso   1.000  C
  C301     1.0000 0.66040  0.11976  0.53718  Biso   1.000  C
  C302     1.0000 0.50356  0.64776  0.15268  Biso   1.000  C
  C303     1.0000 0.13121  0.50061  0.69324  Biso   1.000  C
  C304     1.0000 0.16009  0.12436  0.02919  Biso   1.000  C
  C305     1.0000 0.97991  0.64317  0.39981  Biso   1.000  C
  C306     1.0000 0.63535  0.48759  0.87771  Biso   1.000  C
  C307     1.0000 0.83813  0.61967  0.52987  Biso   1.000  C
  C308     1.0000 0.00626  0.14204  0.17096  Biso   1.000  C
  C309     1.0000 0.36575  0.99909  0.68556  Biso   1.000  C
  C310     1.0000 0.35243  0.62305  0.02346  Biso   1.000  C
  C311     1.0000 0.51297  0.15115  0.41101  Biso   1.000  C
  C312     1.0000 0.87240  0.98923  0.87269  Biso   1.000  C
  C313     1.0000 0.16358  0.50362  0.40661  Biso   1.000  C
  C314     1.0000 0.37701  0.15032  0.52907  Biso   1.000  C
  C315     1.0000 0.51803  0.36035  0.19359  Biso   1.000  C
  C316     1.0000 0.66589  0.47064  0.16355  Biso   1.000  C
  C317     1.0000 0.87531  0.14476  0.02708  Biso   1.000  C
  C318     1.0000 0.01651  0.35547  0.38066  Biso   1.000  C
  C319     1.0000 0.34723  0.97892  0.39992  Biso   1.000  C
  C320     1.0000 0.12178  0.65427  0.53009  Biso   1.000  C
  C321     1.0000 0.98676  0.85120  0.18071  Biso   1.000  C
  C322     1.0000 0.84866  0.99779  0.16369  Biso   1.000  C
  C323     1.0000 0.63930  0.63943  0.02335  Biso   1.000  C
  C324     1.0000 0.49541  0.86090  0.36731  Biso   1.000  C
  C325     1.0000 0.84305  0.49084  0.66244  Biso   1.000  C
  C326     1.0000 0.62155  0.82578  0.51763  Biso   1.000  C
  C327     1.0000 0.49247  0.61977  0.86301  Biso   1.000  C
  C328     1.0000 0.34711  0.48910  0.90197  Biso   1.000  C
  C329     1.0000 0.13567  0.82893  0.02662  Biso   1.000  C
  C330     1.0000 0.00296  0.63222  0.68617  Biso   1.000  C
  C331     1.0000 0.65397  0.97208  0.66249  Biso   1.000  C
  C332     1.0000 0.87778  0.32994  0.54042  Biso   1.000  C
  C333     1.0000 0.01273  0.13906  0.88153  Biso   1.000  C
  C334     1.0000 0.15682  0.99523  0.90059  Biso   1.000  C
  C335     1.0000 0.37477  0.33809  0.04102  Biso   1.000  C
  C336     1.0000 0.49606  0.12058  0.69521  Biso   1.000  C
  C337     1.0000 0.65745  0.48809  0.89916  Biso   1.000  C
  C338     1.0000 0.85782  0.64232  0.53480  Biso   1.000  C
  C339     1.0000 0.49290  0.85031  0.67435  Biso   1.000  C
  C340     1.0000 0.15315  0.50267  0.67205  Biso   1.000  C
  C341     1.0000 0.37329  0.64509  0.02089  Biso   1.000  C
  C342     1.0000 0.00910  0.87359  0.87227  Biso   1.000  C
  C343     1.0000 0.85059  0.98480  0.89418  Biso   1.000  C
  C344     1.0000 0.64027  0.14216  0.54104  Biso   1.000  C
  C345     1.0000 0.01169  0.36335  0.69123  Biso   1.000  C
  C346     1.0000 0.34438  0.00309  0.66401  Biso   1.000  C
  C347     1.0000 0.13952  0.14759  0.03148  Biso   1.000  C
  C348     1.0000 0.49677  0.35223  0.88721  Biso   1.000  C
  C349     1.0000 0.35673  0.49825  0.17223  Biso   1.000  C
  C350     1.0000 0.14263  0.34425  0.52602  Biso   1.000  C
  C351     1.0000 0.50787  0.13023  0.38814  Biso   1.000  C
  C352     1.0000 0.85036  0.47699  0.39639  Biso   1.000  C
  C353     1.0000 0.63986  0.33264  0.01964  Biso   1.000  C
  C354     1.0000 0.00823  0.11912  0.19104  Biso   1.000  C
  C355     1.0000 0.15947  0.98386  0.16654  Biso   1.000  C
  C356     1.0000 0.35544  0.84631  0.53397  Biso   1.000  C
  C357     1.0000 0.98178  0.62136  0.37950  Biso   1.000  C
  C358     1.0000 0.65301  0.99263  0.39445  Biso   1.000  C
  C359     1.0000 0.87274  0.83573  0.02840  Biso   1.000  C
  C360     1.0000 0.50331  0.62805  0.17703  Biso   1.000  C
  C361     1.0000 0.00984  0.15764  0.90470  Biso   1.000  C
  C362     1.0000 0.86969  0.99697  0.18639  Biso   1.000  C
  C363     1.0000 0.15632  0.85238  0.02615  Biso   1.000  C
  C364     1.0000 0.49616  0.14416  0.67574  Biso   1.000  C
  C365     1.0000 0.36860  0.98289  0.37938  Biso   1.000  C
  C366     1.0000 0.64215  0.84797  0.51872  Biso   1.000  C
  C367     1.0000 0.49316  0.64260  0.88441  Biso   1.000  C
  C368     1.0000 0.64542  0.47372  0.18669  Biso   1.000  C
  C369     1.0000 0.35225  0.35911  0.03905  Biso   1.000  C
  C370     1.0000 0.00689  0.65401  0.66542  Biso   1.000  C
  C371     1.0000 0.14200  0.50246  0.38505  Biso   1.000  C
  C372     1.0000 0.85582  0.35140  0.53758  Biso   1.000  C
  C373     1.0000 0.98527  0.83026  0.15833  Biso   1.000  C
  C374     1.0000 0.13659  0.00057  0.87863  Biso   1.000  C
  C375     1.0000 0.85470  0.12395  0.01918  Biso   1.000  C
  C376     1.0000 0.48890  0.83955  0.38827  Biso   1.000  C
  C377     1.0000 0.63399  0.97312  0.68515  Biso   1.000  C
  C378     1.0000 0.35527  0.12938  0.52548  Biso   1.000  C
  C379     1.0000 0.52050  0.33769  0.17335  Biso   1.000  C
  C380     1.0000 0.36585  0.48633  0.87856  Biso   1.000  C
  C381     1.0000 0.66159  0.61802  0.02576  Biso   1.000  C
  C382     1.0000 0.01602  0.33420  0.40261  Biso   1.000  C
  C383     1.0000 0.86324  0.49017  0.68501  Biso   1.000  C
  C384     1.0000 0.14454  0.63375  0.53586  Biso   1.000  C
  C385     1.0000 0.18788  0.13803  0.02501  Biso   1.000  C
  C386     1.0000 0.00922  0.16784  0.18869  Biso   1.000  C
  C387     1.0000 0.15259  0.98215  0.21460  Biso   1.000  C
  C388     1.0000 0.68810  0.13347  0.53181  Biso   1.000  C
  C389     1.0000 0.51342  0.17852  0.39500  Biso   1.000  C
  C390     1.0000 0.64847  0.99549  0.34602  Biso   1.000  C
  C391     1.0000 0.32546  0.63827  0.02364  Biso   1.000  C
  C392     1.0000 0.49867  0.67497  0.16661  Biso   1.000  C
  C393     1.0000 0.36435  0.50136  0.22052  Biso   1.000  C
  C394     1.0000 0.81111  0.63350  0.52527  Biso   1.000  C
  C395     1.0000 0.97933  0.66958  0.38270  Biso   1.000  C
  C396     1.0000 0.85848  0.47440  0.34830  Biso   1.000  C
  C397     1.0000 0.82435  0.84164  0.03326  Biso   1.000  C
  C398     1.0000 0.01294  0.82406  0.87470  Biso   1.000  C
  C399     1.0000 0.85761  0.98661  0.84552  Biso   1.000  C
  C400     1.0000 0.30890  0.85198  0.54452  Biso   1.000  C
  C401     1.0000 0.48826  0.80126  0.66741  Biso   1.000  C
  C402     1.0000 0.35053  0.99689  0.71206  Biso   1.000  C
  C403     1.0000 0.68817  0.33682  0.01379  Biso   1.000  C
  C404     1.0000 0.49176  0.30493  0.89546  Biso   1.000  C
  C405     1.0000 0.64982  0.48703  0.85040  Biso   1.000  C
  C406     1.0000 0.19057  0.35212  0.52508  Biso   1.000  C
  C407     1.0000 0.01840  0.31559  0.68426  Biso   1.000  C
  C408     1.0000 0.14600  0.49741  0.72021  Biso   1.000  C
  C409     1.0000 0.15280  0.99781  0.85220  Biso   1.000  C
  C410     1.0000 0.82887  0.14100  0.01445  Biso   1.000  C
  C411     1.0000 0.98015  0.80287  0.17360  Biso   1.000  C
  C412     1.0000 0.64935  0.97042  0.71198  Biso   1.000  C
  C413     1.0000 0.32865  0.14530  0.52088  Biso   1.000  C
  C414     1.0000 0.48345  0.81363  0.37030  Biso   1.000  C
  C415     1.0000 0.34798  0.48596  0.85290  Biso   1.000  C
  C416     1.0000 0.68769  0.63510  0.03029  Biso   1.000  C
  C417     1.0000 0.52081  0.31118  0.19163  Biso   1.000  C
  C418     1.0000 0.84650  0.48916  0.71227  Biso   1.000  C
  C419     1.0000 0.17086  0.65108  0.53723  Biso   1.000  C
  C420     1.0000 0.01531  0.30781  0.38708  Biso   1.000  C
  C421     1.0000 0.85388  0.99695  0.21311  Biso   1.000  C
  C422     1.0000 0.18412  0.83836  0.02493  Biso   1.000  C
  C423     1.0000 0.01767  0.18508  0.89243  Biso   1.000  C
  C424     1.0000 0.35107  0.98706  0.35333  Biso   1.000  C
  C425     1.0000 0.67037  0.83297  0.52265  Biso   1.000  C
  C426     1.0000 0.49600  0.16966  0.69144  Biso   1.000  C
  C427     1.0000 0.66174  0.47133  0.21244  Biso   1.000  C
  C428     1.0000 0.32661  0.34321  0.03519  Biso   1.000  C
  C429     1.0000 0.49051  0.66753  0.86789  Biso   1.000  C
  C430     1.0000 0.15860  0.50560  0.35905  Biso   1.000  C
  C431     1.0000 0.82939  0.33394  0.53434  Biso   1.000  C
  C432     1.0000 0.00839  0.68172  0.68036  Biso   1.000  C
  C433     1.0000 0.01821  0.15601  0.85673  Biso   1.000  C
  C434     1.0000 0.82111  0.99561  0.17839  Biso   1.000  C
  C435     1.0000 0.15313  0.80265  0.02213  Biso   1.000  C
  C436     1.0000 0.49763  0.13446  0.72451  Biso   1.000  C
  C437     1.0000 0.31888  0.97957  0.38516  Biso   1.000  C
  C438     1.0000 0.63745  0.79849  0.51952  Biso   1.000  C
  C439     1.0000 0.49028  0.63316  0.83599  Biso   1.000  C
  C440     1.0000 0.69227  0.46485  0.17723  Biso   1.000  C
  C441     1.0000 0.35796  0.31041  0.03936  Biso   1.000  C
  C442     1.0000 0.00280  0.64816  0.71346  Biso   1.000  C
  C443     1.0000 0.19083  0.50772  0.39118  Biso   1.000  C
  C444     1.0000 0.86263  0.30095  0.53894  Biso   1.000  C
  C445     1.0000 0.98725  0.83368  0.20675  Biso   1.000  C
  C446     1.0000 0.18381  0.98951  0.88555  Biso   1.000  C
  C447     1.0000 0.86039  0.17244  0.02604  Biso   1.000  C
  C448     1.0000 0.49095  0.84820  0.33947  Biso   1.000  C
  C449     1.0000 0.68136  0.96870  0.67660  Biso   1.000  C
  C450     1.0000 0.36227  0.17796  0.52754  Biso   1.000  C
  C451     1.0000 0.51809  0.34600  0.22092  Biso   1.000  C
  C452     1.0000 0.31805  0.49147  0.88912  Biso   1.000  C
  C453     1.0000 0.65510  0.66687  0.02697  Biso   1.000  C
  C454     1.0000 0.01487  0.34019  0.35430  Biso   1.000  C
  C455     1.0000 0.81607  0.48851  0.67755  Biso   1.000  C
  C456     1.0000 0.13755  0.68067  0.52697  Biso   1.000  C
  C457     1.0000 0.98481  0.63635  0.35125  Biso   1.000  C
  C458     1.0000 0.31756  0.00331  0.68098  Biso   1.000  C
  C459     1.0000 0.65470  0.30562  0.01900  Biso   1.000  C
  C460     1.0000 0.49766  0.64626  0.20228  Biso   1.000  C
  C461     1.0000 0.82369  0.98284  0.87835  Biso   1.000  C
  C462     1.0000 0.15973  0.31853  0.52806  Biso   1.000  C
  C463     1.0000 0.50304  0.14723  0.36242  Biso   1.000  C
  C464     1.0000 0.17954  0.50040  0.68908  Biso   1.000  C
  C465     1.0000 0.85593  0.80982  0.02269  Biso   1.000  C
  C466     1.0000 0.01014  0.13339  0.21946  Biso   1.000  C
  C467     1.0000 0.68338  0.48872  0.88212  Biso   1.000  C
  C468     1.0000 0.33969  0.81938  0.53199  Biso   1.000  C
  C469     1.0000 0.00989  0.34648  0.71718  Biso   1.000  C
  C470     1.0000 0.67998  0.98994  0.37809  Biso   1.000  C
  C471     1.0000 0.35680  0.67225  0.02155  Biso   1.000  C
  C472     1.0000 0.50022  0.33515  0.86123  Biso   1.000  C
  C473     1.0000 0.18520  0.98547  0.18253  Biso   1.000  C
  C474     1.0000 0.84011  0.66808  0.53421  Biso   1.000  C
  C475     1.0000 0.49600  0.83414  0.70097  Biso   1.000  C
  C476     1.0000 0.82464  0.47300  0.38098  Biso   1.000  C
  C477     1.0000 0.15616  0.17364  0.02970  Biso   1.000  C
  C478     1.0000 0.01045  0.85872  0.84379  Biso   1.000  C
  C479     1.0000 0.33029  0.50355  0.18803  Biso   1.000  C
  C480     1.0000 0.65863  0.16716  0.53772  Biso   1.000  C
  C481     1.0000 0.35433  0.79246  0.52487  Biso   1.000  C
  C482     1.0000 0.50467  0.35074  0.83385  Biso   1.000  C
  C483     1.0000 0.79802  0.46663  0.39667  Biso   1.000  C
  C484     1.0000 0.87217  0.78321  0.01767  Biso   1.000  C
  C485     1.0000 0.00367  0.36241  0.74433  Biso   1.000  C
  C486     1.0000 0.30246  0.50712  0.17349  Biso   1.000  C
  C487     1.0000 0.14440  0.29031  0.53049  Biso   1.000  C
  C488     1.0000 0.00750  0.87761  0.81853  Biso   1.000  C
  C489     1.0000 0.70698  0.98345  0.39338  Biso   1.000  C
  C490     1.0000 0.63699  0.27792  0.02389  Biso   1.000  C
  C491     1.0000 0.50046  0.84948  0.72834  Biso   1.000  C
  C492     1.0000 0.21183  0.98809  0.16459  Biso   1.000  C
  C493     1.0000 0.64532  0.19493  0.54678  Biso   1.000  C
  C494     1.0000 0.49700  0.63280  0.23048  Biso   1.000  C
  C495     1.0000 0.20680  0.50121  0.67209  Biso   1.000  C
  C496     1.0000 0.14147  0.20061  0.03862  Biso   1.000  C
  C497     1.0000 0.99034  0.61939  0.32564  Biso   1.000  C
  C498     1.0000 0.71102  0.48746  0.89446  Biso   1.000  C
  C499     1.0000 0.85146  0.69593  0.54200  Biso   1.000  C
  C500     1.0000 0.00611  0.11572  0.24593  Biso   1.000  C
  C501     1.0000 0.28958  0.00572  0.66540  Biso   1.000  C
  C502     1.0000 0.37497  0.69942  0.02407  Biso   1.000  C
  C503     1.0000 0.49197  0.13453  0.33640  Biso   1.000  C
  C504     1.0000 0.79753  0.97708  0.89483  Biso   1.000  C
  C505     1.0000 0.63377  0.48937  0.82399  Biso   1.000  C
  C506     1.0000 0.78611  0.61532  0.51496  Biso   1.000  C
  C507     1.0000 0.48634  0.77346  0.64991  Biso   1.000  C
  C508     1.0000 0.12899  0.49275  0.74624  Biso   1.000  C
  C509     1.0000 0.30061  0.62060  0.02333  Biso   1.000  C
  C510     1.0000 0.01358  0.79585  0.88941  Biso   1.000  C
  C511     1.0000 0.87503  0.98777  0.81909  Biso   1.000  C
  C512     1.0000 0.71356  0.11546  0.52743  Biso   1.000  C
  C513     1.0000 0.02335  0.28954  0.66756  Biso   1.000  C
  C514     1.0000 0.36557  0.99164  0.73791  Biso   1.000  C
  C515     1.0000 0.21290  0.12032  0.01807  Biso   1.000  C
  C516     1.0000 0.49138  0.27749  0.91107  Biso   1.000  C
  C517     1.0000 0.38058  0.49843  0.24814  Biso   1.000  C
  C518     1.0000 0.21817  0.37021  0.52203  Biso   1.000  C
  C519     1.0000 0.52205  0.20496  0.41083  Biso   1.000  C
  C520     1.0000 0.87755  0.47496  0.32246  Biso   1.000  C
  C521     1.0000 0.71485  0.35289  0.00826  Biso   1.000  C
  C522     1.0000 0.01325  0.19705  0.17451  Biso   1.000  C
  C523     1.0000 0.13717  0.97966  0.24287  Biso   1.000  C
  C524     1.0000 0.28175  0.86835  0.55041  Biso   1.000  C
  C525     1.0000 0.97393  0.69702  0.39868  Biso   1.000  C
  C526     1.0000 0.63216  0.99812  0.31910  Biso   1.000  C
  C527     1.0000 0.79783  0.85777  0.03815  Biso   1.000  C
  C528     1.0000 0.49712  0.70190  0.14822  Biso   1.000  C
  C529     1.0000 0.80294  0.12330  0.00569  Biso   1.000  C
  C530     1.0000 0.97898  0.77510  0.15731  Biso   1.000  C
  C531     1.0000 0.13936  0.00373  0.82361  Biso   1.000  C
  C532     1.0000 0.30096  0.13198  0.51294  Biso   1.000  C
  C533     1.0000 0.47795  0.78616  0.38660  Biso   1.000  C
  C534     1.0000 0.63302  0.97037  0.74060  Biso   1.000  C
  C535     1.0000 0.71603  0.62121  0.03158  Biso   1.000  C
  C536     1.0000 0.52261  0.28307  0.17687  Biso   1.000  C
  C537     1.0000 0.36293  0.48364  0.82487  Biso   1.000  C
  C538     1.0000 0.19886  0.63726  0.54079  Biso   1.000  C
  C539     1.0000 0.01900  0.28065  0.40392  Biso   1.000  C
  C540     1.0000 0.86246  0.49016  0.74014  Biso   1.000  C
  C541     1.0000 0.21059  0.85613  0.02497  Biso   1.000  C
  C542     1.0000 0.02034  0.21010  0.90995  Biso   1.000  C
  C543     1.0000 0.86829  0.99991  0.24177  Biso   1.000  C
  C544     1.0000 0.69693  0.84931  0.52527  Biso   1.000  C
  C545     1.0000 0.49728  0.19804  0.67646  Biso   1.000  C
  C546     1.0000 0.36667  0.99572  0.32645  Biso   1.000  C
  C547     1.0000 0.29888  0.35731  0.03114  Biso   1.000  C
  C548     1.0000 0.48738  0.69484  0.88352  Biso   1.000  C
  C549     1.0000 0.64668  0.47426  0.24191  Biso   1.000  C
  C550     1.0000 0.80222  0.34888  0.52788  Biso   1.000  C
  C551     1.0000 0.01403  0.70833  0.66201  Biso   1.000  C
  C552     1.0000 0.14453  0.50300  0.33169  Biso   1.000  C
  C553     1.0000 0.01871  0.14116  0.82823  Biso   1.000  C
  C554     1.0000 0.79479  0.99398  0.16059  Biso   1.000  C
  C555     1.0000 0.13846  0.77542  0.01647  Biso   1.000  C
  C556     1.0000 0.49829  0.11734  0.74921  Biso   1.000  C
  C557     1.0000 0.29276  0.97877  0.40152  Biso   1.000  C
  C558     1.0000 0.62110  0.77176  0.51846  Biso   1.000  C
  C559     1.0000 0.49202  0.61604  0.80881  Biso   1.000  C
  C560     1.0000 0.71883  0.46068  0.16012  Biso   1.000  C
  C561     1.0000 0.37411  0.28433  0.03870  Biso   1.000  C
  C562     1.0000 0.99403  0.63367  0.73873  Biso   1.000  C
  C563     1.0000 0.21816  0.50965  0.40796  Biso   1.000  C
  C564     1.0000 0.87976  0.27441  0.54212  Biso   1.000  C
  C565     1.0000 0.98741  0.84825  0.23538  Biso   1.000  C
  C566     1.0000 0.20902  0.98087  0.90132  Biso   1.000  C
  C567     1.0000 0.87616  0.19968  0.03344  Biso   1.000  C
  C568     1.0000 0.49107  0.86565  0.31421  Biso   1.000  C
  C569     1.0000 0.70862  0.96916  0.66024  Biso   1.000  C
  C570     1.0000 0.37887  0.20345  0.53379  Biso   1.000  C
  C571     1.0000 0.51779  0.36274  0.24729  Biso   1.000  C
  C572     1.0000 0.29192  0.49804  0.90769  Biso   1.000  C
  C573     1.0000 0.64077  0.69443  0.02637  Biso   1.000  C
  C574     1.0000 0.01163  0.35691  0.32692  Biso   1.000  C
  C575     1.0000 0.78891  0.48737  0.66108  Biso   1.000  C
  C576     1.0000 0.12046  0.70721  0.51948  Biso   1.000  C
  C577     1.0000 0.30135  0.50365  0.14058  Biso   1.000  C
  C578     1.0000 0.11261  0.29000  0.53151  Biso   1.000  C
  C579     1.0000 0.48917  0.10271  0.33468  Biso   1.000  C
  C580     1.0000 0.79675  0.46658  0.42840  Biso   1.000  C
  C581     1.0000 0.60624  0.27978  0.02527  Biso   1.000  C
  C582     1.0000 0.00639  0.08455  0.24363  Biso   1.000  C
  C583     1.0000 0.21109  0.98741  0.13267  Biso   1.000  C
  C584     1.0000 0.38498  0.79353  0.51938  Biso   1.000  C
  C585     1.0000 0.99429  0.58772  0.32584  Biso   1.000  C
  C586     1.0000 0.70462  0.98220  0.42429  Biso   1.000  C
  C587     1.0000 0.90213  0.78367  0.01424  Biso   1.000  C
  C588     1.0000 0.50227  0.60227  0.23282  Biso   1.000  C
  C589     1.0000 0.71330  0.48893  0.92617  Biso   1.000  C
  C590     1.0000 0.88364  0.69759  0.54863  Biso   1.000  C
  C591     1.0000 0.50138  0.88060  0.72951  Biso   1.000  C
  C592     1.0000 0.20626  0.50452  0.64142  Biso   1.000  C
  C593     1.0000 0.40634  0.69839  0.02192  Biso   1.000  C
  C594     1.0000 0.00792  0.90960  0.82080  Biso   1.000  C
  C595     1.0000 0.79924  0.97589  0.92695  Biso   1.000  C
  C596     1.0000 0.61474  0.19690  0.54942  Biso   1.000  C
  C597     1.0000 0.99980  0.39388  0.74428  Biso   1.000  C
  C598     1.0000 0.28987  0.00905  0.63410  Biso   1.000  C
  C599     1.0000 0.10938  0.20037  0.04261  Biso   1.000  C
  C600     1.0000 0.50772  0.38170  0.83482  Biso   1.000  C
  C601     1.0000 0.20678  0.97832  0.93323  Biso   1.000  C
  C602     1.0000 0.90545  0.19902  0.04385  Biso   1.000  C
  C603     1.0000 0.99267  0.87975  0.23664  Biso   1.000  C
  C604     1.0000 0.70679  0.97012  0.62910  Biso   1.000  C
  C605     1.0000 0.40956  0.20279  0.53883  Biso   1.000  C
  C606     1.0000 0.49419  0.89713  0.31551  Biso   1.000  C
  C607     1.0000 0.29720  0.50120  0.93863  Biso   1.000  C
  C608     1.0000 0.60974  0.69541  0.01904  Biso   1.000  C
  C609     1.0000 0.51514  0.39479  0.24686  Biso   1.000  C
  C610     1.0000 0.79019  0.48923  0.63047  Biso   1.000  C
  C611     1.0000 0.08877  0.70506  0.51797  Biso   1.000  C
  C612     1.0000 0.01341  0.38792  0.32831  Biso   1.000  C
  C613     1.0000 0.79679  0.99494  0.12919  Biso   1.000  C
  C614     1.0000 0.10580  0.77573  0.01916  Biso   1.000  C
  C615     1.0000 0.01130  0.11046  0.82849  Biso   1.000  C
  C616     1.0000 0.29297  0.97843  0.43256  Biso   1.000  C
  C617     1.0000 0.58898  0.77169  0.51499  Biso   1.000  C
  C618     1.0000 0.49687  0.08476  0.74791  Biso   1.000  C
  C619     1.0000 0.71650  0.46244  0.12914  Biso   1.000  C
  C620     1.0000 0.40633  0.28554  0.03891  Biso   1.000  C
  C621     1.0000 0.49587  0.58564  0.81105  Biso   1.000  C
  C622     1.0000 0.21633  0.50853  0.43931  Biso   1.000  C
  C623     1.0000 0.91132  0.27758  0.54405  Biso   1.000  C
  C624     1.0000 0.98830  0.60207  0.73906  Biso   1.000  C
  C625     1.0000 0.01375  0.20762  0.94076  Biso   1.000  C
  C626     1.0000 0.90045  0.00076  0.24014  Biso   1.000  C
  C627     1.0000 0.20741  0.88849  0.02624  Biso   1.000  C
  C628     1.0000 0.50038  0.19934  0.64553  Biso   1.000  C
  C629     1.0000 0.39790  0.99874  0.32695  Biso   1.000  C
  C630     1.0000 0.69529  0.88022  0.52569  Biso   1.000  C
  C631     1.0000 0.48960  0.69493  0.91500  Biso   1.000  C
  C632     1.0000 0.61568  0.48268  0.24083  Biso   1.000  C
  C633     1.0000 0.29815  0.38929  0.03411  Biso   1.000  C
  C634     1.0000 0.01151  0.70690  0.63134  Biso   1.000  C
  C635     1.0000 0.11416  0.49783  0.33084  Biso   1.000  C
  C636     1.0000 0.80083  0.38062  0.52640  Biso   1.000  C
  C637     1.0000 0.98384  0.77521  0.12631  Biso   1.000  C
  C638     1.0000 0.10769  0.00949  0.82322  Biso   1.000  C
  C639     1.0000 0.80264  0.09217  0.00295  Biso   1.000  C
  C640     1.0000 0.47637  0.78647  0.41810  Biso   1.000  C
  C641     1.0000 0.60003  0.97181  0.73913  Biso   1.000  C
  C642     1.0000 0.29955  0.10151  0.50879  Biso   1.000  C
  C643     1.0000 0.52101  0.28178  0.14583  Biso   1.000  C
  C644     1.0000 0.39363  0.48577  0.82398  Biso   1.000  C
  C645     1.0000 0.71630  0.58854  0.03016  Biso   1.000  C
  C646     1.0000 0.01930  0.28136  0.43491  Biso   1.000  C
  C647     1.0000 0.89412  0.49173  0.74013  Biso   1.000  C
  C648     1.0000 0.19876  0.60556  0.54370  Biso   1.000  C
  C649     1.0000 0.97146  0.69757  0.42861  Biso   1.000  C
  C650     1.0000 0.39686  0.99030  0.73978  Biso   1.000  C
  C651     1.0000 0.71449  0.38514  0.01067  Biso   1.000  C
  C652     1.0000 0.49895  0.69901  0.11733  Biso   1.000  C
  C653     1.0000 0.90712  0.99344  0.81933  Biso   1.000  C
  C654     1.0000 0.21469  0.40105  0.52453  Biso   1.000  C
  C655     1.0000 0.52710  0.20386  0.44206  Biso   1.000  C
  C656     1.0000 0.09763  0.49492  0.74566  Biso   1.000  C
  C657     1.0000 0.79956  0.88968  0.04308  Biso   1.000  C
  C658     1.0000 0.01161  0.19934  0.14422  Biso   1.000  C
  C659     1.0000 0.60221  0.48965  0.82539  Biso   1.000  C
  C660     1.0000 0.28361  0.90000  0.55617  Biso   1.000  C
  C661     1.0000 0.02470  0.29189  0.63654  Biso   1.000  C
  C662     1.0000 0.60135  0.99960  0.31850  Biso   1.000  C
  C663     1.0000 0.30422  0.58989  0.02614  Biso   1.000  C
  C664     1.0000 0.48970  0.28137  0.94251  Biso   1.000  C
  C665     1.0000 0.10571  0.97755  0.24113  Biso   1.000  C
  C666     1.0000 0.78920  0.58387  0.51368  Biso   1.000  C
  C667     1.0000 0.49014  0.77364  0.61883  Biso   1.000  C
  C668     1.0000 0.90849  0.47461  0.32472  Biso   1.000  C
  C669     1.0000 0.20905  0.08868  0.02071  Biso   1.000  C
  C670     1.0000 0.01295  0.79386  0.92109  Biso   1.000  C
  C671     1.0000 0.41172  0.49253  0.24744  Biso   1.000  C
  C672     1.0000 0.71060  0.08435  0.53033  Biso   1.000  C
  C673     1.0000 0.19986  0.98983  0.83897  Biso   1.000  C
  C674     1.0000 0.81385  0.18664  0.01725  Biso   1.000  C
  C675     1.0000 0.98156  0.78592  0.21902  Biso   1.000  C
  C676     1.0000 0.69744  0.97387  0.72325  Biso   1.000  C
  C677     1.0000 0.31707  0.19324  0.52171  Biso   1.000  C
  C678     1.0000 0.48164  0.80400  0.32167  Biso   1.000  C
  C679     1.0000 0.30011  0.48811  0.84479  Biso   1.000  C
  C680     1.0000 0.70166  0.68119  0.02860  Biso   1.000  C
  C681     1.0000 0.51593  0.30090  0.23791  Biso   1.000  C
  C682     1.0000 0.79952  0.48809  0.72385  Biso   1.000  C
  C683     1.0000 0.18330  0.69691  0.53045  Biso   1.000  C
  C684     1.0000 0.01210  0.29274  0.34003  Biso   1.000  C
  C685     1.0000 0.80602  0.99877  0.22445  Biso   1.000  C
  C686     1.0000 0.20113  0.79277  0.02309  Biso   1.000  C
  C687     1.0000 0.02728  0.20345  0.84697  Biso   1.000  C
  C688     1.0000 0.30484  0.97841  0.33885  Biso   1.000  C
  C689     1.0000 0.68413  0.78713  0.51990  Biso   1.000  C
  C690     1.0000 0.49505  0.18130  0.73952  Biso   1.000  C
  C691     1.0000 0.70817  0.46200  0.22449  Biso   1.000  C
  C692     1.0000 0.31275  0.29515  0.03311  Biso   1.000  C
  C693     1.0000 0.48590  0.67943  0.82090  Biso   1.000  C
  C694     1.0000 0.20823  0.50762  0.34486  Biso   1.000  C
  C695     1.0000 0.81390  0.28875  0.53324  Biso   1.000  C
  C696     1.0000 0.00620  0.69568  0.72664  Biso   1.000  C
  C697     1.0000 0.69404  0.99489  0.33152  Biso   1.000  C
  C698     1.0000 0.30963  0.68467  0.02241  Biso   1.000  C
  C699     1.0000 0.01959  0.30153  0.73204  Biso   1.000  C
  C700     1.0000 0.19958  0.98404  0.22875  Biso   1.000  C
  C701     1.0000 0.79448  0.68077  0.52456  Biso   1.000  C
  C702     1.0000 0.49599  0.28734  0.85088  Biso   1.000  C
  C703     1.0000 0.81278  0.46994  0.33327  Biso   1.000  C
  C704     1.0000 0.20146  0.18560  0.02472  Biso   1.000  C
  C705     1.0000 0.49146  0.78528  0.71133  Biso   1.000  C
  C706     1.0000 0.31796  0.50676  0.23575  Biso   1.000  C
  C707     1.0000 0.70264  0.18127  0.52877  Biso   1.000  C
  C708     1.0000 0.01104  0.81024  0.82854  Biso   1.000  C
  C709     1.0000 0.30485  0.99694  0.72665  Biso   1.000  C
  C710     1.0000 0.70028  0.28936  0.01553  Biso   1.000  C
  C711     1.0000 0.98269  0.68190  0.33545  Biso   1.000  C
  C712     1.0000 0.80977  0.98363  0.83115  Biso   1.000  C
  C713     1.0000 0.20636  0.30510  0.52512  Biso   1.000  C
  C714     1.0000 0.49240  0.69390  0.21194  Biso   1.000  C
  C715     1.0000 0.19261  0.49627  0.73512  Biso   1.000  C
  C716     1.0000 0.80934  0.79380  0.02941  Biso   1.000  C
  C717     1.0000 0.50731  0.19644  0.34989  Biso   1.000  C
  C718     1.0000 0.69473  0.48396  0.83458  Biso   1.000  C
  C719     1.0000 0.29340  0.80470  0.53646  Biso   1.000  C
  C720     1.0000 0.01073  0.18186  0.23436  Biso   1.000  C
  C721     1.0000 0.50104  0.80593  0.29613  Biso   1.000  C
  C722     1.0000 0.30338  0.50252  0.81646  Biso   1.000  C
  C723     1.0000 0.78587  0.29185  0.54645  Biso   1.000  C
  C724     1.0000 0.95930  0.76264  0.22102  Biso   1.000  C
  C725     1.0000 0.77152  0.50069  0.71788  Biso   1.000  C
  C726     1.0000 0.29018  0.29569  0.01239  Biso   1.000  C
  C727     1.0000 0.99767  0.26494  0.34680  Biso   1.000  C
  C728     1.0000 0.22837  0.00089  0.84314  Biso   1.000  C
  C729     1.0000 0.70972  0.78842  0.53868  Biso   1.000  C
  C730     1.0000 0.49394  0.30616  0.25919  Biso   1.000  C
  C731     1.0000 0.72466  0.95828  0.72126  Biso   1.000  C
  C732     1.0000 0.22918  0.79796  0.00808  Biso   1.000  C
  C733     1.0000 0.48105  0.17512  0.76662  Biso   1.000  C
  C734     1.0000 0.70229  0.44725  0.25179  Biso   1.000  C
  C735     1.0000 0.18394  0.71942  0.50870  Biso   1.000  C
  C736     1.0000 0.01438  0.23232  0.85005  Biso   1.000  C
  C737     1.0000 0.23524  0.49286  0.34996  Biso   1.000  C
  C738     1.0000 0.72511  0.68186  0.04948  Biso   1.000  C
  C739     1.0000 0.02107  0.69379  0.75446  Biso   1.000  C
  C740     1.0000 0.80895  0.98467  0.25214  Biso   1.000  C
  C741     1.0000 0.29356  0.19469  0.49888  Biso   1.000  C
  C742     1.0000 0.46657  0.67734  0.79694  Biso   1.000  C
  C743     1.0000 0.31081  0.96308  0.31204  Biso   1.000  C
  C744     1.0000 0.80849  0.20766  0.03989  Biso   1.000  C
  C745     1.0000 0.99506  0.71137  0.33672  Biso   1.000  C
  C746     1.0000 0.28228  0.97502  0.72598  Biso   1.000  C
  C747     1.0000 0.72985  0.29527  0.02639  Biso   1.000  C
  C748     1.0000 0.50663  0.72250  0.21021  Biso   1.000  C
  C749     1.0000 0.81535  0.97367  0.80047  Biso   1.000  C
  C750     1.0000 0.23618  0.31019  0.53725  Biso   1.000  C
  C751     1.0000 0.51462  0.19019  0.32138  Biso   1.000  C
  C752     1.0000 0.22131  0.48201  0.73089  Biso   1.000  C
  C753     1.0000 0.77949  0.79912  0.02223  Biso   1.000  C
  C754     1.0000 0.02560  0.17707  0.26285  Biso   1.000  C
  C755     1.0000 0.69012  0.46453  0.81015  Biso   1.000  C
  C756     1.0000 0.26746  0.80678  0.55468  Biso   1.000  C
  C757     1.0000 0.01138  0.27039  0.72999  Biso   1.000  C
  C758     1.0000 0.69322  0.01695  0.30806  Biso   1.000  C
  C759     1.0000 0.28327  0.68104  0.03818  Biso   1.000  C
  C760     1.0000 0.51628  0.28745  0.82721  Biso   1.000  C
  C761     1.0000 0.22550  0.00124  0.22571  Biso   1.000  C
  C762     1.0000 0.80111  0.70860  0.51207  Biso   1.000  C
  C763     1.0000 0.51152  0.78434  0.73410  Biso   1.000  C
  C764     1.0000 0.78261  0.48124  0.33650  Biso   1.000  C
  C765     1.0000 0.23087  0.17913  0.03708  Biso   1.000  C
  C766     1.0000 0.98816  0.81032  0.80644  Biso   1.000  C
  C767     1.0000 0.32090  0.52134  0.26436  Biso   1.000  C
  C768     1.0000 0.69616  0.20887  0.51489  Biso   1.000  C
  C769     1.0000 0.49989  0.70670  0.82390  Biso   1.000  C
  C770     1.0000 0.80348  0.47311  0.75180  Biso   1.000  C
  C771     1.0000 0.68306  0.76174  0.49982  Biso   1.000  C
  C772     1.0000 0.99247  0.72358  0.71828  Biso   1.000  C
  C773     1.0000 0.27191  0.47502  0.85010  Biso   1.000  C
  C774     1.0000 0.19789  0.76469  0.03670  Biso   1.000  C
  C775     1.0000 0.04382  0.19732  0.82179  Biso   1.000  C
  C776     1.0000 0.69285  0.99144  0.74963  Biso   1.000  C
  C777     1.0000 0.81677  0.26315  0.51651  Biso   1.000  C
  C778     1.0000 0.51093  0.20904  0.73668  Biso   1.000  C
  C779     1.0000 0.19610  0.97709  0.80988  Biso   1.000  C
  C780     1.0000 0.31261  0.26935  0.05144  Biso   1.000  C
  C781     1.0000 0.53203  0.27481  0.24012  Biso   1.000  C
  C782     1.0000 0.20559  0.52245  0.31886  Biso   1.000  C
  C783     1.0000 0.31658  0.21569  0.54332  Biso   1.000  C
  C784     1.0000 0.02542  0.29593  0.31128  Biso   1.000  C
  C785     1.0000 0.73611  0.47610  0.21937  Biso   1.000  C
  C786     1.0000 0.79295  0.18680  0.99445  Biso   1.000  C
  C787     1.0000 0.00346  0.78651  0.24205  Biso   1.000  C
  C788     1.0000 0.27764  0.99336  0.34166  Biso   1.000  C
  C789     1.0000 0.20397  0.70047  0.55371  Biso   1.000  C
  C790     1.0000 0.46271  0.77827  0.32311  Biso   1.000  C
  C791     1.0000 0.77659  0.01230  0.21858  Biso   1.000  C
  C792     1.0000 0.70184  0.70456  0.00643  Biso   1.000  C
  C793     1.0000 0.49661  0.22556  0.35618  Biso   1.000  C
  C794     1.0000 0.29002  0.49065  0.23252  Biso   1.000  C
  C795     1.0000 0.20175  0.27620  0.51477  Biso   1.000  C
  C796     1.0000 0.99667  0.20964  0.23139  Biso   1.000  C
  C797     1.0000 0.81933  0.45301  0.30705  Biso   1.000  C
  C798     1.0000 0.69419  0.26043  0.00344  Biso   1.000  C
  C799     1.0000 0.97178  0.67378  0.30630  Biso   1.000  C
  C800     1.0000 0.19586  0.96657  0.25394  Biso   1.000  C
  C801     1.0000 0.29309  0.78070  0.51487  Biso   1.000  C
  C802     1.0000 0.47350  0.68836  0.23703  Biso   1.000  C
  C803     1.0000 0.71966  0.97635  0.33211  Biso   1.000  C
  C804     1.0000 0.81600  0.76424  0.03899  Biso   1.000  C
  C805     1.0000 0.46649  0.76545  0.71052  Biso   1.000  C
  C806     1.0000 0.71949  0.50347  0.83420  Biso   1.000  C
  C807     1.0000 0.76538  0.67584  0.53470  Biso   1.000  C
  C808     1.0000 0.03108  0.78611  0.82791  Biso   1.000  C
  C809     1.0000 0.18737  0.50762  0.76444  Biso   1.000  C
  C810     1.0000 0.31471  0.71326  0.00920  Biso   1.000  C
  C811     1.0000 0.03322  0.31039  0.75774  Biso   1.000  C
  C812     1.0000 0.77933  0.99569  0.83657  Biso   1.000  C
  C813     1.0000 0.73360  0.17836  0.54103  Biso   1.000  C
  C814     1.0000 0.47455  0.26294  0.85252  Biso   1.000  C
  C815     1.0000 0.30785  0.01562  0.75261  Biso   1.000  C
  C816     1.0000 0.19797  0.21519  0.01376  Biso   1.000  C
  C817     1.0000 0.01772  0.25280  0.82774  Biso   1.000  C
  C818     1.0000 0.78707  0.98498  0.27215  Biso   1.000  C
  C819     1.0000 0.25200  0.77929  0.01234  Biso   1.000  C
  C820     1.0000 0.47883  0.19660  0.78716  Biso   1.000  C
  C821     1.0000 0.28996  0.96569  0.29099  Biso   1.000  C
  C822     1.0000 0.73184  0.76903  0.53526  Biso   1.000  C
  C823     1.0000 0.46632  0.69756  0.77464  Biso   1.000  C
  C824     1.0000 0.72341  0.44750  0.27295  Biso   1.000  C
  C825     1.0000 0.26807  0.27598  0.01205  Biso   1.000  C
  C826     1.0000 0.01745  0.71579  0.77461  Biso   1.000  C
  C827     1.0000 0.25463  0.49071  0.32678  Biso   1.000  C
  C828     1.0000 0.76270  0.27383  0.54143  Biso   1.000  C
  C829     1.0000 0.96159  0.74110  0.24215  Biso   1.000  C
  C830     1.0000 0.24934  0.00000  0.82264  Biso   1.000  C
  C831     1.0000 0.78726  0.22825  0.03853  Biso   1.000  C
  C832     1.0000 0.49806  0.78590  0.27358  Biso   1.000  C
  C833     1.0000 0.74491  0.96294  0.74223  Biso   1.000  C
  C834     1.0000 0.27232  0.21719  0.49936  Biso   1.000  C
  C835     1.0000 0.49132  0.28587  0.28221  Biso   1.000  C
  C836     1.0000 0.28164  0.50246  0.79571  Biso   1.000  C
  C837     1.0000 0.74621  0.70211  0.04786  Biso   1.000  C
  C838     1.0000 0.99499  0.24317  0.32576  Biso   1.000  C
  C839     1.0000 0.74999  0.49804  0.73899  Biso   1.000  C
  C840     1.0000 0.20450  0.74242  0.51104  Biso   1.000  C
  C841     1.0000 0.21566  0.97929  0.78780  Biso   1.000  C
  C842     1.0000 0.76923  0.20531  0.99467  Biso   1.000  C
  C843     1.0000 0.00461  0.76433  0.26195  Biso   1.000  C
  C844     1.0000 0.71581  0.99657  0.76939  Biso   1.000  C
  C845     1.0000 0.29577  0.23747  0.54203  Biso   1.000  C
  C846     1.0000 0.46439  0.75748  0.30169  Biso   1.000  C
  C847     1.0000 0.24931  0.47603  0.82973  Biso   1.000  C
  C848     1.0000 0.72415  0.72555  0.00755  Biso   1.000  C
  C849     1.0000 0.52728  0.25525  0.26164  Biso   1.000  C
  C850     1.0000 0.78202  0.47237  0.77214  Biso   1.000  C
  C851     1.0000 0.22520  0.72279  0.55453  Biso   1.000  C
  C852     1.0000 0.02512  0.27211  0.29266  Biso   1.000  C
  C853     1.0000 0.75457  0.01176  0.23989  Biso   1.000  C
  C854     1.0000 0.21999  0.74439  0.03724  Biso   1.000  C
  C855     1.0000 0.04742  0.21846  0.79964  Biso   1.000  C
  C856     1.0000 0.25714  0.99430  0.31983  Biso   1.000  C
  C857     1.0000 0.70378  0.74022  0.50060  Biso   1.000  C
  C858     1.0000 0.50985  0.22951  0.75840  Biso   1.000  C
  C859     1.0000 0.75512  0.47791  0.24211  Biso   1.000  C
  C860     1.0000 0.29280  0.24673  0.04856  Biso   1.000  C
  C861     1.0000 0.49948  0.72754  0.80319  Biso   1.000  C
  C862     1.0000 0.22608  0.52202  0.29564  Biso   1.000  C
  C863     1.0000 0.79376  0.24441  0.51195  Biso   1.000  C
  C864     1.0000 0.99139  0.74606  0.73862  Biso   1.000  C
  C865     1.0000 0.70974  0.46407  0.78738  Biso   1.000  C
  C866     1.0000 0.77995  0.72938  0.50563  Biso   1.000  C
  C867     1.0000 0.50929  0.76258  0.75478  Biso   1.000  C
  C868     1.0000 0.23950  0.48044  0.75410  Biso   1.000  C
  C869     1.0000 0.26444  0.70415  0.04245  Biso   1.000  C
  C870     1.0000 0.98595  0.78865  0.78598  Biso   1.000  C
  C871     1.0000 0.79248  0.97344  0.77989  Biso   1.000  C
  C872     1.0000 0.71732  0.22940  0.51348  Biso   1.000  C
  C873     1.0000 0.01835  0.25101  0.75205  Biso   1.000  C
  C874     1.0000 0.26275  0.97252  0.75008  Biso   1.000  C
  C875     1.0000 0.25247  0.19959  0.03469  Biso   1.000  C
  C876     1.0000 0.51387  0.26764  0.80509  Biso   1.000  C
  C877     1.0000 0.29908  0.52097  0.28527  Biso   1.000  C
  C878     1.0000 0.25776  0.28834  0.53552  Biso   1.000  C
  C879     1.0000 0.51105  0.21160  0.30068  Biso   1.000  C
  C880     1.0000 0.76298  0.47531  0.31497  Biso   1.000  C
  C881     1.0000 0.75077  0.27488  0.02403  Biso   1.000  C
  C882     1.0000 0.02674  0.19943  0.28284  Biso   1.000  C
  C883     1.0000 0.24685  0.00024  0.24720  Biso   1.000  C
  C884     1.0000 0.24447  0.78694  0.55222  Biso   1.000  C
  C885     1.0000 0.99550  0.72997  0.31260  Biso   1.000  C
  C886     1.0000 0.71602  0.01807  0.28832  Biso   1.000  C
  C887     1.0000 0.76011  0.77541  0.01986  Biso   1.000  C
  C888     1.0000 0.50173  0.74358  0.23158  Biso   1.000  C
  C889     1.0000 0.74188  0.97935  0.31298  Biso   1.000  C
  C890     1.0000 0.29342  0.73459  0.01048  Biso   1.000  C
  C891     1.0000 0.04042  0.29125  0.77878  Biso   1.000  C
  C892     1.0000 0.21766  0.96599  0.27424  Biso   1.000  C
  C893     1.0000 0.74629  0.69904  0.53335  Biso   1.000  C
  C894     1.0000 0.47376  0.24256  0.83024  Biso   1.000  C
  C895     1.0000 0.79802  0.44841  0.28626  Biso   1.000  C
  C896     1.0000 0.21800  0.23721  0.01844  Biso   1.000  C
  C897     1.0000 0.46348  0.74413  0.73276  Biso   1.000  C
  C898     1.0000 0.26783  0.49166  0.25471  Biso   1.000  C
  C899     1.0000 0.75306  0.20091  0.54047  Biso   1.000  C
  C900     1.0000 0.03032  0.76701  0.80529  Biso   1.000  C
  C901     1.0000 0.28803  0.01171  0.77387  Biso   1.000  C
  C902     1.0000 0.71583  0.23992  0.00465  Biso   1.000  C
  C903     1.0000 0.97125  0.69425  0.28398  Biso   1.000  C
  C904     1.0000 0.75837  0.99314  0.81512  Biso   1.000  C
  C905     1.0000 0.22315  0.25517  0.51465  Biso   1.000  C
  C906     1.0000 0.46851  0.71043  0.25740  Biso   1.000  C
  C907     1.0000 0.20501  0.50400  0.78698  Biso   1.000  C
  C908     1.0000 0.79696  0.74129  0.03635  Biso   1.000  C
  C909     1.0000 0.49552  0.24742  0.33472  Biso   1.000  C
  C910     1.0000 0.73878  0.50321  0.81076  Biso   1.000  C
  C911     1.0000 0.26977  0.76128  0.51463  Biso   1.000  C
  C912     1.0000 0.99698  0.23057  0.25287  Biso   1.000  C
  C913     1.0000 0.75512  0.48307  0.76521  Biso   1.000  C
  C914     1.0000 0.72911  0.74530  0.51733  Biso   1.000  C
  C915     1.0000 0.48201  0.72327  0.77907  Biso   1.000  C
  C916     1.0000 0.25430  0.49184  0.80385  Biso   1.000  C
  C917     1.0000 0.24603  0.75163  0.02492  Biso   1.000  C
  C918     1.0000 0.00548  0.74206  0.76578  Biso   1.000  C
  C919     1.0000 0.74117  0.98096  0.76682  Biso   1.000  C
  C920     1.0000 0.76633  0.24902  0.52593  Biso   1.000  C
  C921     1.0000 0.03290  0.24479  0.80184  Biso   1.000  C
  C922     1.0000 0.24246  0.99027  0.79557  Biso   1.000  C
  C923     1.0000 0.26938  0.25013  0.02826  Biso   1.000  C
  C924     1.0000 0.49303  0.22349  0.78338  Biso   1.000  C
  C925     1.0000 0.25017  0.50552  0.30124  Biso   1.000  C
  C926     1.0000 0.27359  0.23943  0.52060  Biso   1.000  C
  C927     1.0000 0.50644  0.26002  0.28237  Biso   1.000  C
  C928     1.0000 0.74938  0.46103  0.26695  Biso   1.000  C
  C929     1.0000 0.76755  0.22673  0.01584  Biso   1.000  C
  C930     1.0000 0.01125  0.24655  0.30017  Biso   1.000  C
  C931     1.0000 0.26333  0.97887  0.29433  Biso   1.000  C
  C932     1.0000 0.22386  0.74343  0.53331  Biso   1.000  C
  C933     1.0000 0.98318  0.74321  0.26285  Biso   1.000  C
  C934     1.0000 0.76031  0.99900  0.26646  Biso   1.000  C
  C935     1.0000 0.74668  0.72269  0.02665  Biso   1.000  C
  C936     1.0000 0.48181  0.76093  0.27711  Biso   1.000  C
  C937     1.0000 0.74342  0.24740  0.01448  Biso   1.000  C
  C938     1.0000 0.98279  0.72155  0.28650  Biso   1.000  C
  C939     1.0000 0.26436  0.99266  0.77195  Biso   1.000  C
  C940     1.0000 0.25093  0.26024  0.52409  Biso   1.000  C
  C941     1.0000 0.48364  0.73739  0.25451  Biso   1.000  C
  C942     1.0000 0.76523  0.98367  0.78738  Biso   1.000  C
  C943     1.0000 0.76796  0.74697  0.02703  Biso   1.000  C
  C944     1.0000 0.50393  0.23989  0.30663  Biso   1.000  C
  C945     1.0000 0.23244  0.49286  0.78062  Biso   1.000  C
  C946     1.0000 0.24704  0.76471  0.53315  Biso   1.000  C
  C947     1.0000 0.01318  0.22510  0.27812  Biso   1.000  C
  C948     1.0000 0.73352  0.48241  0.78838  Biso   1.000  C
  C949     1.0000 0.26772  0.72998  0.02610  Biso   1.000  C
  C950     1.0000 0.03198  0.26251  0.77598  Biso   1.000  C
  C951     1.0000 0.73936  0.99925  0.29019  Biso   1.000  C
  C952     1.0000 0.75209  0.72472  0.51805  Biso   1.000  C
  C953     1.0000 0.49453  0.24410  0.80712  Biso   1.000  C
  C954     1.0000 0.24264  0.98136  0.27014  Biso   1.000  C
  C955     1.0000 0.24711  0.22831  0.02765  Biso   1.000  C
  C956     1.0000 0.48552  0.74351  0.75406  Biso   1.000  C
  C957     1.0000 0.77052  0.46054  0.29075  Biso   1.000  C
  C958     1.0000 0.74531  0.22640  0.52526  Biso   1.000  C
  C959     1.0000 0.00656  0.76626  0.78628  Biso   1.000  C
  C960     1.0000 0.27360  0.50524  0.28044  Biso   1.000  C
  Cu1      1.0000 0.99686  0.49657  0.68607  Biso   1.000  Cu
  Cu2      1.0000 0.64845  0.98510  0.52751  Biso   1.000  Cu
  Cu3      1.0000 0.50655  0.64234  0.01614  Biso   1.000  Cu
  Cu4      1.0000 0.49751  0.48862  0.87718  Biso   1.000  Cu
  Cu5      1.0000 0.15115  0.98688  0.03455  Biso   1.000  Cu
  Cu6      1.0000 0.98944  0.65095  0.53462  Biso   1.000  Cu
  Cu7      1.0000 0.50091  0.98753  0.68495  Biso   1.000  Cu
  Cu8      1.0000 0.84830  0.48698  0.53149  Biso   1.000  Cu
  Cu9      1.0000 0.00705  0.14828  0.03869  Biso   1.000  Cu
  Cu10     1.0000 0.00515  0.00663  0.87779  Biso   1.000  Cu
  Cu11     1.0000 0.35656  0.49042  0.03687  Biso   1.000  Cu
  Cu12     1.0000 0.51018  0.14611  0.54421  Biso   1.000  Cu
  Cu13     1.0000 0.00974  0.48811  0.38040  Biso   1.000  Cu
  Cu14     1.0000 0.34566  0.99637  0.53290  Biso   1.000  Cu
  Cu15     1.0000 0.50840  0.33354  0.04221  Biso   1.000  Cu
  Cu16     1.0000 0.51391  0.49234  0.18666  Biso   1.000  Cu
  Cu17     1.0000 0.85611  0.99058  0.02886  Biso   1.000  Cu
  Cu18     1.0000 0.00872  0.33817  0.53553  Biso   1.000  Cu
  Cu19     1.0000 0.50094  0.99396  0.37679  Biso   1.000  Cu
  Cu20     1.0000 0.15490  0.50151  0.53809  Biso   1.000  Cu
  Cu21     1.0000 0.00492  0.83468  0.02742  Biso   1.000  Cu
  Cu22     1.0000 0.00334  0.98326  0.18604  Biso   1.000  Cu
  Cu23     1.0000 0.66238  0.48669  0.02941  Biso   1.000  Cu
  Cu24     1.0000 0.48959  0.83396  0.52151  Biso   1.000  Cu
  Cu25     1.0000 0.20671  0.98630  0.03279  Biso   1.000  Cu
  Cu26     1.0000 0.00619  0.20155  0.04441  Biso   1.000  Cu
  Cu27     1.0000 0.00159  0.98419  0.23964  Biso   1.000  Cu
  Cu28     1.0000 0.70227  0.98071  0.52609  Biso   1.000  Cu
  Cu29     1.0000 0.51419  0.20045  0.54494  Biso   1.000  Cu
  Cu30     1.0000 0.49977  0.00045  0.32410  Biso   1.000  Cu
  Cu31     1.0000 0.30109  0.49212  0.03959  Biso   1.000  Cu
  Cu32     1.0000 0.50736  0.69597  0.01575  Biso   1.000  Cu
  Cu33     1.0000 0.51365  0.49623  0.23976  Biso   1.000  Cu
  Cu34     1.0000 0.79475  0.48279  0.52692  Biso   1.000  Cu
  Cu35     1.0000 0.98566  0.70359  0.53215  Biso   1.000  Cu
  Cu36     1.0000 0.00836  0.48789  0.32545  Biso   1.000  Cu
  Cu37     1.0000 0.80245  0.99160  0.02763  Biso   1.000  Cu
  Cu38     1.0000 0.00387  0.78155  0.02079  Biso   1.000  Cu
  Cu39     1.0000 0.00709  0.00999  0.82430  Biso   1.000  Cu
  Cu40     1.0000 0.29211  0.00058  0.53098  Biso   1.000  Cu
  Cu41     1.0000 0.48404  0.78025  0.51860  Biso   1.000  Cu
  Cu42     1.0000 0.49878  0.98113  0.73806  Biso   1.000  Cu
  Cu43     1.0000 0.71725  0.48629  0.03036  Biso   1.000  Cu
  Cu44     1.0000 0.50503  0.27992  0.04180  Biso   1.000  Cu
  Cu45     1.0000 0.49848  0.48096  0.82401  Biso   1.000  Cu
  Cu46     1.0000 0.20894  0.50424  0.54173  Biso   1.000  Cu
  Cu47     1.0000 0.01299  0.28418  0.53774  Biso   1.000  Cu
  Cu48     1.0000 0.99454  0.49846  0.73974  Biso   1.000  Cu
  H1       1.0000 0.22731  0.78774  0.56716  Biso   1.000  H
  H2       1.0000 0.52842  0.27056  0.78751  Biso   1.000  H
  H3       1.0000 0.74157  0.48851  0.31697  Biso   1.000  H
  H4       1.0000 0.73953  0.78045  0.01056  Biso   1.000  H
  H5       1.0000 0.01219  0.22898  0.74989  Biso   1.000  H
  H6       1.0000 0.30132  0.53332  0.30443  Biso   1.000  H
  H7       1.0000 0.27789  0.29458  0.54451  Biso   1.000  H
  H8       1.0000 0.96723  0.79065  0.77083  Biso   1.000  H
  H9       1.0000 0.71573  0.03447  0.27002  Biso   1.000  H
  H10      1.0000 0.77312  0.28021  0.02937  Biso   1.000  H
  H11      1.0000 0.52586  0.76238  0.77140  Biso   1.000  H
  H12      1.0000 0.26586  0.01389  0.24302  Biso   1.000  H
  H13      1.0000 0.71394  0.24909  0.50143  Biso   1.000  H
  H14      1.0000 0.50956  0.76461  0.22589  Biso   1.000  H
  H15      1.0000 0.25840  0.46625  0.75080  Biso   1.000  H
  H16      1.0000 0.27385  0.19207  0.04114  Biso   1.000  H
  H17      1.0000 0.00448  0.75126  0.31815  Biso   1.000  H
  H18      1.0000 0.70591  0.45056  0.76815  Biso   1.000  H
  H19      1.0000 0.78464  0.75095  0.49544  Biso   1.000  H
  H20      1.0000 0.03929  0.19948  0.30219  Biso   1.000  H
  H21      1.0000 0.24998  0.95303  0.75294  Biso   1.000  H
  H22      1.0000 0.24551  0.70029  0.05651  Biso   1.000  H
  H23      1.0000 0.51308  0.20333  0.27841  Biso   1.000  H
  H24      1.0000 0.79726  0.97147  0.75698  Biso   1.000  H
  H25      1.0000 0.27068  0.01032  0.82740  Biso   1.000  H
  H26      1.0000 0.78327  0.24380  0.05654  Biso   1.000  H
  H27      1.0000 0.94682  0.72148  0.23920  Biso   1.000  H
  H28      1.0000 0.76518  0.94982  0.73755  Biso   1.000  H
  H29      1.0000 0.25568  0.21883  0.48420  Biso   1.000  H
  H30      1.0000 0.50871  0.79111  0.25365  Biso   1.000  H
  H31      1.0000 0.28364  0.51434  0.77630  Biso   1.000  H
  H32      1.0000 0.76365  0.70261  0.06383  Biso   1.000  H
  H33      1.0000 0.47455  0.29161  0.29841  Biso   1.000  H
  H34      1.0000 0.72983  0.50786  0.73349  Biso   1.000  H
  H35      1.0000 0.20580  0.75907  0.49424  Biso   1.000  H
  H36      1.0000 0.98298  0.22352  0.32950  Biso   1.000  H
  H37      1.0000 0.79175  0.97408  0.29274  Biso   1.000  H
  H38      1.0000 0.27283  0.78835  0.00734  Biso   1.000  H
  H39      1.0000 0.00799  0.27503  0.82733  Biso   1.000  H
  H40      1.0000 0.29513  0.95758  0.26822  Biso   1.000  H
  H41      1.0000 0.75012  0.76941  0.54996  Biso   1.000  H
  H42      1.0000 0.46829  0.19169  0.80691  Biso   1.000  H
  H43      1.0000 0.71929  0.43569  0.29245  Biso   1.000  H
  H44      1.0000 0.25165  0.27966  0.99520  Biso   1.000  H
  H45      1.0000 0.45332  0.69404  0.75614  Biso   1.000  H
  H46      1.0000 0.27573  0.48129  0.33126  Biso   1.000  H
  H47      1.0000 0.74091  0.27734  0.55087  Biso   1.000  H
  H48      1.0000 0.02870  0.71334  0.79482  Biso   1.000  H
  H49      1.0000 0.22503  0.53075  0.27509  Biso   1.000  H
  H50      1.0000 0.29246  0.25260  0.56009  Biso   1.000  H
  H51      1.0000 0.53986  0.23407  0.26172  Biso   1.000  H
  H52      1.0000 0.77476  0.48949  0.24089  Biso   1.000  H
  H53      1.0000 0.75287  0.20327  0.97892  Biso   1.000  H
  H54      1.0000 0.03844  0.27453  0.27389  Biso   1.000  H
  H55      1.0000 0.23815  0.00784  0.31876  Biso   1.000  H
  H56      1.0000 0.24254  0.72247  0.56947  Biso   1.000  H
  H57      1.0000 0.02062  0.76261  0.27910  Biso   1.000  H
  H58      1.0000 0.73266  0.02281  0.23512  Biso   1.000  H
  H59      1.0000 0.72403  0.74379  0.99467  Biso   1.000  H
  H60      1.0000 0.45285  0.73858  0.30669  Biso   1.000  H
  H61      1.0000 0.78635  0.46035  0.79203  Biso   1.000  H
  H62      1.0000 0.70442  0.72422  0.48381  Biso   1.000  H
  H63      1.0000 0.51056  0.74889  0.80783  Biso   1.000  H
  H64      1.0000 0.22831  0.46886  0.83630  Biso   1.000  H
  H65      1.0000 0.21655  0.72492  0.04980  Biso   1.000  H
  H66      1.0000 0.97900  0.76511  0.73332  Biso   1.000  H
  H67      1.0000 0.71167  0.01235  0.78529  Biso   1.000  H
  H68      1.0000 0.79847  0.22426  0.50096  Biso   1.000  H
  H69      1.0000 0.06064  0.21449  0.78116  Biso   1.000  H
  H70      1.0000 0.21143  0.97040  0.76555  Biso   1.000  H
  H71      1.0000 0.29121  0.22770  0.06335  Biso   1.000  H
  H72      1.0000 0.52117  0.25060  0.75372  Biso   1.000  H
  H73      1.0000 0.75575  0.52031  0.81050  Biso   1.000  H
  H74      1.0000 0.72438  0.69415  0.54222  Biso   1.000  H
  H75      1.0000 0.44442  0.73068  0.73611  Biso   1.000  H
  H76      1.0000 0.19801  0.51300  0.80861  Biso   1.000  H
  H77      1.0000 0.29839  0.75469  0.99981  Biso   1.000  H
  H78      1.0000 0.04625  0.74974  0.80587  Biso   1.000  H
  H79      1.0000 0.73631  1.00000  0.81927  Biso   1.000  H
  H80      1.0000 0.77456  0.19770  0.55209  Biso   1.000  H
  H81      1.0000 0.05115  0.29887  0.79729  Biso   1.000  H
  H82      1.0000 0.29084  0.02541  0.79232  Biso   1.000  H
  H83      1.0000 0.21236  0.25902  0.01276  Biso   1.000  H
  H84      1.0000 0.45584  0.22670  0.82943  Biso   1.000  H
  H85      1.0000 0.24713  0.48207  0.25057  Biso   1.000  H
  H86      1.0000 0.21435  0.23427  0.50783  Biso   1.000  H
  H87      1.0000 0.49103  0.26938  0.34132  Biso   1.000  H
  H88      1.0000 0.80435  0.43589  0.26626  Biso   1.000  H
  H89      1.0000 0.71088  0.21843  0.99332  Biso   1.000  H
  H90      1.0000 0.98534  0.24983  0.24970  Biso   1.000  H
  H91      1.0000 0.21450  0.95374  0.29371  Biso   1.000  H
  H92      1.0000 0.26942  0.74141  0.50182  Biso   1.000  H
  H93      1.0000 0.96292  0.68601  0.26317  Biso   1.000  H
  H94      1.0000 0.75913  0.96235  0.31433  Biso   1.000  H
  H95      1.0000 0.80251  0.71896  0.04194  Biso   1.000  H
  H96      1.0000 0.45087  0.70487  0.27277  Biso   1.000  H
  H97      1.0000 0.87621  0.98508  0.93519  Biso   1.000  H
  H98      1.0000 0.91353  0.85719  0.02923  Biso   1.000  H
  H99      1.0000 0.00431  0.91304  0.89784  Biso   1.000  H
  H100     1.0000 0.36503  0.99913  0.61966  Biso   1.000  H
  H101     1.0000 0.39921  0.86688  0.52724  Biso   1.000  H
  H102     1.0000 0.48924  0.89745  0.65646  Biso   1.000  H
  H103     1.0000 0.64036  0.49200  0.94120  Biso   1.000  H
  H104     1.0000 0.59806  0.35639  0.02540  Biso   1.000  H
  H105     1.0000 0.49204  0.39709  0.90877  Biso   1.000  H
  H106     1.0000 0.13013  0.50849  0.63131  Biso   1.000  H
  H107     1.0000 0.09928  0.36181  0.51773  Biso   1.000  H
  H108     1.0000 0.01546  0.40561  0.67005  Biso   1.000  H
  H109     1.0000 0.13705  0.98469  0.12599  Biso   1.000  H
  H110     1.0000 0.09585  0.12631  0.03355  Biso   1.000  H
  H111     1.0000 0.00643  0.07643  0.16804  Biso   1.000  H
  H112     1.0000 0.63102  0.99583  0.43533  Biso   1.000  H
  H113     1.0000 0.59712  0.12222  0.54718  Biso   1.000  H
  H114     1.0000 0.51002  0.08705  0.40982  Biso   1.000  H
  H115     1.0000 0.37492  0.48897  0.13057  Biso   1.000  H
  H116     1.0000 0.41556  0.62410  0.01275  Biso   1.000  H
  H117     1.0000 0.51009  0.58218  0.15962  Biso   1.000  H
  H118     1.0000 0.87197  0.48113  0.43864  Biso   1.000  H
  H119     1.0000 0.90142  0.62397  0.54008  Biso   1.000  H
  H120     1.0000 0.98507  0.57903  0.40140  Biso   1.000  H
  H121     1.0000 0.09441  0.01005  0.89782  Biso   1.000  H
  H122     1.0000 0.87535  0.08165  0.01918  Biso   1.000  H
  H123     1.0000 0.99465  0.85100  0.11645  Biso   1.000  H
  H124     1.0000 0.59325  0.98066  0.66358  Biso   1.000  H
  H125     1.0000 0.37195  0.08644  0.53152  Biso   1.000  H
  H126     1.0000 0.49666  0.86073  0.43097  Biso   1.000  H
  H127     1.0000 0.41030  0.48275  0.89637  Biso   1.000  H
  H128     1.0000 0.64349  0.57362  0.02045  Biso   1.000  H
  H129     1.0000 0.51492  0.35614  0.12999  Biso   1.000  H
  H130     1.0000 0.90444  0.48707  0.66374  Biso   1.000  H
  H131     1.0000 0.12669  0.58754  0.53106  Biso   1.000  H
  H132     1.0000 0.01138  0.35833  0.44366  Biso   1.000  H
  H133     1.0000 0.91173  0.99742  0.16517  Biso   1.000  H
  H134     1.0000 0.13222  0.89422  0.02823  Biso   1.000  H
  H135     1.0000 0.00301  0.13204  0.94513  Biso   1.000  H
  H136     1.0000 0.41235  0.97899  0.39910  Biso   1.000  H
  H137     1.0000 0.62055  0.89065  0.52017  Biso   1.000  H
  H138     1.0000 0.49996  0.12446  0.63228  Biso   1.000  H
  H139     1.0000 0.60468  0.48356  0.16370  Biso   1.000  H
  H140     1.0000 0.37375  0.40226  0.04127  Biso   1.000  H
  H141     1.0000 0.49998  0.62136  0.92606  Biso   1.000  H
  H142     1.0000 0.09964  0.48988  0.40459  Biso   1.000  H
  H143     1.0000 0.87660  0.39303  0.53422  Biso   1.000  H
  H144     1.0000 0.00670  0.63220  0.62073  Biso   1.000  H
  H145     1.0000 0.59145  0.48879  0.89912  Biso   1.000  H
  H146     1.0000 0.86350  0.57910  0.53200  Biso   1.000  H
  H147     1.0000 0.49016  0.85062  0.61095  Biso   1.000  H
  H148     1.0000 0.08714  0.50687  0.67317  Biso   1.000  H
  H149     1.0000 0.37891  0.58208  0.02885  Biso   1.000  H
  H150     1.0000 0.01148  0.86990  0.93468  Biso   1.000  H
  H151     1.0000 0.91320  0.99901  0.89773  Biso   1.000  H
  H152     1.0000 0.63597  0.07679  0.54227  Biso   1.000  H
  H153     1.0000 0.00831  0.36266  0.62383  Biso   1.000  H
  H154     1.0000 0.41095  0.00397  0.66430  Biso   1.000  H
  H155     1.0000 0.13403  0.08437  0.02984  Biso   1.000  H
  H156     1.0000 0.49491  0.35663  0.95062  Biso   1.000  H
  H157     1.0000 0.41766  0.48804  0.17155  Biso   1.000  H
  H158     1.0000 0.13878  0.40849  0.52783  Biso   1.000  H
  H159     1.0000 0.51974  0.12975  0.45470  Biso   1.000  H
  H160     1.0000 0.91451  0.48093  0.39876  Biso   1.000  H
  H161     1.0000 0.64287  0.39525  0.02378  Biso   1.000  H
  H162     1.0000 0.00516  0.12517  0.12609  Biso   1.000  H
  H163     1.0000 0.09711  0.98317  0.16439  Biso   1.000  H
  H164     1.0000 0.36141  0.90605  0.54946  Biso   1.000  H
  H165     1.0000 0.97939  0.62604  0.44587  Biso   1.000  H
  H166     1.0000 0.58939  0.99871  0.39373  Biso   1.000  H
  H167     1.0000 0.87387  0.89844  0.04577  Biso   1.000  H
  H168     1.0000 0.51399  0.62367  0.11211  Biso   1.000  H
  H169     1.0000 0.00533  0.09588  0.90306  Biso   1.000  H
  H170     1.0000 0.87203  0.00275  0.12252  Biso   1.000  H
  H171     1.0000 0.09289  0.84976  0.02909  Biso   1.000  H
  H172     1.0000 0.50155  0.08037  0.67121  Biso   1.000  H
  H173     1.0000 0.37003  0.97789  0.44155  Biso   1.000  H
  H174     1.0000 0.57818  0.84714  0.51518  Biso   1.000  H
  H175     1.0000 0.49692  0.57889  0.88649  Biso   1.000  H
  H176     1.0000 0.64243  0.47456  0.12115  Biso   1.000  H
  H177     1.0000 0.41795  0.35911  0.04487  Biso   1.000  H
  H178     1.0000 0.00355  0.58687  0.66627  Biso   1.000  H
  H179     1.0000 0.14216  0.49747  0.44906  Biso   1.000  H
  H180     1.0000 0.92086  0.35324  0.53805  Biso   1.000  H
  H181     1.0000 0.98909  0.89411  0.16209  Biso   1.000  H
  H182     1.0000 0.13195  0.99534  0.94233  Biso   1.000  H
  H183     1.0000 0.91914  0.12421  0.03357  Biso   1.000  H
  H184     1.0000 0.50709  0.89891  0.39141  Biso   1.000  H
  H185     1.0000 0.62962  0.98054  0.62102  Biso   1.000  H
  H186     1.0000 0.41565  0.12514  0.53705  Biso   1.000  H
  H187     1.0000 0.51491  0.40337  0.17069  Biso   1.000  H
  H188     1.0000 0.37233  0.49164  0.94321  Biso   1.000  H
  H189     1.0000 0.59594  0.62031  0.01439  Biso   1.000  H
  H190     1.0000 0.02374  0.39536  0.40454  Biso   1.000  H
  H191     1.0000 0.86513  0.49640  0.61938  Biso   1.000  H
  H192     1.0000 0.07755  0.63280  0.53047  Biso   1.000  H
  H193     1.0000 0.25877  0.85788  0.55079  Biso   1.000  H
  H194     1.0000 0.49055  0.25756  0.90090  Biso   1.000  H
  H195     1.0000 0.86901  0.47418  0.30079  Biso   1.000  H
  H196     1.0000 0.77615  0.84872  0.04113  Biso   1.000  H
  H197     1.0000 0.02508  0.26933  0.67891  Biso   1.000  H
  H198     1.0000 0.37263  0.50386  0.26917  Biso   1.000  H
  H199     1.0000 0.24001  0.36097  0.51926  Biso   1.000  H
  H200     1.0000 0.01568  0.77717  0.87570  Biso   1.000  H
  H201     1.0000 0.64290  0.99818  0.29775  Biso   1.000  H
  H202     1.0000 0.73582  0.34258  0.00433  Biso   1.000  H
  H203     1.0000 0.48734  0.75247  0.66139  Biso   1.000  H
  H204     1.0000 0.14704  0.97692  0.26428  Biso   1.000  H
  H205     1.0000 0.73458  0.12488  0.52319  Biso   1.000  H
  H206     1.0000 0.49334  0.72405  0.15699  Biso   1.000  H
  H207     1.0000 0.13921  0.48904  0.76815  Biso   1.000  H
  H208     1.0000 0.23443  0.12850  0.01087  Biso   1.000  H
  H209     1.0000 0.97277  0.71923  0.38846  Biso   1.000  H
  H210     1.0000 0.64647  0.49269  0.80295  Biso   1.000  H
  H211     1.0000 0.76472  0.62368  0.51254  Biso   1.000  H
  H212     1.0000 0.01824  0.21821  0.18638  Biso   1.000  H
  H213     1.0000 0.35334  0.99150  0.75749  Biso   1.000  H
  H214     1.0000 0.27923  0.62922  0.02190  Biso   1.000  H
  H215     1.0000 0.52387  0.22601  0.40039  Biso   1.000  H
  H216     1.0000 0.86611  0.98793  0.79744  Biso   1.000  H
  H217     1.0000 0.23928  0.51376  0.39852  Biso   1.000  H
  H218     1.0000 0.36723  0.22349  0.53228  Biso   1.000  H
  H219     1.0000 0.52054  0.35273  0.26891  Biso   1.000  H
  H220     1.0000 0.73920  0.45470  0.17097  Biso   1.000  H
  H221     1.0000 0.86457  0.22029  0.03078  Biso   1.000  H
  H222     1.0000 0.00788  0.34501  0.30727  Biso   1.000  H
  H223     1.0000 0.27185  0.97506  0.39113  Biso   1.000  H
  H224     1.0000 0.13279  0.72895  0.51772  Biso   1.000  H
  H225     1.0000 0.98536  0.83463  0.25511  Biso   1.000  H
  H226     1.0000 0.77436  0.99125  0.17249  Biso   1.000  H
  H227     1.0000 0.64954  0.71581  0.02860  Biso   1.000  H
  H228     1.0000 0.48534  0.85569  0.29375  Biso   1.000  H
  H229     1.0000 0.76717  0.48515  0.67000  Biso   1.000  H
  H230     1.0000 0.63187  0.75092  0.52018  Biso   1.000  H
  H231     1.0000 0.48951  0.62753  0.78793  Biso   1.000  H
  H232     1.0000 0.27070  0.50483  0.89822  Biso   1.000  H
  H233     1.0000 0.14973  0.75456  0.01164  Biso   1.000  H
  H234     1.0000 0.98995  0.64702  0.75835  Biso   1.000  H
  H235     1.0000 0.73066  0.96901  0.66963  Biso   1.000  H
  H236     1.0000 0.87025  0.25233  0.54271  Biso   1.000  H
  H237     1.0000 0.02178  0.15300  0.80734  Biso   1.000  H
  H238     1.0000 0.22913  0.97530  0.89046  Biso   1.000  H
  H239     1.0000 0.36473  0.26235  0.03813  Biso   1.000  H
  H240     1.0000 0.50072  0.12481  0.77121  Biso   1.000  H
  H241     1.0000 0.73062  0.48619  0.88262  Biso   1.000  H
  H242     1.0000 0.83610  0.71429  0.54612  Biso   1.000  H
  H243     1.0000 0.50243  0.83713  0.74837  Biso   1.000  H
  H244     1.0000 0.22694  0.49852  0.68363  Biso   1.000  H
  H245     1.0000 0.36429  0.72101  0.02597  Biso   1.000  H
  H246     1.0000 0.00748  0.86856  0.79734  Biso   1.000  H
  H247     1.0000 0.77752  0.97531  0.88286  Biso   1.000  H
  H248     1.0000 0.65726  0.21507  0.55044  Biso   1.000  H
  H249     1.0000 0.00255  0.35065  0.76515  Biso   1.000  H
  H250     1.0000 0.26862  0.00632  0.67575  Biso   1.000  H
  H251     1.0000 0.15519  0.21991  0.04288  Biso   1.000  H
  H252     1.0000 0.50372  0.34192  0.81220  Biso   1.000  H
  H253     1.0000 0.28388  0.51465  0.18449  Biso   1.000  H
  H254     1.0000 0.15443  0.26898  0.53034  Biso   1.000  H
  H255     1.0000 0.48192  0.14452  0.31669  Biso   1.000  H
  H256     1.0000 0.77793  0.46127  0.38597  Biso   1.000  H
  H257     1.0000 0.64745  0.25779  0.02516  Biso   1.000  H
  H258     1.0000 0.00513  0.12527  0.26734  Biso   1.000  H
  H259     1.0000 0.23199  0.99092  0.17399  Biso   1.000  H
  H260     1.0000 0.34483  0.77099  0.52177  Biso   1.000  H
  H261     1.0000 0.99573  0.62921  0.30565  Biso   1.000  H
  H262     1.0000 0.72913  0.98260  0.38271  Biso   1.000  H
  H263     1.0000 0.86212  0.76127  0.01167  Biso   1.000  H
  H264     1.0000 0.49306  0.64614  0.25055  Biso   1.000  H
  H265     1.0000 0.02835  0.22965  0.89987  Biso   1.000  H
  H266     1.0000 0.85637  0.00406  0.26268  Biso   1.000  H
  H267     1.0000 0.23267  0.84699  0.02618  Biso   1.000  H
  H268     1.0000 0.49559  0.21780  0.68776  Biso   1.000  H
  H269     1.0000 0.35433  0.00035  0.30583  Biso   1.000  H
  H270     1.0000 0.71853  0.83819  0.52352  Biso   1.000  H
  H271     1.0000 0.48322  0.71718  0.87419  Biso   1.000  H
  H272     1.0000 0.65573  0.47258  0.26347  Biso   1.000  H
  H273     1.0000 0.28163  0.34209  0.02675  Biso   1.000  H
  H274     1.0000 0.01813  0.73065  0.67123  Biso   1.000  H
  H275     1.0000 0.15642  0.50184  0.31164  Biso   1.000  H
  H276     1.0000 0.78100  0.33799  0.52543  Biso   1.000  H
  H277     1.0000 0.97428  0.75443  0.16619  Biso   1.000  H
  H278     1.0000 0.15057  0.00566  0.80283  Biso   1.000  H
  H279     1.0000 0.78181  0.13262  0.00145  Biso   1.000  H
  H280     1.0000 0.47351  0.76608  0.37588  Biso   1.000  H
  H281     1.0000 0.64422  0.96714  0.76105  Biso   1.000  H
  H282     1.0000 0.28015  0.14241  0.50946  Biso   1.000  H
  H283     1.0000 0.52588  0.26179  0.18661  Biso   1.000  H
  H284     1.0000 0.35063  0.48206  0.80525  Biso   1.000  H
  H285     1.0000 0.73659  0.63265  0.03353  Biso   1.000  H
  H286     1.0000 0.02273  0.26123  0.39249  Biso   1.000  H
  H287     1.0000 0.85147  0.49108  0.76179  Biso   1.000  H
  H288     1.0000 0.21827  0.64890  0.54559  Biso   1.000  H
  H289     1.0000 0.09731  0.22122  0.04743  Biso   1.000  H
  H290     1.0000 0.00656  0.07271  0.26372  Biso   1.000  H
  H291     1.0000 0.22977  0.98293  0.11860  Biso   1.000  H
  H292     1.0000 0.60550  0.21899  0.55084  Biso   1.000  H
  H293     1.0000 0.47826  0.09227  0.31560  Biso   1.000  H
  H294     1.0000 0.72379  0.97548  0.43638  Biso   1.000  H
  H295     1.0000 0.41549  0.71988  0.02116  Biso   1.000  H
  H296     1.0000 0.50240  0.59277  0.25512  Biso   1.000  H
  H297     1.0000 0.28089  0.50735  0.12914  Biso   1.000  H
  H298     1.0000 0.89197  0.71879  0.55683  Biso   1.000  H
  H299     1.0000 0.99265  0.57732  0.30518  Biso   1.000  H
  H300     1.0000 0.77459  0.46135  0.43845  Biso   1.000  H
  H301     1.0000 0.91219  0.76297  0.00732  Biso   1.000  H
  H302     1.0000 0.00999  0.92300  0.80112  Biso   1.000  H
  H303     1.0000 0.78065  0.97418  0.94223  Biso   1.000  H
  H304     1.0000 0.39726  0.77423  0.51243  Biso   1.000  H
  H305     1.0000 0.50523  0.89023  0.74920  Biso   1.000  H
  H306     1.0000 0.27019  0.01631  0.62340  Biso   1.000  H
  H307     1.0000 0.59395  0.25966  0.03069  Biso   1.000  H
  H308     1.0000 0.51198  0.39177  0.81395  Biso   1.000  H
  H309     1.0000 0.73336  0.48836  0.93923  Biso   1.000  H
  H310     1.0000 0.10288  0.26811  0.53525  Biso   1.000  H
  H311     1.0000 0.99501  0.40454  0.76378  Biso   1.000  H
  H312     1.0000 0.22709  0.50627  0.62874  Biso   1.000  H
  H313     1.0000 0.22461  0.96725  0.94318  Biso   1.000  H
  H314     1.0000 0.91546  0.21999  0.05134  Biso   1.000  H
  H315     1.0000 0.99961  0.89150  0.25599  Biso   1.000  H
  H316     1.0000 0.72719  0.97110  0.61767  Biso   1.000  H
  H317     1.0000 0.42202  0.22181  0.54134  Biso   1.000  H
  H318     1.0000 0.49094  0.90917  0.29469  Biso   1.000  H
  H319     1.0000 0.27667  0.50687  0.95130  Biso   1.000  H
  H320     1.0000 0.59821  0.71451  0.01545  Biso   1.000  H
  H321     1.0000 0.51436  0.40861  0.26628  Biso   1.000  H
  H322     1.0000 0.76957  0.48577  0.61836  Biso   1.000  H
  H323     1.0000 0.07742  0.72481  0.51205  Biso   1.000  H
  H324     1.0000 0.01186  0.39985  0.30865  Biso   1.000  H
  H325     1.0000 0.77877  0.99017  0.11415  Biso   1.000  H
  H326     1.0000 0.09767  0.75367  0.01757  Biso   1.000  H
  H327     1.0000 0.01226  0.10114  0.80648  Biso   1.000  H
  H328     1.0000 0.27384  0.98068  0.44452  Biso   1.000  H
  H329     1.0000 0.57485  0.75226  0.51262  Biso   1.000  H
  H330     1.0000 0.49498  0.07052  0.76676  Biso   1.000  H
  H331     1.0000 0.73465  0.46154  0.11424  Biso   1.000  H
  H332     1.0000 0.41739  0.26559  0.03874  Biso   1.000  H
  H333     1.0000 0.49788  0.57326  0.79141  Biso   1.000  H
  H334     1.0000 0.23649  0.51086  0.45308  Biso   1.000  H
  H335     1.0000 0.92423  0.25678  0.54571  Biso   1.000  H
  H336     1.0000 0.98376  0.59067  0.75955  Biso   1.000  H
  H337     1.0000 0.01641  0.22857  0.95298  Biso   1.000  H
  H338     1.0000 0.91042  0.00175  0.26153  Biso   1.000  H
  H339     1.0000 0.22596  0.90255  0.02907  Biso   1.000  H
  H340     1.0000 0.50401  0.21891  0.63477  Biso   1.000  H
  H341     1.0000 0.40829  0.00643  0.30824  Biso   1.000  H
  H342     1.0000 0.71652  0.89289  0.52546  Biso   1.000  H
  H343     1.0000 0.48799  0.71492  0.92734  Biso   1.000  H
  H344     1.0000 0.60411  0.48493  0.26064  Biso   1.000  H
  H345     1.0000 0.27764  0.40158  0.03330  Biso   1.000  H
  H346     1.0000 0.01600  0.72819  0.61956  Biso   1.000  H
  H347     1.0000 0.10199  0.49659  0.31069  Biso   1.000  H
  H348     1.0000 0.78062  0.39113  0.52386  Biso   1.000  H
  H349     1.0000 0.98283  0.75554  0.11263  Biso   1.000  H
  H350     1.0000 0.09726  0.01177  0.80266  Biso   1.000  H
  H351     1.0000 0.78276  0.08226  0.99418  Biso   1.000  H
  H352     1.0000 0.47048  0.76693  0.43198  Biso   1.000  H
  H353     1.0000 0.58731  0.96931  0.75941  Biso   1.000  H
  H354     1.0000 0.27977  0.09116  0.50017  Biso   1.000  H
  H355     1.0000 0.52274  0.26003  0.13629  Biso   1.000  H
  H356     1.0000 0.40486  0.48642  0.80229  Biso   1.000  H
  H357     1.0000 0.73697  0.57742  0.03114  Biso   1.000  H
  H358     1.0000 0.02461  0.26181  0.44810  Biso   1.000  H
  H359     1.0000 0.90418  0.49477  0.76057  Biso   1.000  H
  H360     1.0000 0.22108  0.59410  0.54672  Biso   1.000  H
  H361     1.0000 0.96802  0.71969  0.43617  Biso   1.000  H
  H362     1.0000 0.40722  0.98714  0.76156  Biso   1.000  H
  H363     1.0000 0.73482  0.39712  0.00566  Biso   1.000  H
  H364     1.0000 0.49709  0.71849  0.10273  Biso   1.000  H
  H365     1.0000 0.92182  0.99715  0.80100  Biso   1.000  H
  H366     1.0000 0.23405  0.41447  0.52652  Biso   1.000  H
  H367     1.0000 0.53484  0.22246  0.45561  Biso   1.000  H
  H368     1.0000 0.08629  0.49620  0.76648  Biso   1.000  H
  H369     1.0000 0.78008  0.90177  0.04727  Biso   1.000  H
  H370     1.0000 0.01707  0.22058  0.13635  Biso   1.000  H
  H371     1.0000 0.59028  0.49057  0.80463  Biso   1.000  H
  H372     1.0000 0.26443  0.91177  0.56103  Biso   1.000  H
  H373     1.0000 0.02858  0.27257  0.62504  Biso   1.000  H
  H374     1.0000 0.59133  0.00249  0.29707  Biso   1.000  H
  H375     1.0000 0.28390  0.57687  0.02288  Biso   1.000  H
  H376     1.0000 0.48898  0.26315  0.95673  Biso   1.000  H
  H377     1.0000 0.09473  0.97566  0.26197  Biso   1.000  H
  H378     1.0000 0.76995  0.57190  0.51119  Biso   1.000  H
  H379     1.0000 0.49503  0.75438  0.60748  Biso   1.000  H
  H380     1.0000 0.92115  0.47502  0.30293  Biso   1.000  H
  H381     1.0000 0.22715  0.07426  0.01366  Biso   1.000  H
  H382     1.0000 0.01558  0.77189  0.93089  Biso   1.000  H
  H383     1.0000 0.42443  0.49230  0.26681  Biso   1.000  H
  H384     1.0000 0.72980  0.06998  0.52980  Biso   1.000  H
  H385     1.0000 0.23948  0.48194  0.37021  Biso   1.000  H
  H386     1.0000 0.29104  0.17594  0.48390  Biso   1.000  H
  H387     1.0000 0.48010  0.32509  0.25911  Biso   1.000  H
  H388     1.0000 0.68303  0.43415  0.25567  Biso   1.000  H
  H389     1.0000 0.82024  0.20628  0.06043  Biso   1.000  H
  H390     1.0000 0.98602  0.26033  0.36741  Biso   1.000  H
  H391     1.0000 0.33017  0.95242  0.30650  Biso   1.000  H
  H392     1.0000 0.17027  0.71800  0.48951  Biso   1.000  H
  H393     1.0000 0.94264  0.76040  0.20505  Biso   1.000  H
  H394     1.0000 0.82863  0.97413  0.25819  Biso   1.000  H
  H395     1.0000 0.72291  0.66848  0.06883  Biso   1.000  H
  H396     1.0000 0.51548  0.82547  0.29266  Biso   1.000  H
  H397     1.0000 0.76543  0.51466  0.69920  Biso   1.000  H
  H398     1.0000 0.70808  0.80357  0.55632  Biso   1.000  H
  H399     1.0000 0.45372  0.65831  0.79416  Biso   1.000  H
  H400     1.0000 0.32334  0.51490  0.80953  Biso   1.000  H
  H401     1.0000 0.23325  0.81854  0.99612  Biso   1.000  H
  H402     1.0000 0.03325  0.67506  0.76135  Biso   1.000  H
  H403     1.0000 0.72961  0.94281  0.70385  Biso   1.000  H
  H404     1.0000 0.78143  0.31031  0.56210  Biso   1.000  H
  H405     1.0000 0.00358  0.23763  0.86941  Biso   1.000  H
  H406     1.0000 0.23330  0.01345  0.86275  Biso   1.000  H
  H407     1.0000 0.29108  0.31272  0.99576  Biso   1.000  H
  H408     1.0000 0.47056  0.15490  0.77099  Biso   1.000  H
  H409     1.0000 0.28690  0.47857  0.21219  Biso   1.000  H
  H410     1.0000 0.18320  0.26855  0.50308  Biso   1.000  H
  H411     1.0000 0.48629  0.22957  0.37632  Biso   1.000  H
  H412     1.0000 0.84036  0.44438  0.30438  Biso   1.000  H
  H413     1.0000 0.67509  0.25640  0.99131  Biso   1.000  H
  H414     1.0000 0.98176  0.21404  0.21249  Biso   1.000  H
  H415     1.0000 0.17715  0.95286  0.25767  Biso   1.000  H
  H416     1.0000 0.31125  0.77925  0.50033  Biso   1.000  H
  H417     1.0000 0.96119  0.65357  0.30157  Biso   1.000  H
  H418     1.0000 0.72078  0.95823  0.34687  Biso   1.000  H
  H419     1.0000 0.83726  0.76164  0.04778  Biso   1.000  H
  H420     1.0000 0.46046  0.66905  0.23995  Biso   1.000  H
  H421     1.0000 0.72469  0.52002  0.85132  Biso   1.000  H
  H422     1.0000 0.75766  0.65527  0.54478  Biso   1.000  H
  H423     1.0000 0.44926  0.76666  0.69376  Biso   1.000  H
  H424     1.0000 0.16724  0.51835  0.76658  Biso   1.000  H
  H425     1.0000 0.33461  0.71722  0.99633  Biso   1.000  H
  H426     1.0000 0.05156  0.78628  0.84074  Biso   1.000  H
  H427     1.0000 0.77175  0.00639  0.85653  Biso   1.000  H
  H428     1.0000 0.74007  0.15814  0.55265  Biso   1.000  H
  H429     1.0000 0.04223  0.33238  0.76178  Biso   1.000  H
  H430     1.0000 0.32577  0.03028  0.75693  Biso   1.000  H
  H431     1.0000 0.17900  0.22508  0.00216  Biso   1.000  H
  H432     1.0000 0.45823  0.26332  0.87142  Biso   1.000  H
  H433     1.0000 0.28165  0.95742  0.70946  Biso   1.000  H
  H434     1.0000 0.73564  0.31565  0.03571  Biso   1.000  H
  H435     1.0000 0.00804  0.71961  0.35344  Biso   1.000  H
  H436     1.0000 0.83549  0.96461  0.79472  Biso   1.000  H
  H437     1.0000 0.24258  0.32994  0.54815  Biso   1.000  H
  H438     1.0000 0.51979  0.73033  0.19166  Biso   1.000  H
  H439     1.0000 0.22853  0.46922  0.71094  Biso   1.000  H
  H440     1.0000 0.77364  0.82008  0.01407  Biso   1.000  H
  H441     1.0000 0.52183  0.16930  0.31222  Biso   1.000  H
  H442     1.0000 0.67094  0.45083  0.81072  Biso   1.000  H
  H443     1.0000 0.26418  0.82237  0.57263  Biso   1.000  H
  H444     1.0000 0.03819  0.15617  0.26679  Biso   1.000  H
  H445     1.0000 0.67491  0.03215  0.30299  Biso   1.000  H
  H446     1.0000 0.27805  0.66069  0.04834  Biso   1.000  H
  H447     1.0000 0.00182  0.26188  0.70968  Biso   1.000  H
  H448     1.0000 0.22808  0.01644  0.20810  Biso   1.000  H
  H449     1.0000 0.82186  0.71312  0.50340  Biso   1.000  H
  H450     1.0000 0.53352  0.30266  0.82637  Biso   1.000  H
  H451     1.0000 0.77701  0.49377  0.35565  Biso   1.000  H
  H452     1.0000 0.23448  0.15785  0.04561  Biso   1.000  H
  H453     1.0000 0.52748  0.80144  0.73422  Biso   1.000  H
  H454     1.0000 0.33894  0.53629  0.26792  Biso   1.000  H
  H455     1.0000 0.67682  0.21331  0.50100  Biso   1.000  H
  H456     1.0000 0.97210  0.82756  0.80838  Biso   1.000  H
  H457     1.0000 0.66521  0.75841  0.48438  Biso   1.000  H
  H458     1.0000 0.51318  0.70896  0.84183  Biso   1.000  H
  H459     1.0000 0.82179  0.45876  0.75644  Biso   1.000  H
  H460     1.0000 0.17737  0.75818  0.04705  Biso   1.000  H
  H461     1.0000 0.98036  0.72711  0.69848  Biso   1.000  H
  H462     1.0000 0.26838  0.46433  0.87127  Biso   1.000  H
  H463     1.0000 0.83739  0.25853  0.50466  Biso   1.000  H
  H464     1.0000 0.05268  0.17527  0.81966  Biso   1.000  H
  H465     1.0000 0.67340  0.00461  0.75284  Biso   1.000  H
  H466     1.0000 0.32873  0.26971  0.06926  Biso   1.000  H
  H467     1.0000 0.52456  0.21566  0.71835  Biso   1.000  H
  H468     1.0000 0.17651  0.96567  0.80396  Biso   1.000  H
  H469     1.0000 0.33323  0.21530  0.55902  Biso   1.000  H
  H470     1.0000 0.55029  0.27105  0.22500  Biso   1.000  H
  H471     1.0000 0.18915  0.53812  0.31811  Biso   1.000  H
  H472     1.0000 0.79548  0.17262  0.97617  Biso   1.000  H
  H473     1.0000 0.03639  0.31439  0.30133  Biso   1.000  H
  H474     1.0000 0.73959  0.48717  0.19852  Biso   1.000  H
  H475     1.0000 0.20590  0.68410  0.57028  Biso   1.000  H
  H476     1.0000 0.01887  0.80373  0.24538  Biso   1.000  H
  H477     1.0000 0.27212  0.00521  0.36257  Biso   1.000  H
  H478     1.0000 0.68500  0.70495  0.99055  Biso   1.000  H
  H479     1.0000 0.45053  0.77192  0.34270  Biso   1.000  H
  H480     1.0000 0.77012  0.02341  0.19822  Biso   1.000  H
  N1       1.0000 0.68514  0.16053  0.53171  Biso   1.000  N
  N2       1.0000 0.49539  0.67294  0.19409  Biso   1.000  N
  N3       1.0000 0.17294  0.49772  0.71617  Biso   1.000  N
  N4       1.0000 0.18305  0.16614  0.02571  Biso   1.000  N
  N5       1.0000 0.98203  0.66350  0.35604  Biso   1.000  N
  N6       1.0000 0.67663  0.48619  0.85520  Biso   1.000  N
  N7       1.0000 0.81374  0.66146  0.52798  Biso   1.000  N
  N8       1.0000 0.01095  0.16186  0.21640  Biso   1.000  N
  N9       1.0000 0.32358  0.99924  0.70703  Biso   1.000  N
  N10      1.0000 0.32976  0.66572  0.02233  Biso   1.000  N
  N11      1.0000 0.50819  0.17488  0.36793  Biso   1.000  N
  N12      1.0000 0.83002  0.98371  0.85033  Biso   1.000  N
  N13      1.0000 0.31296  0.82478  0.53769  Biso   1.000  N
  N14      1.0000 0.49481  0.30839  0.86812  Biso   1.000  N
  N15      1.0000 0.83094  0.47333  0.35359  Biso   1.000  N
  N16      1.0000 0.82857  0.81389  0.02916  Biso   1.000  N
  N17      1.0000 0.01591  0.32015  0.71210  Biso   1.000  N
  N18      1.0000 0.33644  0.50646  0.21520  Biso   1.000  N
  N19      1.0000 0.18660  0.32436  0.52579  Biso   1.000  N
  N20      1.0000 0.01311  0.83087  0.84760  Biso   1.000  N
  N21      1.0000 0.67520  0.99303  0.35113  Biso   1.000  N
  N22      1.0000 0.68164  0.30931  0.01584  Biso   1.000  N
  N23      1.0000 0.49321  0.80713  0.69414  Biso   1.000  N
  N24      1.0000 0.17988  0.98564  0.20972  Biso   1.000  N
  N25      1.0000 0.81973  0.48825  0.70545  Biso   1.000  N
  N26      1.0000 0.66449  0.80483  0.52177  Biso   1.000  N
  N27      1.0000 0.48962  0.66081  0.84084  Biso   1.000  N
  N28      1.0000 0.32150  0.48851  0.86208  Biso   1.000  N
  N29      1.0000 0.18089  0.81084  0.02393  Biso   1.000  N
  N30      1.0000 0.00638  0.67565  0.70805  Biso   1.000  N
  N31      1.0000 0.67676  0.97080  0.70467  Biso   1.000  N
  N32      1.0000 0.83546  0.30655  0.53601  Biso   1.000  N
  N33      1.0000 0.02097  0.18306  0.86503  Biso   1.000  N
  N34      1.0000 0.17900  0.99141  0.85784  Biso   1.000  N
  N35      1.0000 0.33079  0.31568  0.03578  Biso   1.000  N
  N36      1.0000 0.49628  0.16283  0.71874  Biso   1.000  N
  N37      1.0000 0.18763  0.50746  0.36398  Biso   1.000  N
  N38      1.0000 0.33541  0.17289  0.52248  Biso   1.000  N
  N39      1.0000 0.51926  0.31874  0.21816  Biso   1.000  N
  N40      1.0000 0.68923  0.46523  0.20471  Biso   1.000  N
  N41      1.0000 0.83400  0.16843  0.01918  Biso   1.000  N
  N42      1.0000 0.01443  0.31261  0.35934  Biso   1.000  N
  N43      1.0000 0.32384  0.98118  0.35812  Biso   1.000  N
  N44      1.0000 0.16519  0.67705  0.53235  Biso   1.000  N
  N45      1.0000 0.98229  0.80615  0.20090  Biso   1.000  N
  N46      1.0000 0.82684  0.99717  0.20622  Biso   1.000  N
  N47      1.0000 0.68212  0.66229  0.02982  Biso   1.000  N
  N48      1.0000 0.48512  0.82064  0.34348  Biso   1.000  N
  O1       1.0000 0.35473  0.53119  0.03842  Biso   1.000  O
  O2       1.0000 0.01002  0.33698  0.57589  Biso   1.000  O
  O3       1.0000 0.54311  0.99278  0.37251  Biso   1.000  O
  O4       1.0000 0.84379  0.52797  0.52365  Biso   1.000  O
  O5       1.0000 0.49652  0.33471  0.00095  Biso   1.000  O
  O6       1.0000 0.04490  0.97928  0.19051  Biso   1.000  O
  O7       1.0000 0.15372  0.02841  0.03216  Biso   1.000  O
  O8       1.0000 0.49390  0.82740  0.56078  Biso   1.000  O
  O9       1.0000 0.96825  0.48083  0.37817  Biso   1.000  O
  O10      1.0000 0.65373  0.02637  0.53180  Biso   1.000  O
  O11      1.0000 0.01234  0.83866  0.98532  Biso   1.000  O
  O12      1.0000 0.47089  0.49578  0.19149  Biso   1.000  O
  O13      1.0000 0.66478  0.44483  0.02505  Biso   1.000  O
  O14      1.0000 0.98154  0.64960  0.49419  Biso   1.000  O
  O15      1.0000 0.45827  0.99155  0.68725  Biso   1.000  O
  O16      1.0000 0.16059  0.45899  0.53562  Biso   1.000  O
  O17      1.0000 0.50763  0.64643  0.05925  Biso   1.000  O
  O18      1.0000 0.96222  0.00172  0.87575  Biso   1.000  O
  O19      1.0000 0.85424  0.94858  0.03509  Biso   1.000  O
  O20      1.0000 0.51680  0.15388  0.50161  Biso   1.000  O
  O21      1.0000 0.03969  0.49728  0.69120  Biso   1.000  O
  O22      1.0000 0.33853  0.95769  0.54625  Biso   1.000  O
  O23      1.0000 0.01093  0.15257  0.07990  Biso   1.000  O
  O24      1.0000 0.54110  0.49156  0.87591  Biso   1.000  O
  O25      1.0000 0.96076  0.98657  0.18874  Biso   1.000  O
  O26      1.0000 0.15334  0.94555  0.03317  Biso   1.000  O
  O27      1.0000 0.00352  0.15051  0.99716  Biso   1.000  O
  O28      1.0000 0.45909  0.99366  0.37544  Biso   1.000  O
  O29      1.0000 0.64721  0.94153  0.52528  Biso   1.000  O
  O30      1.0000 0.50391  0.14803  0.58470  Biso   1.000  O
  O31      1.0000 0.55527  0.48916  0.18855  Biso   1.000  O
  O32      1.0000 0.35078  0.44999  0.03992  Biso   1.000  O
  O33      1.0000 0.50361  0.64590  0.97442  Biso   1.000  O
  O34      1.0000 0.05102  0.49195  0.37981  Biso   1.000  O
  O35      1.0000 0.84991  0.44393  0.53110  Biso   1.000  O
  O36      1.0000 0.99201  0.65327  0.57591  Biso   1.000  O
  O37      1.0000 0.04542  0.01371  0.87434  Biso   1.000  O
  O38      1.0000 0.85483  0.03170  0.02024  Biso   1.000  O
  O39      1.0000 0.99526  0.82949  0.06786  Biso   1.000  O
  O40      1.0000 0.54295  0.98520  0.68488  Biso   1.000  O
  O41      1.0000 0.34485  0.03973  0.52105  Biso   1.000  O
  O42      1.0000 0.49186  0.83641  0.47864  Biso   1.000  O
  O43      1.0000 0.45502  0.49116  0.87387  Biso   1.000  O
  O44      1.0000 0.66643  0.52685  0.03047  Biso   1.000  O
  O45      1.0000 0.51480  0.33165  0.08246  Biso   1.000  O
  O46      1.0000 0.95527  0.49545  0.68702  Biso   1.000  O
  O47      1.0000 0.15234  0.54049  0.53971  Biso   1.000  O
  O48      1.0000 0.00395  0.33274  0.49307  Biso   1.000  O
  O49      1.0000 0.99907  0.93982  0.18812  Biso   1.000  O
  O50      1.0000 0.15633  0.98719  0.99190  Biso   1.000  O
  O51      1.0000 0.96376  0.14542  0.04580  Biso   1.000  O
  O52      1.0000 0.49673  0.95189  0.37240  Biso   1.000  O
  O53      1.0000 0.65279  0.98355  0.56969  Biso   1.000  O
  O54      1.0000 0.46850  0.14837  0.53935  Biso   1.000  O
  O55      1.0000 0.51113  0.45215  0.18811  Biso   1.000  O
  O56      1.0000 0.35273  0.49249  0.99390  Biso   1.000  O
  O57      1.0000 0.54789  0.64479  0.01355  Biso   1.000  O
  O58      1.0000 0.01546  0.44660  0.38080  Biso   1.000  O
  O59      1.0000 0.84277  0.49496  0.57137  Biso   1.000  O
  O60      1.0000 0.02963  0.65140  0.53182  Biso   1.000  O
  O61      1.0000 0.99691  0.04835  0.87670  Biso   1.000  O
  O62      1.0000 0.85411  0.99488  0.07173  Biso   1.000  O
  O63      1.0000 0.04630  0.82730  0.03568  Biso   1.000  O
  O64      1.0000 0.49712  0.02827  0.69170  Biso   1.000  O
  O65      1.0000 0.34648  0.98662  0.49056  Biso   1.000  O
  O66      1.0000 0.53012  0.82430  0.51657  Biso   1.000  O
  O67      1.0000 0.49803  0.53099  0.86990  Biso   1.000  O
  O68      1.0000 0.66461  0.48421  0.07096  Biso   1.000  O
  O69      1.0000 0.46769  0.33191  0.04753  Biso   1.000  O
  O70      1.0000 0.99491  0.53943  0.68825  Biso   1.000  O
  O71      1.0000 0.16307  0.50680  0.49660  Biso   1.000  O
  O72      1.0000 0.96637  0.33385  0.54038  Biso   1.000  O
  O73      1.0000 0.99559  0.45424  0.69265  Biso   1.000  O
  O74      1.0000 0.65374  0.98808  0.48448  Biso   1.000  O
  O75      1.0000 0.46591  0.64519  0.01452  Biso   1.000  O
  O76      1.0000 0.49451  0.44538  0.88250  Biso   1.000  O
  O77      1.0000 0.15425  0.98423  0.07829  Biso   1.000  O
  O78      1.0000 0.94837  0.65010  0.54107  Biso   1.000  O
  O79      1.0000 0.49674  0.94563  0.68263  Biso   1.000  O
  O80      1.0000 0.84636  0.48017  0.48881  Biso   1.000  O
  O81      1.0000 0.04751  0.15144  0.03659  Biso   1.000  O
  O82      1.0000 0.01168  0.96711  0.87333  Biso   1.000  O
  O83      1.0000 0.35354  0.48971  0.08007  Biso   1.000  O
  O84      1.0000 0.55305  0.14990  0.54656  Biso   1.000  O
  O85      1.0000 0.00014  0.52798  0.37486  Biso   1.000  O
  O86      1.0000 0.34434  0.00797  0.57286  Biso   1.000  O
  O87      1.0000 0.54912  0.33328  0.02988  Biso   1.000  O
  O88      1.0000 0.51397  0.53687  0.18790  Biso   1.000  O
  O89      1.0000 0.85308  0.98530  0.98555  Biso   1.000  O
  O90      1.0000 0.05052  0.33770  0.53236  Biso   1.000  O
  O91      1.0000 0.49928  0.03623  0.37979  Biso   1.000  O
  O92      1.0000 0.15858  0.50365  0.58041  Biso   1.000  O
  O93      1.0000 0.96225  0.83641  0.01937  Biso   1.000  O
  O94      1.0000 0.00996  0.02500  0.18891  Biso   1.000  O
  O95      1.0000 0.66493  0.48797  0.98874  Biso   1.000  O
  O96      1.0000 0.44886  0.84068  0.52219  Biso   1.000  O
  O97      1.0000 0.46915  0.19774  0.53948  Biso   1.000  O
  O98      1.0000 0.51465  0.45552  0.23844  Biso   1.000  O
  O99      1.0000 0.20940  0.50242  0.50082  Biso   1.000  O
  O100     1.0000 0.96544  0.19345  0.04730  Biso   1.000  O
  O101     1.0000 0.01330  0.44838  0.33239  Biso   1.000  O
  O102     1.0000 0.71382  0.48169  0.07309  Biso   1.000  O
  O103     1.0000 0.02791  0.70040  0.52785  Biso   1.000  O
  O104     1.0000 0.99524  0.94117  0.23573  Biso   1.000  O
  O105     1.0000 0.29630  0.98844  0.49096  Biso   1.000  O
  O106     1.0000 0.54919  0.69333  0.01748  Biso   1.000  O
  O107     1.0000 0.49928  0.95598  0.32267  Biso   1.000  O
  O108     1.0000 0.80458  0.99659  0.06842  Biso   1.000  O
  O109     1.0000 0.52649  0.77575  0.51767  Biso   1.000  O
  O110     1.0000 0.49858  0.52363  0.82032  Biso   1.000  O
  O111     1.0000 0.79727  0.48506  0.56893  Biso   1.000  O
  O112     1.0000 0.04362  0.77919  0.02377  Biso   1.000  O
  O113     1.0000 0.99297  0.53924  0.73661  Biso   1.000  O
  O114     1.0000 0.30492  0.49302  0.99704  Biso   1.000  O
  O115     1.0000 0.97099  0.28481  0.53963  Biso   1.000  O
  O116     1.0000 0.00341  0.05243  0.82804  Biso   1.000  O
  O117     1.0000 0.70106  0.98195  0.56923  Biso   1.000  O
  O118     1.0000 0.46325  0.28367  0.04856  Biso   1.000  O
  O119     1.0000 0.50084  0.02690  0.73990  Biso   1.000  O
  O120     1.0000 0.20567  0.98523  0.98955  Biso   1.000  O
  O121     1.0000 0.03651  0.49786  0.74060  Biso   1.000  O
  O122     1.0000 0.70208  0.02485  0.52651  Biso   1.000  O
  O123     1.0000 0.50567  0.69558  0.05766  Biso   1.000  O
  O124     1.0000 0.54096  0.48132  0.82836  Biso   1.000  O
  O125     1.0000 0.20237  0.02706  0.03357  Biso   1.000  O
  O126     1.0000 0.98128  0.69790  0.48909  Biso   1.000  O
  O127     1.0000 0.45619  0.98569  0.73498  Biso   1.000  O
  O128     1.0000 0.79572  0.52490  0.52431  Biso   1.000  O
  O129     1.0000 0.00695  0.20058  0.08481  Biso   1.000  O
  O130     1.0000 0.96675  0.00839  0.82840  Biso   1.000  O
  O131     1.0000 0.30663  0.53269  0.03676  Biso   1.000  O
  O132     1.0000 0.51974  0.20288  0.50358  Biso   1.000  O
  O133     1.0000 0.96631  0.48126  0.32783  Biso   1.000  O
  O134     1.0000 0.29111  0.96228  0.54463  Biso   1.000  O
  O135     1.0000 0.49861  0.28566  0.00002  Biso   1.000  O
  O136     1.0000 0.47279  0.49689  0.23974  Biso   1.000  O
  O137     1.0000 0.80570  0.95132  0.03740  Biso   1.000  O
  O138     1.0000 0.01655  0.28957  0.58031  Biso   1.000  O
  O139     1.0000 0.54197  0.99879  0.32418  Biso   1.000  O
  O140     1.0000 0.20809  0.46126  0.54063  Biso   1.000  O
  O141     1.0000 0.00535  0.79022  0.97951  Biso   1.000  O
  O142     1.0000 0.04532  0.98022  0.23881  Biso   1.000  O
  O143     1.0000 0.71338  0.44552  0.02730  Biso   1.000  O
  O144     1.0000 0.48406  0.77884  0.56149  Biso   1.000  O
  O145     1.0000 0.55544  0.49705  0.23585  Biso   1.000  O
  O146     1.0000 0.20090  0.54524  0.54279  Biso   1.000  O
  O147     1.0000 0.50589  0.19675  0.58516  Biso   1.000  O
  O148     1.0000 0.05226  0.49572  0.33068  Biso   1.000  O
  O149     1.0000 0.71422  0.52925  0.03549  Biso   1.000  O
  O150     1.0000 0.00271  0.19795  0.00081  Biso   1.000  O
  O151     1.0000 0.96124  0.99019  0.23805  Biso   1.000  O
  O152     1.0000 0.29640  0.04300  0.51894  Biso   1.000  O
  O153     1.0000 0.99618  0.70260  0.57223  Biso   1.000  O
  O154     1.0000 0.45823  0.99831  0.32744  Biso   1.000  O
  O155     1.0000 0.80567  0.03268  0.01981  Biso   1.000  O
  O156     1.0000 0.50559  0.69440  0.97332  Biso   1.000  O
  O157     1.0000 0.45648  0.48564  0.82548  Biso   1.000  O
  O158     1.0000 0.80037  0.44103  0.53305  Biso   1.000  O
  O159     1.0000 0.48629  0.78775  0.47781  Biso   1.000  O
  O160     1.0000 0.95537  0.49642  0.73499  Biso   1.000  O
  O161     1.0000 0.30195  0.44927  0.04063  Biso   1.000  O
  O162     1.0000 0.00110  0.78054  0.06543  Biso   1.000  O
  O163     1.0000 0.04937  0.01412  0.82421  Biso   1.000  O
  O164     1.0000 0.69463  0.94121  0.52501  Biso   1.000  O
  O165     1.0000 0.01414  0.28509  0.49445  Biso   1.000  O
  O166     1.0000 0.54114  0.97899  0.73292  Biso   1.000  O
  O167     1.0000 0.20268  0.94592  0.03103  Biso   1.000  O
  O168     1.0000 0.51488  0.28248  0.08444  Biso   1.000  O
  O169     1.0000 0.01061  0.02442  0.23815  Biso   1.000  O
  O170     1.0000 0.20344  0.98834  0.07308  Biso   1.000  O
  O171     1.0000 0.04794  0.20052  0.04245  Biso   1.000  O
  O172     1.0000 0.49793  0.04190  0.33108  Biso   1.000  O
  O173     1.0000 0.70248  0.98019  0.48555  Biso   1.000  O
  O174     1.0000 0.55466  0.19826  0.55173  Biso   1.000  O
  O175     1.0000 0.51323  0.53895  0.23562  Biso   1.000  O
  O176     1.0000 0.30546  0.49641  0.08091  Biso   1.000  O
  O177     1.0000 0.46616  0.69374  0.01680  Biso   1.000  O
  O178     1.0000 0.00266  0.52883  0.32727  Biso   1.000  O
  O179     1.0000 0.79709  0.47749  0.48593  Biso   1.000  O
  O180     1.0000 0.94361  0.69827  0.54260  Biso   1.000  O
  O181     1.0000 0.00952  0.96776  0.82505  Biso   1.000  O
  O182     1.0000 0.80539  0.98645  0.98572  Biso   1.000  O
  O183     1.0000 0.96216  0.78662  0.01877  Biso   1.000  O
  O184     1.0000 0.49557  0.93938  0.73091  Biso   1.000  O
  O185     1.0000 0.29570  0.01058  0.57148  Biso   1.000  O
  O186     1.0000 0.44296  0.79196  0.51428  Biso   1.000  O
  O187     1.0000 0.49881  0.43968  0.83242  Biso   1.000  O
  O188     1.0000 0.71409  0.48647  0.98727  Biso   1.000  O
  O189     1.0000 0.54623  0.28450  0.03598  Biso   1.000  O
  O190     1.0000 0.99806  0.45572  0.74078  Biso   1.000  O
  O191     1.0000 0.20697  0.50347  0.58247  Biso   1.000  O
  O192     1.0000 0.05301  0.28946  0.53431  Biso   1.000  O
