data_image0
_cell_length_a       46.7151
_cell_length_b       46.6534
_cell_length_c       46.5402
_cell_angle_alpha    90
_cell_angle_beta     90
_cell_angle_gamma    90

_symmetry_space_group_name_H-M    "P 1"
_symmetry_int_tables_number       1

loop_
  _symmetry_equiv_pos_as_xyz
  'x, y, z'

loop_
  _atom_site_label
  _atom_site_occupancy
  _atom_site_fract_x
  _atom_site_fract_y
  _atom_site_fract_z
  _atom_site_thermal_displace_type
  _atom_site_B_iso_or_equiv
  _atom_site_type_symbol
  C1       1.0000 0.54578  0.00963  0.33393  Biso   1.000  C
  C2       1.0000 0.30656  0.55168  0.98350  Biso   1.000  C
  C3       1.0000 0.98829  0.33255  0.56998  Biso   1.000  C
  C4       1.0000 0.04388  0.01036  0.18361  Biso   1.000  C
  C5       1.0000 0.81326  0.57174  0.52131  Biso   1.000  C
  C6       1.0000 0.49073  0.32555  0.97425  Biso   1.000  C
  C7       1.0000 0.92705  0.51359  0.33438  Biso   1.000  C
  C8       1.0000 0.17527  0.05383  0.99576  Biso   1.000  C
  C9       1.0000 0.49137  0.82311  0.55639  Biso   1.000  C
  C10      1.0000 0.42965  0.51775  0.18461  Biso   1.000  C
  C11      1.0000 0.66645  0.06755  0.51984  Biso   1.000  C
  C12      1.0000 0.97821  0.82866  0.95674  Biso   1.000  C
  C13      1.0000 0.42532  0.99034  0.69488  Biso   1.000  C
  C14      1.0000 0.67402  0.47407  0.02730  Biso   1.000  C
  C15      1.0000 0.00439  0.69164  0.45225  Biso   1.000  C
  C16      1.0000 0.92718  0.01491  0.83616  Biso   1.000  C
  C17      1.0000 0.17497  0.44204  0.50251  Biso   1.000  C
  C18      1.0000 0.47844  0.69143  0.05445  Biso   1.000  C
  C19      1.0000 0.05627  0.51420  0.68385  Biso   1.000  C
  C20      1.0000 0.81083  0.97408  0.02796  Biso   1.000  C
  C21      1.0000 0.48508  0.19248  0.46974  Biso   1.000  C
  C22      1.0000 0.55764  0.49821  0.83467  Biso   1.000  C
  C23      1.0000 0.30859  0.94474  0.50873  Biso   1.000  C
  C24      1.0000 0.99716  0.18980  0.06838  Biso   1.000  C
  C25      1.0000 0.30470  0.05425  0.51616  Biso   1.000  C
  C26      1.0000 0.50951  0.33595  0.08094  Biso   1.000  C
  C27      1.0000 0.03671  0.49679  0.32649  Biso   1.000  C
  C28      1.0000 0.81033  0.08390  0.01754  Biso   1.000  C
  C29      1.0000 0.98047  0.32489  0.45927  Biso   1.000  C
  C30      1.0000 0.53932  0.52033  0.19441  Biso   1.000  C
  C31      1.0000 0.17771  0.55215  0.49385  Biso   1.000  C
  C32      1.0000 0.99156  0.83238  0.06337  Biso   1.000  C
  C33      1.0000 0.43578  0.02069  0.33648  Biso   1.000  C
  C34      1.0000 0.66873  0.58275  0.01706  Biso   1.000  C
  C35      1.0000 0.50155  0.82468  0.44831  Biso   1.000  C
  C36      1.0000 0.93554  0.99582  0.19880  Biso   1.000  C
  C37      1.0000 0.66949  0.95705  0.52125  Biso   1.000  C
  C38      1.0000 0.48216  0.68446  0.94704  Biso   1.000  C
  C39      1.0000 0.94587  0.51338  0.69072  Biso   1.000  C
  C40      1.0000 0.17201  0.94878  0.02170  Biso   1.000  C
  C41      1.0000 0.99427  0.69414  0.56122  Biso   1.000  C
  C42      1.0000 0.44969  0.49374  0.82542  Biso   1.000  C
  C43      1.0000 0.80719  0.46286  0.52384  Biso   1.000  C
  C44      1.0000 0.99770  0.19502  0.96078  Biso   1.000  C
  C45      1.0000 0.53479  0.00530  0.69799  Biso   1.000  C
  C46      1.0000 0.31242  0.44399  0.01037  Biso   1.000  C
  C47      1.0000 0.48275  0.18341  0.57787  Biso   1.000  C
  C48      1.0000 0.03789  0.01583  0.83507  Biso   1.000  C
  C49      1.0000 0.97893  0.06982  0.83689  Biso   1.000  C
  C50      1.0000 0.81102  0.03422  0.07716  Biso   1.000  C
  C51      1.0000 0.03822  0.82972  0.01181  Biso   1.000  C
  C52      1.0000 0.47310  0.05256  0.69678  Biso   1.000  C
  C53      1.0000 0.30332  0.00887  0.45852  Biso   1.000  C
  C54      1.0000 0.54798  0.82700  0.50695  Biso   1.000  C
  C55      1.0000 0.49840  0.54851  0.83391  Biso   1.000  C
  C56      1.0000 0.67020  0.52899  0.07699  Biso   1.000  C
  C57      1.0000 0.44824  0.32950  0.03563  Biso   1.000  C
  C58      1.0000 0.00332  0.56701  0.69035  Biso   1.000  C
  C59      1.0000 0.17483  0.49415  0.44264  Biso   1.000  C
  C60      1.0000 0.92901  0.33450  0.51779  Biso   1.000  C
  C61      1.0000 0.00092  0.95155  0.19930  Biso   1.000  C
  C62      1.0000 0.16850  0.98528  0.95523  Biso   1.000  C
  C63      1.0000 0.94525  0.19421  0.01356  Biso   1.000  C
  C64      1.0000 0.48891  0.96237  0.33020  Biso   1.000  C
  C65      1.0000 0.66636  0.01641  0.57424  Biso   1.000  C
  C66      1.0000 0.42892  0.18696  0.52400  Biso   1.000  C
  C67      1.0000 0.48609  0.46676  0.19929  Biso   1.000  C
  C68      1.0000 0.31483  0.48444  0.94400  Biso   1.000  C
  C69      1.0000 0.53306  0.69880  0.00495  Biso   1.000  C
  C70      1.0000 0.97088  0.45284  0.33216  Biso   1.000  C
  C71      1.0000 0.80942  0.51630  0.58055  Biso   1.000  C
  C72      1.0000 0.05164  0.68416  0.50908  Biso   1.000  C
  C73      1.0000 0.98995  0.56123  0.32655  Biso   1.000  C
  C74      1.0000 0.30318  0.99407  0.56568  Biso   1.000  C
  C75      1.0000 0.55623  0.33672  0.01768  Biso   1.000  C
  C76      1.0000 0.48394  0.57587  0.18634  Biso   1.000  C
  C77      1.0000 0.80775  0.02779  0.96997  Biso   1.000  C
  C78      1.0000 0.03883  0.32375  0.51373  Biso   1.000  C
  C79      1.0000 0.48807  0.07219  0.33844  Biso   1.000  C
  C80      1.0000 0.17685  0.50224  0.55213  Biso   1.000  C
  C81      1.0000 0.92905  0.83628  0.01523  Biso   1.000  C
  C82      1.0000 0.98426  0.05858  0.19279  Biso   1.000  C
  C83      1.0000 0.67633  0.52042  0.96949  Biso   1.000  C
  C84      1.0000 0.43830  0.82103  0.49972  Biso   1.000  C
  C85      1.0000 0.00162  0.46070  0.69052  Biso   1.000  C
  C86      1.0000 0.66961  0.00502  0.46557  Biso   1.000  C
  C87      1.0000 0.42364  0.68430  0.00005  Biso   1.000  C
  C88      1.0000 0.50579  0.44074  0.83442  Biso   1.000  C
  C89      1.0000 0.17704  0.01432  0.06161  Biso   1.000  C
  C90      1.0000 0.94306  0.69787  0.50047  Biso   1.000  C
  C91      1.0000 0.48670  0.94591  0.68883  Biso   1.000  C
  C92      1.0000 0.81163  0.51923  0.47126  Biso   1.000  C
  C93      1.0000 0.05349  0.18497  0.01277  Biso   1.000  C
  C94      1.0000 0.98125  0.95876  0.83519  Biso   1.000  C
  C95      1.0000 0.30448  0.50677  0.04961  Biso   1.000  C
  C96      1.0000 0.53721  0.19136  0.52580  Biso   1.000  C
  C97      1.0000 0.66714  0.10075  0.51498  Biso   1.000  C
  C98      1.0000 0.48325  0.69368  0.08589  Biso   1.000  C
  C99      1.0000 0.08967  0.51663  0.68157  Biso   1.000  C
  C100     1.0000 0.17664  0.08534  0.99163  Biso   1.000  C
  C101     1.0000 0.00640  0.69024  0.42026  Biso   1.000  C
  C102     1.0000 0.58991  0.49704  0.83595  Biso   1.000  C
  C103     1.0000 0.81515  0.60343  0.51672  Biso   1.000  C
  C104     1.0000 0.99122  0.18942  0.10130  Biso   1.000  C
  C105     1.0000 0.39363  0.98772  0.69361  Biso   1.000  C
  C106     1.0000 0.30306  0.58439  0.98471  Biso   1.000  C
  C107     1.0000 0.48847  0.19534  0.43702  Biso   1.000  C
  C108     1.0000 0.89549  0.01626  0.83751  Biso   1.000  C
  C109     1.0000 0.31059  0.91208  0.50790  Biso   1.000  C
  C110     1.0000 0.48288  0.32300  0.94233  Biso   1.000  C
  C111     1.0000 0.89635  0.50987  0.33802  Biso   1.000  C
  C112     1.0000 0.81100  0.94199  0.02711  Biso   1.000  C
  C113     1.0000 0.99112  0.33181  0.60172  Biso   1.000  C
  C114     1.0000 0.39728  0.51577  0.18156  Biso   1.000  C
  C115     1.0000 0.17606  0.40910  0.50659  Biso   1.000  C
  C116     1.0000 0.97580  0.82948  0.92429  Biso   1.000  C
  C117     1.0000 0.57783  0.00678  0.33429  Biso   1.000  C
  C118     1.0000 0.67864  0.44229  0.02971  Biso   1.000  C
  C119     1.0000 0.48660  0.82235  0.58789  Biso   1.000  C
  C120     1.0000 0.07610  0.01576  0.18518  Biso   1.000  C
  C121     1.0000 0.81331  0.03156  0.10872  Biso   1.000  C
  C122     1.0000 0.06998  0.82789  0.01544  Biso   1.000  C
  C123     1.0000 0.98012  0.10189  0.83705  Biso   1.000  C
  C124     1.0000 0.30478  0.01779  0.42682  Biso   1.000  C
  C125     1.0000 0.57955  0.82821  0.50964  Biso   1.000  C
  C126     1.0000 0.47264  0.08528  0.69853  Biso   1.000  C
  C127     1.0000 0.67002  0.52864  0.10988  Biso   1.000  C
  C128     1.0000 0.41589  0.32702  0.03540  Biso   1.000  C
  C129     1.0000 0.49578  0.58162  0.82957  Biso   1.000  C
  C130     1.0000 0.17413  0.49286  0.40876  Biso   1.000  C
  C131     1.0000 0.89671  0.33668  0.52217  Biso   1.000  C
  C132     1.0000 0.00023  0.59844  0.69034  Biso   1.000  C
  C133     1.0000 0.17014  0.98421  0.92275  Biso   1.000  C
  C134     1.0000 0.91465  0.19823  0.01133  Biso   1.000  C
  C135     1.0000 0.00428  0.91856  0.19845  Biso   1.000  C
  C136     1.0000 0.66524  0.02508  0.60580  Biso   1.000  C
  C137     1.0000 0.39614  0.18369  0.52392  Biso   1.000  C
  C138     1.0000 0.49060  0.93054  0.32809  Biso   1.000  C
  C139     1.0000 0.31827  0.48268  0.91192  Biso   1.000  C
  C140     1.0000 0.56462  0.70402  0.01016  Biso   1.000  C
  C141     1.0000 0.48961  0.43484  0.20162  Biso   1.000  C
  C142     1.0000 0.80952  0.51894  0.61149  Biso   1.000  C
  C143     1.0000 0.08324  0.68113  0.50870  Biso   1.000  C
  C144     1.0000 0.96499  0.42147  0.33139  Biso   1.000  C
  C145     1.0000 0.30289  0.51159  0.08118  Biso   1.000  C
  C146     1.0000 0.07216  0.32201  0.51635  Biso   1.000  C
  C147     1.0000 0.48151  0.10302  0.33965  Biso   1.000  C
  C148     1.0000 0.81051  0.52655  0.43871  Biso   1.000  C
  C149     1.0000 0.58910  0.33946  0.01839  Biso   1.000  C
  C150     1.0000 0.98002  0.09101  0.19164  Biso   1.000  C
  C151     1.0000 0.17585  0.01526  0.09434  Biso   1.000  C
  C152     1.0000 0.40744  0.81949  0.50085  Biso   1.000  C
  C153     1.0000 0.99569  0.59381  0.32626  Biso   1.000  C
  C154     1.0000 0.67089  0.99635  0.43406  Biso   1.000  C
  C155     1.0000 0.89726  0.83977  0.01163  Biso   1.000  C
  C156     1.0000 0.48598  0.60813  0.18460  Biso   1.000  C
  C157     1.0000 0.67755  0.51582  0.93759  Biso   1.000  C
  C158     1.0000 0.91146  0.69817  0.49512  Biso   1.000  C
  C159     1.0000 0.48359  0.91393  0.68603  Biso   1.000  C
  C160     1.0000 0.17965  0.50052  0.58420  Biso   1.000  C
  C161     1.0000 0.39052  0.68362  0.00017  Biso   1.000  C
  C162     1.0000 0.98185  0.92656  0.83386  Biso   1.000  C
  C163     1.0000 0.80504  0.02306  0.93849  Biso   1.000  C
  C164     1.0000 0.56915  0.19196  0.52218  Biso   1.000  C
  C165     1.0000 0.00128  0.42875  0.69278  Biso   1.000  C
  C166     1.0000 0.30371  0.98459  0.59664  Biso   1.000  C
  C167     1.0000 0.08686  0.18293  0.01066  Biso   1.000  C
  C168     1.0000 0.50112  0.40914  0.83729  Biso   1.000  C
  C169     1.0000 0.99888  0.83213  0.09539  Biso   1.000  C
  C170     1.0000 0.07035  0.01013  0.83395  Biso   1.000  C
  C171     1.0000 0.80969  0.11518  0.01261  Biso   1.000  C
  C172     1.0000 0.50890  0.82894  0.41721  Biso   1.000  C
  C173     1.0000 0.56656  0.00883  0.69961  Biso   1.000  C
  C174     1.0000 0.30451  0.08477  0.52472  Biso   1.000  C
  C175     1.0000 0.51141  0.33989  0.11353  Biso   1.000  C
  C176     1.0000 0.41667  0.49400  0.82267  Biso   1.000  C
  C177     1.0000 0.66718  0.61379  0.01600  Biso   1.000  C
  C178     1.0000 0.97808  0.32470  0.42751  Biso   1.000  C
  C179     1.0000 0.91486  0.51204  0.69566  Biso   1.000  C
  C180     1.0000 0.17886  0.58409  0.49376  Biso   1.000  C
  C181     1.0000 0.00010  0.19322  0.92941  Biso   1.000  C
  C182     1.0000 0.90315  0.99303  0.19837  Biso   1.000  C
  C183     1.0000 0.17010  0.91574  0.02682  Biso   1.000  C
  C184     1.0000 0.47951  0.18313  0.60954  Biso   1.000  C
  C185     1.0000 0.40459  0.02546  0.33684  Biso   1.000  C
  C186     1.0000 0.67321  0.92533  0.52123  Biso   1.000  C
  C187     1.0000 0.48491  0.68378  0.91559  Biso   1.000  C
  C188     1.0000 0.57111  0.52401  0.19829  Biso   1.000  C
  C189     1.0000 0.31302  0.41356  0.01964  Biso   1.000  C
  C190     1.0000 0.99552  0.69417  0.59404  Biso   1.000  C
  C191     1.0000 0.06909  0.49407  0.32225  Biso   1.000  C
  C192     1.0000 0.80603  0.43160  0.52266  Biso   1.000  C
  C193     1.0000 0.83155  0.01868  0.92194  Biso   1.000  C
  C194     1.0000 0.88274  0.86711  0.01318  Biso   1.000  C
  C195     1.0000 0.97631  0.90827  0.85980  Biso   1.000  C
  C196     1.0000 0.33026  0.98339  0.61495  Biso   1.000  C
  C197     1.0000 0.39099  0.84771  0.49998  Biso   1.000  C
  C198     1.0000 0.48314  0.89833  0.65839  Biso   1.000  C
  C199     1.0000 0.65217  0.51094  0.91880  Biso   1.000  C
  C200     1.0000 0.60320  0.36873  0.01907  Biso   1.000  C
  C201     1.0000 0.49403  0.39677  0.86581  Biso   1.000  C
  C202     1.0000 0.15342  0.50494  0.60018  Biso   1.000  C
  C203     1.0000 0.09047  0.34715  0.51260  Biso   1.000  C
  C204     1.0000 0.00073  0.41165  0.66694  Biso   1.000  C
  C205     1.0000 0.14761  0.01239  0.10767  Biso   1.000  C
  C206     1.0000 0.10060  0.15609  0.00434  Biso   1.000  C
  C207     1.0000 0.98198  0.10722  0.16536  Biso   1.000  C
  C208     1.0000 0.64330  0.99702  0.41775  Biso   1.000  C
  C209     1.0000 0.58616  0.16608  0.51931  Biso   1.000  C
  C210     1.0000 0.48160  0.11786  0.36730  Biso   1.000  C
  C211     1.0000 0.32894  0.50901  0.09881  Biso   1.000  C
  C212     1.0000 0.37811  0.65607  0.99304  Biso   1.000  C
  C213     1.0000 0.48627  0.62338  0.15686  Biso   1.000  C
  C214     1.0000 0.83588  0.52224  0.42116  Biso   1.000  C
  C215     1.0000 0.89468  0.67144  0.50042  Biso   1.000  C
  C216     1.0000 0.99870  0.61033  0.35362  Biso   1.000  C
  C217     1.0000 0.08755  0.00365  0.85887  Biso   1.000  C
  C218     1.0000 0.83760  0.12782  0.00668  Biso   1.000  C
  C219     1.0000 0.99650  0.85704  0.11417  Biso   1.000  C
  C220     1.0000 0.58348  0.01428  0.67271  Biso   1.000  C
  C221     1.0000 0.33223  0.09951  0.52278  Biso   1.000  C
  C222     1.0000 0.50936  0.85578  0.40175  Biso   1.000  C
  C223     1.0000 0.40043  0.49194  0.84920  Biso   1.000  C
  C224     1.0000 0.63919  0.63029  0.01762  Biso   1.000  C
  C225     1.0000 0.50533  0.36747  0.12754  Biso   1.000  C
  C226     1.0000 0.89546  0.51336  0.67081  Biso   1.000  C
  C227     1.0000 0.15237  0.59962  0.49471  Biso   1.000  C
  C228     1.0000 0.97221  0.35145  0.41155  Biso   1.000  C
  C229     1.0000 0.88697  0.00328  0.17222  Biso   1.000  C
  C230     1.0000 0.14296  0.90224  0.02873  Biso   1.000  C
  C231     1.0000 0.99617  0.16600  0.91377  Biso   1.000  C
  C232     1.0000 0.38711  0.02300  0.36254  Biso   1.000  C
  C233     1.0000 0.64776  0.90771  0.51684  Biso   1.000  C
  C234     1.0000 0.47734  0.15457  0.62448  Biso   1.000  C
  C235     1.0000 0.58922  0.52379  0.17190  Biso   1.000  C
  C236     1.0000 0.34232  0.40076  0.02226  Biso   1.000  C
  C237     1.0000 0.48976  0.65568  0.90147  Biso   1.000  C
  C238     1.0000 0.08968  0.49361  0.34702  Biso   1.000  C
  C239     1.0000 0.83304  0.41753  0.52587  Biso   1.000  C
  C240     1.0000 0.99923  0.66551  0.61067  Biso   1.000  C
  C241     1.0000 0.60639  0.49901  0.86281  Biso   1.000  C
  C242     1.0000 0.84217  0.61856  0.51347  Biso   1.000  C
  C243     1.0000 0.48476  0.84872  0.60420  Biso   1.000  C
  C244     1.0000 0.10476  0.51765  0.65495  Biso   1.000  C
  C245     1.0000 0.33044  0.60274  0.98554  Biso   1.000  C
  C246     1.0000 0.97209  0.85677  0.90865  Biso   1.000  C
  C247     1.0000 0.88021  0.01336  0.86609  Biso   1.000  C
  C248     1.0000 0.64010  0.11664  0.51322  Biso   1.000  C
  C249     1.0000 0.99535  0.35720  0.61790  Biso   1.000  C
  C250     1.0000 0.37796  0.98763  0.66695  Biso   1.000  C
  C251     1.0000 0.15066  0.10284  0.99571  Biso   1.000  C
  C252     1.0000 0.48625  0.34932  0.92335  Biso   1.000  C
  C253     1.0000 0.38134  0.51159  0.15395  Biso   1.000  C
  C254     1.0000 0.14769  0.39414  0.50635  Biso   1.000  C
  C255     1.0000 0.48782  0.16871  0.42041  Biso   1.000  C
  C256     1.0000 0.88361  0.51359  0.36679  Biso   1.000  C
  C257     1.0000 0.65270  0.42428  0.03006  Biso   1.000  C
  C258     1.0000 0.98553  0.16087  0.11453  Biso   1.000  C
  C259     1.0000 0.09232  0.01841  0.15891  Biso   1.000  C
  C260     1.0000 0.33761  0.89773  0.50493  Biso   1.000  C
  C261     1.0000 0.00542  0.66383  0.40290  Biso   1.000  C
  C262     1.0000 0.59350  0.00661  0.36198  Biso   1.000  C
  C263     1.0000 0.83527  0.92232  0.02359  Biso   1.000  C
  C264     1.0000 0.48688  0.66870  0.10446  Biso   1.000  C
  C265     1.0000 0.98667  0.11671  0.86445  Biso   1.000  C
  C266     1.0000 0.83897  0.02109  0.12373  Biso   1.000  C
  C267     1.0000 0.08663  0.85430  0.01764  Biso   1.000  C
  C268     1.0000 0.47505  0.10256  0.67156  Biso   1.000  C
  C269     1.0000 0.33199  0.02177  0.41207  Biso   1.000  C
  C270     1.0000 0.59589  0.85534  0.51181  Biso   1.000  C
  C271     1.0000 0.49118  0.59926  0.85462  Biso   1.000  C
  C272     1.0000 0.64181  0.52768  0.12427  Biso   1.000  C
  C273     1.0000 0.39751  0.35235  0.02961  Biso   1.000  C
  C274     1.0000 0.00093  0.61396  0.66317  Biso   1.000  C
  C275     1.0000 0.14527  0.49318  0.39453  Biso   1.000  C
  C276     1.0000 0.88252  0.36480  0.52420  Biso   1.000  C
  C277     1.0000 0.00075  0.90506  0.17134  Biso   1.000  C
  C278     1.0000 0.14234  0.98941  0.90794  Biso   1.000  C
  C279     1.0000 0.89476  0.17269  0.00971  Biso   1.000  C
  C280     1.0000 0.50139  0.91314  0.35320  Biso   1.000  C
  C281     1.0000 0.63733  0.02117  0.62201  Biso   1.000  C
  C282     1.0000 0.38419  0.15458  0.52257  Biso   1.000  C
  C283     1.0000 0.49576  0.41709  0.17617  Biso   1.000  C
  C284     1.0000 0.34638  0.48446  0.89792  Biso   1.000  C
  C285     1.0000 0.58232  0.67840  0.01352  Biso   1.000  C
  C286     1.0000 0.96512  0.40588  0.35860  Biso   1.000  C
  C287     1.0000 0.83889  0.51944  0.62543  Biso   1.000  C
  C288     1.0000 0.09799  0.65413  0.50516  Biso   1.000  C
  C289     1.0000 0.33801  0.86555  0.50501  Biso   1.000  C
  C290     1.0000 0.48744  0.34443  0.89181  Biso   1.000  C
  C291     1.0000 0.85221  0.51804  0.36632  Biso   1.000  C
  C292     1.0000 0.83163  0.89072  0.02176  Biso   1.000  C
  C293     1.0000 0.99655  0.35699  0.64861  Biso   1.000  C
  C294     1.0000 0.34916  0.50940  0.15239  Biso   1.000  C
  C295     1.0000 0.14615  0.36359  0.51315  Biso   1.000  C
  C296     1.0000 0.97472  0.85457  0.87818  Biso   1.000  C
  C297     1.0000 0.62508  0.00234  0.36248  Biso   1.000  C
  C298     1.0000 0.65477  0.39294  0.03011  Biso   1.000  C
  C299     1.0000 0.48306  0.84625  0.63538  Biso   1.000  C
  C300     1.0000 0.12435  0.01550  0.16118  Biso   1.000  C
  C301     1.0000 0.64031  0.14892  0.51514  Biso   1.000  C
  C302     1.0000 0.48585  0.67295  0.13565  Biso   1.000  C
  C303     1.0000 0.13496  0.50985  0.65458  Biso   1.000  C
  C304     1.0000 0.15319  0.13433  0.99971  Biso   1.000  C
  C305     1.0000 0.00738  0.66403  0.37257  Biso   1.000  C
  C306     1.0000 0.63772  0.50079  0.86422  Biso   1.000  C
  C307     1.0000 0.84214  0.64924  0.50577  Biso   1.000  C
  C308     1.0000 0.98190  0.16019  0.14689  Biso   1.000  C
  C309     1.0000 0.34829  0.98087  0.66803  Biso   1.000  C
  C310     1.0000 0.32551  0.63338  0.98821  Biso   1.000  C
  C311     1.0000 0.48843  0.17084  0.38963  Biso   1.000  C
  C312     1.0000 0.84945  0.00934  0.86715  Biso   1.000  C
  C313     1.0000 0.14350  0.49005  0.36286  Biso   1.000  C
  C314     1.0000 0.35341  0.15306  0.52834  Biso   1.000  C
  C315     1.0000 0.49954  0.38739  0.18087  Biso   1.000  C
  C316     1.0000 0.64345  0.53062  0.15548  Biso   1.000  C
  C317     1.0000 0.86258  0.17718  0.00943  Biso   1.000  C
  C318     1.0000 0.96750  0.37317  0.35741  Biso   1.000  C
  C319     1.0000 0.33306  0.02791  0.38073  Biso   1.000  C
  C320     1.0000 0.13037  0.65263  0.50438  Biso   1.000  C
  C321     1.0000 0.00869  0.87409  0.16841  Biso   1.000  C
  C322     1.0000 0.83446  0.01360  0.15421  Biso   1.000  C
  C323     1.0000 0.61442  0.68167  0.01347  Biso   1.000  C
  C324     1.0000 0.50078  0.88119  0.35205  Biso   1.000  C
  C325     1.0000 0.84095  0.52023  0.65626  Biso   1.000  C
  C326     1.0000 0.62694  0.85458  0.50940  Biso   1.000  C
  C327     1.0000 0.49178  0.63050  0.85135  Biso   1.000  C
  C328     1.0000 0.34588  0.49116  0.86716  Biso   1.000  C
  C329     1.0000 0.11750  0.85114  0.02536  Biso   1.000  C
  C330     1.0000 0.99941  0.64513  0.66427  Biso   1.000  C
  C331     1.0000 0.63687  0.01989  0.65349  Biso   1.000  C
  C332     1.0000 0.85156  0.36342  0.52752  Biso   1.000  C
  C333     1.0000 0.98578  0.14827  0.86278  Biso   1.000  C
  C334     1.0000 0.14084  0.99331  0.87669  Biso   1.000  C
  C335     1.0000 0.36706  0.34925  0.02803  Biso   1.000  C
  C336     1.0000 0.47480  0.13408  0.67596  Biso   1.000  C
  C337     1.0000 0.65619  0.50703  0.88772  Biso   1.000  C
  C338     1.0000 0.86291  0.67072  0.49863  Biso   1.000  C
  C339     1.0000 0.48245  0.86707  0.65855  Biso   1.000  C
  C340     1.0000 0.15590  0.50599  0.63215  Biso   1.000  C
  C341     1.0000 0.34632  0.65551  0.99302  Biso   1.000  C
  C342     1.0000 0.97764  0.87788  0.85757  Biso   1.000  C
  C343     1.0000 0.82971  0.01277  0.89131  Biso   1.000  C
  C344     1.0000 0.61783  0.16997  0.51643  Biso   1.000  C
  C345     1.0000 0.99797  0.38033  0.66896  Biso   1.000  C
  C346     1.0000 0.32760  0.98050  0.64533  Biso   1.000  C
  C347     1.0000 0.13260  0.15576  0.00300  Biso   1.000  C
  C348     1.0000 0.49056  0.36459  0.86843  Biso   1.000  C
  C349     1.0000 0.32784  0.50851  0.12931  Biso   1.000  C
  C350     1.0000 0.12295  0.34297  0.51415  Biso   1.000  C
  C351     1.0000 0.48737  0.14982  0.36684  Biso   1.000  C
  C352     1.0000 0.83298  0.52081  0.38970  Biso   1.000  C
  C353     1.0000 0.63440  0.37035  0.02483  Biso   1.000  C
  C354     1.0000 0.97723  0.13825  0.16831  Biso   1.000  C
  C355     1.0000 0.14730  0.01414  0.14027  Biso   1.000  C
  C356     1.0000 0.35956  0.84432  0.50309  Biso   1.000  C
  C357     1.0000 0.00530  0.64114  0.35268  Biso   1.000  C
  C358     1.0000 0.64536  0.99815  0.38532  Biso   1.000  C
  C359     1.0000 0.85127  0.86677  0.01711  Biso   1.000  C
  C360     1.0000 0.48521  0.65363  0.15772  Biso   1.000  C
  C361     1.0000 0.98959  0.16964  0.88348  Biso   1.000  C
  C362     1.0000 0.85510  0.00538  0.17490  Biso   1.000  C
  C363     1.0000 0.14273  0.87067  0.02818  Biso   1.000  C
  C364     1.0000 0.47655  0.15640  0.65498  Biso   1.000  C
  C365     1.0000 0.35602  0.02851  0.36013  Biso   1.000  C
  C366     1.0000 0.64786  0.87677  0.51363  Biso   1.000  C
  C367     1.0000 0.49095  0.65358  0.87044  Biso   1.000  C
  C368     1.0000 0.62011  0.52912  0.17475  Biso   1.000  C
  C369     1.0000 0.34362  0.36896  0.02405  Biso   1.000  C
  C370     1.0000 0.99974  0.66678  0.64191  Biso   1.000  C
  C371     1.0000 0.11972  0.48987  0.34278  Biso   1.000  C
  C372     1.0000 0.83023  0.38595  0.52830  Biso   1.000  C
  C373     1.0000 0.00492  0.85308  0.14603  Biso   1.000  C
  C374     1.0000 0.11895  0.99631  0.85526  Biso   1.000  C
  C375     1.0000 0.83904  0.15908  0.00889  Biso   1.000  C
  C376     1.0000 0.50473  0.85739  0.37122  Biso   1.000  C
  C377     1.0000 0.61520  0.01716  0.67476  Biso   1.000  C
  C378     1.0000 0.33278  0.13115  0.52829  Biso   1.000  C
  C379     1.0000 0.50632  0.36591  0.15998  Biso   1.000  C
  C380     1.0000 0.36941  0.49348  0.84716  Biso   1.000  C
  C381     1.0000 0.63794  0.66139  0.01438  Biso   1.000  C
  C382     1.0000 0.97019  0.35180  0.37913  Biso   1.000  C
  C383     1.0000 0.86494  0.51687  0.67569  Biso   1.000  C
  C384     1.0000 0.15219  0.63105  0.50099  Biso   1.000  C
  C385     1.0000 0.18089  0.14938  0.99999  Biso   1.000  C
  C386     1.0000 0.98125  0.18679  0.16404  Biso   1.000  C
  C387     1.0000 0.13941  0.01712  0.18773  Biso   1.000  C
  C388     1.0000 0.66610  0.16513  0.51523  Biso   1.000  C
  C389     1.0000 0.49292  0.19790  0.37470  Biso   1.000  C
  C390     1.0000 0.64275  0.99916  0.33676  Biso   1.000  C
  C391     1.0000 0.29898  0.64697  0.98967  Biso   1.000  C
  C392     1.0000 0.48534  0.70211  0.14813  Biso   1.000  C
  C393     1.0000 0.33253  0.50812  0.17907  Biso   1.000  C
  C394     1.0000 0.81529  0.66700  0.50379  Biso   1.000  C
  C395     1.0000 0.01108  0.69004  0.35569  Biso   1.000  C
  C396     1.0000 0.83493  0.51777  0.34052  Biso   1.000  C
  C397     1.0000 0.80345  0.87802  0.02269  Biso   1.000  C
  C398     1.0000 0.97740  0.82838  0.86162  Biso   1.000  C
  C399     1.0000 0.83267  0.00831  0.84070  Biso   1.000  C
  C400     1.0000 0.31149  0.84948  0.50863  Biso   1.000  C
  C401     1.0000 0.48562  0.81930  0.65013  Biso   1.000  C
  C402     1.0000 0.33145  0.97396  0.69223  Biso   1.000  C
  C403     1.0000 0.68325  0.37909  0.03519  Biso   1.000  C
  C404     1.0000 0.48601  0.31617  0.87824  Biso   1.000  C
  C405     1.0000 0.65440  0.49649  0.83878  Biso   1.000  C
  C406     1.0000 0.17218  0.34745  0.52001  Biso   1.000  C
  C407     1.0000 0.99157  0.33122  0.66440  Biso   1.000  C
  C408     1.0000 0.15147  0.50985  0.68006  Biso   1.000  C
  C409     1.0000 0.13328  0.99557  0.82787  Biso   1.000  C
  C410     1.0000 0.81339  0.17727  0.01165  Biso   1.000  C
  C411     1.0000 0.01437  0.82590  0.15777  Biso   1.000  C
  C412     1.0000 0.63104  0.01221  0.70058  Biso   1.000  C
  C413     1.0000 0.30494  0.14624  0.53351  Biso   1.000  C
  C414     1.0000 0.50260  0.83013  0.35420  Biso   1.000  C
  C415     1.0000 0.35350  0.49726  0.81949  Biso   1.000  C
  C416     1.0000 0.66472  0.67820  0.01192  Biso   1.000  C
  C417     1.0000 0.50823  0.33919  0.17706  Biso   1.000  C
  C418     1.0000 0.85284  0.51775  0.70396  Biso   1.000  C
  C419     1.0000 0.18068  0.64632  0.50198  Biso   1.000  C
  C420     1.0000 0.97111  0.32461  0.36283  Biso   1.000  C
  C421     1.0000 0.84069  0.99881  0.20041  Biso   1.000  C
  C422     1.0000 0.16820  0.85245  0.02817  Biso   1.000  C
  C423     1.0000 0.99045  0.19608  0.86680  Biso   1.000  C
  C424     1.0000 0.34020  0.03559  0.33356  Biso   1.000  C
  C425     1.0000 0.67552  0.86109  0.51008  Biso   1.000  C
  C426     1.0000 0.47629  0.18206  0.67294  Biso   1.000  C
  C427     1.0000 0.63366  0.53504  0.20172  Biso   1.000  C
  C428     1.0000 0.31849  0.35089  0.02379  Biso   1.000  C
  C429     1.0000 0.49185  0.67909  0.85315  Biso   1.000  C
  C430     1.0000 0.13125  0.48524  0.31459  Biso   1.000  C
  C431     1.0000 0.80258  0.37058  0.52942  Biso   1.000  C
  C432     1.0000 0.99572  0.69348  0.65788  Biso   1.000  C
  C433     1.0000 0.98005  0.16352  0.83474  Biso   1.000  C
  C434     1.0000 0.80815  0.01299  0.16964  Biso   1.000  C
  C435     1.0000 0.13142  0.82291  0.02383  Biso   1.000  C
  C436     1.0000 0.47165  0.14830  0.70336  Biso   1.000  C
  C437     1.0000 0.30636  0.03239  0.36427  Biso   1.000  C
  C438     1.0000 0.64280  0.82894  0.50305  Biso   1.000  C
  C439     1.0000 0.49469  0.64405  0.82261  Biso   1.000  C
  C440     1.0000 0.67034  0.53836  0.17131  Biso   1.000  C
  C441     1.0000 0.35401  0.32079  0.02828  Biso   1.000  C
  C442     1.0000 0.99591  0.66014  0.69128  Biso   1.000  C
  C443     1.0000 0.16857  0.48889  0.34389  Biso   1.000  C
  C444     1.0000 0.83515  0.33681  0.52879  Biso   1.000  C
  C445     1.0000 0.01843  0.85689  0.19333  Biso   1.000  C
  C446     1.0000 0.16709  0.98979  0.85963  Biso   1.000  C
  C447     1.0000 0.84979  0.20574  0.01089  Biso   1.000  C
  C448     1.0000 0.49318  0.86706  0.32463  Biso   1.000  C
  C449     1.0000 0.66450  0.02246  0.66919  Biso   1.000  C
  C450     1.0000 0.33725  0.17971  0.53319  Biso   1.000  C
  C451     1.0000 0.49794  0.37266  0.20835  Biso   1.000  C
  C452     1.0000 0.32034  0.49401  0.85050  Biso   1.000  C
  C453     1.0000 0.62825  0.70895  0.00953  Biso   1.000  C
  C454     1.0000 0.96614  0.35730  0.32998  Biso   1.000  C
  C455     1.0000 0.81630  0.52223  0.67534  Biso   1.000  C
  C456     1.0000 0.14808  0.67793  0.50884  Biso   1.000  C
  C457     1.0000 0.00977  0.65566  0.32605  Biso   1.000  C
  C458     1.0000 0.30008  0.97431  0.65870  Biso   1.000  C
  C459     1.0000 0.65148  0.34374  0.02763  Biso   1.000  C
  C460     1.0000 0.48498  0.67168  0.18333  Biso   1.000  C
  C461     1.0000 0.80181  0.01312  0.87642  Biso   1.000  C
  C462     1.0000 0.13689  0.31408  0.51981  Biso   1.000  C
  C463     1.0000 0.48901  0.16696  0.34036  Biso   1.000  C
  C464     1.0000 0.18384  0.50493  0.64724  Biso   1.000  C
  C465     1.0000 0.83219  0.84202  0.01524  Biso   1.000  C
  C466     1.0000 0.97432  0.15355  0.19500  Biso   1.000  C
  C467     1.0000 0.68407  0.50773  0.87487  Biso   1.000  C
  C468     1.0000 0.34496  0.81581  0.50538  Biso   1.000  C
  C469     1.0000 0.99278  0.36598  0.69720  Biso   1.000  C
  C470     1.0000 0.67286  0.99525  0.37223  Biso   1.000  C
  C471     1.0000 0.32893  0.68126  0.99785  Biso   1.000  C
  C472     1.0000 0.48911  0.34597  0.84277  Biso   1.000  C
  C473     1.0000 0.17385  0.01486  0.15719  Biso   1.000  C
  C474     1.0000 0.84755  0.69813  0.49233  Biso   1.000  C
  C475     1.0000 0.48465  0.85165  0.68463  Biso   1.000  C
  C476     1.0000 0.80424  0.52704  0.37504  Biso   1.000  C
  C477     1.0000 0.14892  0.18193  0.00654  Biso   1.000  C
  C478     1.0000 0.98194  0.86305  0.83062  Biso   1.000  C
  C479     1.0000 0.30031  0.50773  0.14364  Biso   1.000  C
  C480     1.0000 0.63277  0.19712  0.51975  Biso   1.000  C
  C481     1.0000 0.36203  0.78948  0.50359  Biso   1.000  C
  C482     1.0000 0.49550  0.35972  0.81520  Biso   1.000  C
  C483     1.0000 0.78008  0.53283  0.39403  Biso   1.000  C
  C484     1.0000 0.84735  0.81465  0.00984  Biso   1.000  C
  C485     1.0000 0.99097  0.38376  0.72384  Biso   1.000  C
  C486     1.0000 0.27311  0.51119  0.12609  Biso   1.000  C
  C487     1.0000 0.11775  0.28965  0.52289  Biso   1.000  C
  C488     1.0000 0.98791  0.88189  0.80510  Biso   1.000  C
  C489     1.0000 0.70089  0.99181  0.38906  Biso   1.000  C
  C490     1.0000 0.63793  0.31581  0.02653  Biso   1.000  C
  C491     1.0000 0.48567  0.86508  0.71273  Biso   1.000  C
  C492     1.0000 0.20211  0.01547  0.14426  Biso   1.000  C
  C493     1.0000 0.61517  0.22396  0.52390  Biso   1.000  C
  C494     1.0000 0.48823  0.65648  0.21135  Biso   1.000  C
  C495     1.0000 0.21016  0.50255  0.63007  Biso   1.000  C
  C496     1.0000 0.13373  0.20916  0.01467  Biso   1.000  C
  C497     1.0000 0.00811  0.63774  0.29924  Biso   1.000  C
  C498     1.0000 0.70796  0.51580  0.89374  Biso   1.000  C
  C499     1.0000 0.86435  0.72291  0.48603  Biso   1.000  C
  C500     1.0000 0.96993  0.13748  0.22142  Biso   1.000  C
  C501     1.0000 0.27421  0.97245  0.64047  Biso   1.000  C
  C502     1.0000 0.34237  0.70919  0.00631  Biso   1.000  C
  C503     1.0000 0.48510  0.15197  0.31277  Biso   1.000  C
  C504     1.0000 0.77448  0.01622  0.89284  Biso   1.000  C
  C505     1.0000 0.63897  0.48967  0.81095  Biso   1.000  C
  C506     1.0000 0.78754  0.65121  0.51109  Biso   1.000  C
  C507     1.0000 0.48572  0.79236  0.63416  Biso   1.000  C
  C508     1.0000 0.13800  0.51592  0.70719  Biso   1.000  C
  C509     1.0000 0.27240  0.62912  0.98734  Biso   1.000  C
  C510     1.0000 0.97625  0.80075  0.87756  Biso   1.000  C
  C511     1.0000 0.84622  0.01023  0.81198  Biso   1.000  C
  C512     1.0000 0.69440  0.14959  0.51389  Biso   1.000  C
  C513     1.0000 0.98882  0.30415  0.64784  Biso   1.000  C
  C514     1.0000 0.34529  0.97465  0.71952  Biso   1.000  C
  C515     1.0000 0.20685  0.13309  0.99484  Biso   1.000  C
  C516     1.0000 0.47881  0.29140  0.89701  Biso   1.000  C
  C517     1.0000 0.34821  0.50922  0.20712  Biso   1.000  C
  C518     1.0000 0.19971  0.36232  0.51969  Biso   1.000  C
  C519     1.0000 0.49823  0.22479  0.39118  Biso   1.000  C
  C520     1.0000 0.84718  0.51226  0.31204  Biso   1.000  C
  C521     1.0000 0.71011  0.39583  0.03879  Biso   1.000  C
  C522     1.0000 0.98503  0.21562  0.14837  Biso   1.000  C
  C523     1.0000 0.12294  0.01591  0.21351  Biso   1.000  C
  C524     1.0000 0.28292  0.86512  0.51267  Biso   1.000  C
  C525     1.0000 0.01432  0.71696  0.37279  Biso   1.000  C
  C526     1.0000 0.62652  0.00215  0.30878  Biso   1.000  C
  C527     1.0000 0.77789  0.89674  0.02869  Biso   1.000  C
  C528     1.0000 0.48166  0.72688  0.12914  Biso   1.000  C
  C529     1.0000 0.78455  0.16428  0.01654  Biso   1.000  C
  C530     1.0000 0.01697  0.80193  0.13866  Biso   1.000  C
  C531     1.0000 0.11630  0.00149  0.80267  Biso   1.000  C
  C532     1.0000 0.27776  0.13159  0.53472  Biso   1.000  C
  C533     1.0000 0.50922  0.80185  0.37014  Biso   1.000  C
  C534     1.0000 0.61434  0.00568  0.72570  Biso   1.000  C
  C535     1.0000 0.69262  0.66256  0.01179  Biso   1.000  C
  C536     1.0000 0.51323  0.31171  0.16230  Biso   1.000  C
  C537     1.0000 0.36894  0.49626  0.79142  Biso   1.000  C
  C538     1.0000 0.20776  0.62886  0.50307  Biso   1.000  C
  C539     1.0000 0.97668  0.29800  0.37908  Biso   1.000  C
  C540     1.0000 0.87053  0.51325  0.72924  Biso   1.000  C
  C541     1.0000 0.19579  0.86661  0.03273  Biso   1.000  C
  C542     1.0000 0.99950  0.22229  0.88288  Biso   1.000  C
  C543     1.0000 0.85679  0.98651  0.22478  Biso   1.000  C
  C544     1.0000 0.70223  0.87816  0.51328  Biso   1.000  C
  C545     1.0000 0.47511  0.21104  0.65763  Biso   1.000  C
  C546     1.0000 0.35931  0.03811  0.30911  Biso   1.000  C
  C547     1.0000 0.29008  0.36434  0.02301  Biso   1.000  C
  C548     1.0000 0.48930  0.70769  0.86541  Biso   1.000  C
  C549     1.0000 0.61492  0.53714  0.22696  Biso   1.000  C
  C550     1.0000 0.77548  0.38667  0.52837  Biso   1.000  C
  C551     1.0000 0.99786  0.72219  0.64322  Biso   1.000  C
  C552     1.0000 0.11081  0.48453  0.28872  Biso   1.000  C
  C553     1.0000 0.96948  0.14735  0.80946  Biso   1.000  C
  C554     1.0000 0.78363  0.02661  0.15452  Biso   1.000  C
  C555     1.0000 0.11536  0.79690  0.02045  Biso   1.000  C
  C556     1.0000 0.47273  0.12937  0.72927  Biso   1.000  C
  C557     1.0000 0.27898  0.03008  0.37944  Biso   1.000  C
  C558     1.0000 0.62662  0.80163  0.50090  Biso   1.000  C
  C559     1.0000 0.49493  0.62440  0.79741  Biso   1.000  C
  C560     1.0000 0.69781  0.53852  0.15613  Biso   1.000  C
  C561     1.0000 0.37144  0.29438  0.03420  Biso   1.000  C
  C562     1.0000 0.99709  0.64289  0.71809  Biso   1.000  C
  C563     1.0000 0.19683  0.49086  0.35913  Biso   1.000  C
  C564     1.0000 0.84913  0.30901  0.52563  Biso   1.000  C
  C565     1.0000 0.01904  0.87179  0.22273  Biso   1.000  C
  C566     1.0000 0.19444  0.98294  0.87416  Biso   1.000  C
  C567     1.0000 0.86935  0.23147  0.01107  Biso   1.000  C
  C568     1.0000 0.48374  0.88510  0.29996  Biso   1.000  C
  C569     1.0000 0.69158  0.03010  0.65543  Biso   1.000  C
  C570     1.0000 0.35007  0.20865  0.53493  Biso   1.000  C
  C571     1.0000 0.49274  0.38988  0.23365  Biso   1.000  C
  C572     1.0000 0.29196  0.48961  0.86315  Biso   1.000  C
  C573     1.0000 0.61036  0.73573  0.00777  Biso   1.000  C
  C574     1.0000 0.95805  0.37421  0.30409  Biso   1.000  C
  C575     1.0000 0.78772  0.52396  0.66167  Biso   1.000  C
  C576     1.0000 0.13174  0.70473  0.51260  Biso   1.000  C
  C577     1.0000 0.27470  0.51454  0.09494  Biso   1.000  C
  C578     1.0000 0.08623  0.29348  0.52260  Biso   1.000  C
  C579     1.0000 0.48281  0.11948  0.31281  Biso   1.000  C
  C580     1.0000 0.78292  0.53553  0.42536  Biso   1.000  C
  C581     1.0000 0.60710  0.31414  0.02328  Biso   1.000  C
  C582     1.0000 0.97578  0.10644  0.21924  Biso   1.000  C
  C583     1.0000 0.20210  0.01682  0.11270  Biso   1.000  C
  C584     1.0000 0.39242  0.79144  0.50272  Biso   1.000  C
  C585     1.0000 0.00111  0.60700  0.29868  Biso   1.000  C
  C586     1.0000 0.69959  0.99182  0.42078  Biso   1.000  C
  C587     1.0000 0.87950  0.81391  0.00909  Biso   1.000  C
  C588     1.0000 0.48840  0.62426  0.21188  Biso   1.000  C
  C589     1.0000 0.70576  0.51919  0.92433  Biso   1.000  C
  C590     1.0000 0.89527  0.72389  0.48785  Biso   1.000  C
  C591     1.0000 0.48430  0.89679  0.71414  Biso   1.000  C
  C592     1.0000 0.20758  0.49889  0.59836  Biso   1.000  C
  C593     1.0000 0.37371  0.71044  0.00755  Biso   1.000  C
  C594     1.0000 0.98834  0.91353  0.80742  Biso   1.000  C
  C595     1.0000 0.77682  0.02311  0.92425  Biso   1.000  C
  C596     1.0000 0.58349  0.22155  0.52438  Biso   1.000  C
  C597     1.0000 0.99565  0.41578  0.72169  Biso   1.000  C
  C598     1.0000 0.27499  0.97868  0.61000  Biso   1.000  C
  C599     1.0000 0.10211  0.20958  0.01709  Biso   1.000  C
  C600     1.0000 0.50067  0.39059  0.81166  Biso   1.000  C
  C601     1.0000 0.19636  0.97946  0.90559  Biso   1.000  C
  C602     1.0000 0.90167  0.22784  0.01118  Biso   1.000  C
  C603     1.0000 0.01272  0.90238  0.22414  Biso   1.000  C
  C604     1.0000 0.69117  0.03018  0.62341  Biso   1.000  C
  C605     1.0000 0.38037  0.21045  0.53057  Biso   1.000  C
  C606     1.0000 0.48268  0.91735  0.30149  Biso   1.000  C
  C607     1.0000 0.29076  0.48458  0.89428  Biso   1.000  C
  C608     1.0000 0.57861  0.73250  0.00771  Biso   1.000  C
  C609     1.0000 0.48629  0.42044  0.22843  Biso   1.000  C
  C610     1.0000 0.78313  0.51959  0.62979  Biso   1.000  C
  C611     1.0000 0.10014  0.70668  0.51080  Biso   1.000  C
  C612     1.0000 0.95907  0.40689  0.30386  Biso   1.000  C
  C613     1.0000 0.78597  0.03483  0.12374  Biso   1.000  C
  C614     1.0000 0.08441  0.79980  0.01874  Biso   1.000  C
  C615     1.0000 0.97132  0.11581  0.81028  Biso   1.000  C
  C616     1.0000 0.27856  0.02183  0.41062  Biso   1.000  C
  C617     1.0000 0.59607  0.80128  0.50377  Biso   1.000  C
  C618     1.0000 0.47258  0.09748  0.72763  Biso   1.000  C
  C619     1.0000 0.69785  0.53329  0.12556  Biso   1.000  C
  C620     1.0000 0.40361  0.29716  0.03729  Biso   1.000  C
  C621     1.0000 0.49691  0.59306  0.80042  Biso   1.000  C
  C622     1.0000 0.19955  0.49140  0.39058  Biso   1.000  C
  C623     1.0000 0.88061  0.30963  0.52344  Biso   1.000  C
  C624     1.0000 0.99865  0.61222  0.71810  Biso   1.000  C
  C625     1.0000 0.00438  0.22038  0.91383  Biso   1.000  C
  C626     1.0000 0.88796  0.98264  0.22384  Biso   1.000  C
  C627     1.0000 0.19770  0.89802  0.02894  Biso   1.000  C
  C628     1.0000 0.47906  0.21089  0.62606  Biso   1.000  C
  C629     1.0000 0.39030  0.03498  0.31047  Biso   1.000  C
  C630     1.0000 0.70084  0.90917  0.52199  Biso   1.000  C
  C631     1.0000 0.48525  0.70856  0.89698  Biso   1.000  C
  C632     1.0000 0.58411  0.53050  0.22629  Biso   1.000  C
  C633     1.0000 0.28735  0.39598  0.02237  Biso   1.000  C
  C634     1.0000 0.99696  0.72254  0.61082  Biso   1.000  C
  C635     1.0000 0.08099  0.48879  0.29293  Biso   1.000  C
  C636     1.0000 0.77723  0.41772  0.52423  Biso   1.000  C
  C637     1.0000 0.01052  0.80562  0.10784  Biso   1.000  C
  C638     1.0000 0.08463  0.00895  0.80589  Biso   1.000  C
  C639     1.0000 0.78292  0.13193  0.01692  Biso   1.000  C
  C640     1.0000 0.51277  0.80299  0.40127  Biso   1.000  C
  C641     1.0000 0.58352  0.00340  0.72610  Biso   1.000  C
  C642     1.0000 0.27719  0.10077  0.52950  Biso   1.000  C
  C643     1.0000 0.51506  0.31266  0.12953  Biso   1.000  C
  C644     1.0000 0.40049  0.49675  0.79474  Biso   1.000  C
  C645     1.0000 0.69291  0.63071  0.01109  Biso   1.000  C
  C646     1.0000 0.97956  0.29871  0.41101  Biso   1.000  C
  C647     1.0000 0.90225  0.51172  0.72672  Biso   1.000  C
  C648     1.0000 0.20798  0.59757  0.49901  Biso   1.000  C
  C649     1.0000 0.00852  0.71756  0.40457  Biso   1.000  C
  C650     1.0000 0.37621  0.98362  0.72043  Biso   1.000  C
  C651     1.0000 0.70693  0.42755  0.03418  Biso   1.000  C
  C652     1.0000 0.48056  0.72200  0.09764  Biso   1.000  C
  C653     1.0000 0.87806  0.01395  0.81090  Biso   1.000  C
  C654     1.0000 0.20190  0.39297  0.51416  Biso   1.000  C
  C655     1.0000 0.49447  0.22368  0.42150  Biso   1.000  C
  C656     1.0000 0.10609  0.51780  0.70890  Biso   1.000  C
  C657     1.0000 0.78147  0.92858  0.03016  Biso   1.000  C
  C658     1.0000 0.99139  0.21670  0.11766  Biso   1.000  C
  C659     1.0000 0.60759  0.49234  0.81083  Biso   1.000  C
  C660     1.0000 0.28375  0.89726  0.51227  Biso   1.000  C
  C661     1.0000 0.98645  0.30398  0.61679  Biso   1.000  C
  C662     1.0000 0.59537  0.00601  0.30838  Biso   1.000  C
  C663     1.0000 0.27509  0.59729  0.98592  Biso   1.000  C
  C664     1.0000 0.47949  0.29330  0.92818  Biso   1.000  C
  C665     1.0000 0.09147  0.01686  0.21258  Biso   1.000  C
  C666     1.0000 0.78782  0.62032  0.51691  Biso   1.000  C
  C667     1.0000 0.48557  0.79423  0.60245  Biso   1.000  C
  C668     1.0000 0.87827  0.50709  0.31057  Biso   1.000  C
  C669     1.0000 0.20474  0.10207  0.99205  Biso   1.000  C
  C670     1.0000 0.97726  0.80130  0.90851  Biso   1.000  C
  C671     1.0000 0.37924  0.51405  0.20701  Biso   1.000  C
  C672     1.0000 0.69418  0.11797  0.51072  Biso   1.000  C
  C673     1.0000 0.17900  0.98821  0.81206  Biso   1.000  C
  C674     1.0000 0.80300  0.22373  0.01422  Biso   1.000  C
  C675     1.0000 0.02525  0.80762  0.20175  Biso   1.000  C
  C676     1.0000 0.67670  0.01544  0.71631  Biso   1.000  C
  C677     1.0000 0.29006  0.19281  0.53923  Biso   1.000  C
  C678     1.0000 0.49741  0.82147  0.30660  Biso   1.000  C
  C679     1.0000 0.30921  0.50185  0.80242  Biso   1.000  C
  C680     1.0000 0.67410  0.72586  0.00897  Biso   1.000  C
  C681     1.0000 0.50252  0.32602  0.22537  Biso   1.000  C
  C682     1.0000 0.80680  0.51646  0.72218  Biso   1.000  C
  C683     1.0000 0.19567  0.69180  0.51280  Biso   1.000  C
  C684     1.0000 0.96401  0.31192  0.31583  Biso   1.000  C
  C685     1.0000 0.79407  0.00069  0.21482  Biso   1.000  C
  C686     1.0000 0.17666  0.80366  0.02504  Biso   1.000  C
  C687     1.0000 0.98308  0.20963  0.82105  Biso   1.000  C
  C688     1.0000 0.29311  0.04071  0.31662  Biso   1.000  C
  C689     1.0000 0.68887  0.81624  0.50123  Biso   1.000  C
  C690     1.0000 0.47333  0.19375  0.72132  Biso   1.000  C
  C691     1.0000 0.67903  0.54020  0.21824  Biso   1.000  C
  C692     1.0000 0.30710  0.30431  0.02323  Biso   1.000  C
  C693     1.0000 0.48833  0.69225  0.80488  Biso   1.000  C
  C694     1.0000 0.17865  0.48128  0.29593  Biso   1.000  C
  C695     1.0000 0.78854  0.32393  0.52605  Biso   1.000  C
  C696     1.0000 0.99481  0.70796  0.70403  Biso   1.000  C
  C697     1.0000 0.69097  0.99278  0.32694  Biso   1.000  C
  C698     1.0000 0.28096  0.69169  0.99741  Biso   1.000  C
  C699     1.0000 0.98664  0.32098  0.71263  Biso   1.000  C
  C700     1.0000 0.18531  0.02263  0.20576  Biso   1.000  C
  C701     1.0000 0.79923  0.71118  0.49645  Biso   1.000  C
  C702     1.0000 0.48070  0.30085  0.83067  Biso   1.000  C
  C703     1.0000 0.78781  0.52619  0.32952  Biso   1.000  C
  C704     1.0000 0.19667  0.19550  0.00795  Biso   1.000  C
  C705     1.0000 0.48616  0.80406  0.69584  Biso   1.000  C
  C706     1.0000 0.28566  0.49927  0.18937  Biso   1.000  C
  C707     1.0000 0.67716  0.21319  0.52276  Biso   1.000  C
  C708     1.0000 0.98619  0.81720  0.81503  Biso   1.000  C
  C709     1.0000 0.28552  0.96936  0.70587  Biso   1.000  C
  C710     1.0000 0.69878  0.33258  0.02953  Biso   1.000  C
  C711     1.0000 0.02055  0.70104  0.30788  Biso   1.000  C
  C712     1.0000 0.78358  0.01024  0.83027  Biso   1.000  C
  C713     1.0000 0.18299  0.30064  0.52851  Biso   1.000  C
  C714     1.0000 0.48671  0.71787  0.19344  Biso   1.000  C
  C715     1.0000 0.19940  0.50566  0.69342  Biso   1.000  C
  C716     1.0000 0.78323  0.83397  0.01530  Biso   1.000  C
  C717     1.0000 0.49465  0.21313  0.32819  Biso   1.000  C
  C718     1.0000 0.70294  0.50149  0.83008  Biso   1.000  C
  C719     1.0000 0.29868  0.80321  0.51220  Biso   1.000  C
  C720     1.0000 0.96831  0.20095  0.20992  Biso   1.000  C
  C721     1.0000 0.50643  0.82799  0.27723  Biso   1.000  C
  C722     1.0000 0.30789  0.52806  0.78419  Biso   1.000  C
  C723     1.0000 0.78733  0.30346  0.54812  Biso   1.000  C
  C724     1.0000 0.01105  0.78098  0.19698  Biso   1.000  C
  C725     1.0000 0.78750  0.54012  0.72884  Biso   1.000  C
  C726     1.0000 0.28532  0.30098  0.00087  Biso   1.000  C
  C727     1.0000 0.97412  0.31550  0.28591  Biso   1.000  C
  C728     1.0000 0.20885  0.99875  0.81418  Biso   1.000  C
  C729     1.0000 0.71610  0.81752  0.51764  Biso   1.000  C
  C730     1.0000 0.47709  0.32343  0.24321  Biso   1.000  C
  C731     1.0000 0.70741  0.00366  0.71231  Biso   1.000  C
  C732     1.0000 0.20165  0.80626  0.00535  Biso   1.000  C
  C733     1.0000 0.45795  0.18825  0.74837  Biso   1.000  C
  C734     1.0000 0.67546  0.52183  0.24349  Biso   1.000  C
  C735     1.0000 0.19134  0.71597  0.53357  Biso   1.000  C
  C736     1.0000 0.97325  0.23987  0.82634  Biso   1.000  C
  C737     1.0000 0.17302  0.49250  0.26635  Biso   1.000  C
  C738     1.0000 0.67047  0.75249  0.02470  Biso   1.000  C
  C739     1.0000 0.01329  0.70714  0.72984  Biso   1.000  C
  C740     1.0000 0.76427  0.99156  0.21007  Biso   1.000  C
  C741     1.0000 0.26677  0.19398  0.51860  Biso   1.000  C
  C742     1.0000 0.50751  0.69147  0.77912  Biso   1.000  C
  C743     1.0000 0.26247  0.05227  0.32094  Biso   1.000  C
  C744     1.0000 0.80835  0.24636  0.03511  Biso   1.000  C
  C745     1.0000 0.03522  0.69144  0.28199  Biso   1.000  C
  C746     1.0000 0.25693  0.98272  0.70005  Biso   1.000  C
  C747     1.0000 0.72061  0.32744  0.05393  Biso   1.000  C
  C748     1.0000 0.50523  0.74278  0.18769  Biso   1.000  C
  C749     1.0000 0.78504  0.99227  0.80463  Biso   1.000  C
  C750     1.0000 0.20666  0.30510  0.54935  Biso   1.000  C
  C751     1.0000 0.50812  0.20937  0.30023  Biso   1.000  C
  C752     1.0000 0.19637  0.48931  0.71941  Biso   1.000  C
  C753     1.0000 0.75614  0.84036  0.99998  Biso   1.000  C
  C754     1.0000 0.97662  0.19700  0.24024  Biso   1.000  C
  C755     1.0000 0.69801  0.51289  0.80176  Biso   1.000  C
  C756     1.0000 0.26690  0.80771  0.50401  Biso   1.000  C
  C757     1.0000 0.97193  0.29376  0.70642  Biso   1.000  C
  C758     1.0000 0.69251  0.97163  0.30347  Biso   1.000  C
  C759     1.0000 0.25343  0.68487  0.01110  Biso   1.000  C
  C760     1.0000 0.49244  0.27133  0.83718  Biso   1.000  C
  C761     1.0000 0.21119  0.00537  0.20849  Biso   1.000  C
  C762     1.0000 0.79739  0.73282  0.47248  Biso   1.000  C
  C763     1.0000 0.46956  0.80641  0.72210  Biso   1.000  C
  C764     1.0000 0.75669  0.51997  0.33617  Biso   1.000  C
  C765     1.0000 0.22471  0.18818  0.02153  Biso   1.000  C
  C766     1.0000 0.97647  0.82277  0.78611  Biso   1.000  C
  C767     1.0000 0.28883  0.50533  0.22162  Biso   1.000  C
  C768     1.0000 0.70334  0.21084  0.53904  Biso   1.000  C
  C769     1.0000 0.46976  0.71843  0.80619  Biso   1.000  C
  C770     1.0000 0.81011  0.49137  0.74094  Biso   1.000  C
  C771     1.0000 0.68541  0.79254  0.48023  Biso   1.000  C
  C772     1.0000 0.97920  0.73528  0.69977  Biso   1.000  C
  C773     1.0000 0.28934  0.47900  0.79838  Biso   1.000  C
  C774     1.0000 0.17478  0.77657  0.04034  Biso   1.000  C
  C775     1.0000 0.99034  0.20153  0.79111  Biso   1.000  C
  C776     1.0000 0.67076  0.02596  0.74532  Biso   1.000  C
  C777     1.0000 0.76514  0.32375  0.50347  Biso   1.000  C
  C778     1.0000 0.48871  0.22238  0.71892  Biso   1.000  C
  C779     1.0000 0.17157  0.96945  0.78803  Biso   1.000  C
  C780     1.0000 0.30552  0.28171  0.04569  Biso   1.000  C
  C781     1.0000 0.52389  0.30362  0.22650  Biso   1.000  C
  C782     1.0000 0.20538  0.46594  0.30172  Biso   1.000  C
  C783     1.0000 0.28781  0.21150  0.56417  Biso   1.000  C
  C784     1.0000 0.94920  0.28442  0.32037  Biso   1.000  C
  C785     1.0000 0.70461  0.56001  0.21888  Biso   1.000  C
  C786     1.0000 0.77645  0.22194  0.99762  Biso   1.000  C
  C787     1.0000 0.04675  0.81003  0.22470  Biso   1.000  C
  C788     1.0000 0.29787  0.02914  0.28665  Biso   1.000  C
  C789     1.0000 0.22405  0.68993  0.49754  Biso   1.000  C
  C790     1.0000 0.48744  0.79237  0.31186  Biso   1.000  C
  C791     1.0000 0.80226  0.00944  0.24304  Biso   1.000  C
  C792     1.0000 0.70120  0.72292  0.99156  Biso   1.000  C
  C793     1.0000 0.47914  0.24149  0.33292  Biso   1.000  C
  C794     1.0000 0.25762  0.48665  0.18027  Biso   1.000  C
  C795     1.0000 0.17800  0.27212  0.51621  Biso   1.000  C
  C796     1.0000 0.95225  0.22722  0.20285  Biso   1.000  C
  C797     1.0000 0.79173  0.54295  0.30248  Biso   1.000  C
  C798     1.0000 0.69744  0.31327  0.00424  Biso   1.000  C
  C799     1.0000 0.01309  0.73146  0.30818  Biso   1.000  C
  C800     1.0000 0.17868  0.04399  0.22778  Biso   1.000  C
  C801     1.0000 0.30662  0.77596  0.52763  Biso   1.000  C
  C802     1.0000 0.47028  0.71596  0.22077  Biso   1.000  C
  C803     1.0000 0.71204  0.01733  0.32736  Biso   1.000  C
  C804     1.0000 0.78494  0.80610  0.03057  Biso   1.000  C
  C805     1.0000 0.50591  0.77907  0.69243  Biso   1.000  C
  C806     1.0000 0.73330  0.49085  0.83691  Biso   1.000  C
  C807     1.0000 0.77633  0.71141  0.51919  Biso   1.000  C
  C808     1.0000 0.99663  0.78810  0.82091  Biso   1.000  C
  C809     1.0000 0.22466  0.52441  0.69025  Biso   1.000  C
  C810     1.0000 0.28520  0.72167  0.98766  Biso   1.000  C
  C811     1.0000 0.00047  0.32476  0.74120  Biso   1.000  C
  C812     1.0000 0.75939  0.03106  0.83299  Biso   1.000  C
  C813     1.0000 0.67178  0.24202  0.50769  Biso   1.000  C
  C814     1.0000 0.46323  0.30617  0.80600  Biso   1.000  C
  C815     1.0000 0.28950  0.95430  0.73380  Biso   1.000  C
  C816     1.0000 0.19324  0.22578  0.99884  Biso   1.000  C
  C817     1.0000 0.97113  0.26028  0.80384  Biso   1.000  C
  C818     1.0000 0.74518  0.98872  0.23305  Biso   1.000  C
  C819     1.0000 0.22171  0.78434  0.00176  Biso   1.000  C
  C820     1.0000 0.45902  0.21028  0.77022  Biso   1.000  C
  C821     1.0000 0.24251  0.05123  0.29841  Biso   1.000  C
  C822     1.0000 0.73806  0.79711  0.51349  Biso   1.000  C
  C823     1.0000 0.50809  0.71618  0.75997  Biso   1.000  C
  C824     1.0000 0.69276  0.52435  0.26781  Biso   1.000  C
  C825     1.0000 0.26487  0.27849  0.00205  Biso   1.000  C
  C826     1.0000 0.01387  0.73100  0.74905  Biso   1.000  C
  C827     1.0000 0.19612  0.49043  0.24632  Biso   1.000  C
  C828     1.0000 0.76477  0.28323  0.54758  Biso   1.000  C
  C829     1.0000 0.01703  0.75800  0.21563  Biso   1.000  C
  C830     1.0000 0.22936  0.99244  0.79354  Biso   1.000  C
  C831     1.0000 0.78685  0.26736  0.03795  Biso   1.000  C
  C832     1.0000 0.50241  0.80682  0.25562  Biso   1.000  C
  C833     1.0000 0.72598  0.00468  0.73557  Biso   1.000  C
  C834     1.0000 0.24525  0.21537  0.51963  Biso   1.000  C
  C835     1.0000 0.47617  0.30118  0.26367  Biso   1.000  C
  C836     1.0000 0.28765  0.52778  0.76113  Biso   1.000  C
  C837     1.0000 0.69116  0.77424  0.02374  Biso   1.000  C
  C838     1.0000 0.96882  0.29356  0.26576  Biso   1.000  C
  C839     1.0000 0.76750  0.53721  0.75123  Biso   1.000  C
  C840     1.0000 0.21248  0.73885  0.53459  Biso   1.000  C
  C841     1.0000 0.19321  0.96384  0.76803  Biso   1.000  C
  C842     1.0000 0.75422  0.24244  0.00444  Biso   1.000  C
  C843     1.0000 0.05159  0.78684  0.24287  Biso   1.000  C
  C844     1.0000 0.69079  0.02332  0.76805  Biso   1.000  C
  C845     1.0000 0.26562  0.23113  0.56527  Biso   1.000  C
  C846     1.0000 0.48719  0.77227  0.28964  Biso   1.000  C
  C847     1.0000 0.26807  0.48109  0.77658  Biso   1.000  C
  C848     1.0000 0.72117  0.74589  0.99286  Biso   1.000  C
  C849     1.0000 0.52308  0.28229  0.24759  Biso   1.000  C
  C850     1.0000 0.79087  0.49077  0.76410  Biso   1.000  C
  C851     1.0000 0.24488  0.71166  0.50049  Biso   1.000  C
  C852     1.0000 0.94653  0.26195  0.30109  Biso   1.000  C
  C853     1.0000 0.78184  0.00866  0.26562  Biso   1.000  C
  C854     1.0000 0.19514  0.75488  0.03593  Biso   1.000  C
  C855     1.0000 0.99095  0.22402  0.77183  Biso   1.000  C
  C856     1.0000 0.27643  0.02963  0.26484  Biso   1.000  C
  C857     1.0000 0.70848  0.77257  0.47716  Biso   1.000  C
  C858     1.0000 0.48925  0.24094  0.74192  Biso   1.000  C
  C859     1.0000 0.72338  0.56051  0.24206  Biso   1.000  C
  C860     1.0000 0.28395  0.26107  0.04778  Biso   1.000  C
  C861     1.0000 0.47299  0.74061  0.78668  Biso   1.000  C
  C862     1.0000 0.22560  0.46117  0.27982  Biso   1.000  C
  C863     1.0000 0.74146  0.30432  0.50531  Biso   1.000  C
  C864     1.0000 0.97886  0.75702  0.71912  Biso   1.000  C
  C865     1.0000 0.72044  0.51619  0.78303  Biso   1.000  C
  C866     1.0000 0.77363  0.75227  0.47134  Biso   1.000  C
  C867     1.0000 0.46886  0.78410  0.74139  Biso   1.000  C
  C868     1.0000 0.21867  0.49044  0.74154  Biso   1.000  C
  C869     1.0000 0.23316  0.70672  0.01515  Biso   1.000  C
  C870     1.0000 0.97866  0.80209  0.76439  Biso   1.000  C
  C871     1.0000 0.76227  0.99373  0.78423  Biso   1.000  C
  C872     1.0000 0.72355  0.23259  0.54038  Biso   1.000  C
  C873     1.0000 0.97092  0.27229  0.72759  Biso   1.000  C
  C874     1.0000 0.23544  0.98161  0.72073  Biso   1.000  C
  C875     1.0000 0.24409  0.21080  0.02993  Biso   1.000  C
  C876     1.0000 0.48660  0.24984  0.81765  Biso   1.000  C
  C877     1.0000 0.26838  0.49473  0.24238  Biso   1.000  C
  C878     1.0000 0.22384  0.28061  0.55683  Biso   1.000  C
  C879     1.0000 0.50853  0.23262  0.28025  Biso   1.000  C
  C880     1.0000 0.73465  0.52733  0.31623  Biso   1.000  C
  C881     1.0000 0.74177  0.30729  0.04844  Biso   1.000  C
  C882     1.0000 0.96972  0.21836  0.26072  Biso   1.000  C
  C883     1.0000 0.23154  0.01113  0.23015  Biso   1.000  C
  C884     1.0000 0.24721  0.78538  0.50947  Biso   1.000  C
  C885     1.0000 0.03857  0.70925  0.25796  Biso   1.000  C
  C886     1.0000 0.71499  0.97309  0.28361  Biso   1.000  C
  C887     1.0000 0.73468  0.81980  0.99663  Biso   1.000  C
  C888     1.0000 0.50439  0.76430  0.20931  Biso   1.000  C
  C889     1.0000 0.73197  0.02009  0.30627  Biso   1.000  C
  C890     1.0000 0.26354  0.74234  0.99285  Biso   1.000  C
  C891     1.0000 0.99878  0.30182  0.76170  Biso   1.000  C
  C892     1.0000 0.19920  0.04814  0.25023  Biso   1.000  C
  C893     1.0000 0.75586  0.73301  0.51853  Biso   1.000  C
  C894     1.0000 0.46483  0.28472  0.78440  Biso   1.000  C
  C895     1.0000 0.76930  0.54770  0.28324  Biso   1.000  C
  C896     1.0000 0.21398  0.24658  0.00688  Biso   1.000  C
  C897     1.0000 0.50520  0.75856  0.71441  Biso   1.000  C
  C898     1.0000 0.23753  0.47811  0.20206  Biso   1.000  C
  C899     1.0000 0.69309  0.26420  0.50943  Biso   1.000  C
  C900     1.0000 0.99915  0.76849  0.79893  Biso   1.000  C
  C901     1.0000 0.26786  0.95787  0.75517  Biso   1.000  C
  C902     1.0000 0.71977  0.29228  0.00153  Biso   1.000  C
  C903     1.0000 0.01988  0.75015  0.28568  Biso   1.000  C
  C904     1.0000 0.74038  0.03369  0.80931  Biso   1.000  C
  C905     1.0000 0.19670  0.24996  0.52279  Biso   1.000  C
  C906     1.0000 0.47509  0.73579  0.24310  Biso   1.000  C
  C907     1.0000 0.24712  0.52391  0.71058  Biso   1.000  C
  C908     1.0000 0.76226  0.78688  0.03003  Biso   1.000  C
  C909     1.0000 0.47968  0.26378  0.31182  Biso   1.000  C
  C910     1.0000 0.75469  0.49338  0.81615  Biso   1.000  C
  C911     1.0000 0.28625  0.75397  0.53031  Biso   1.000  C
  C912     1.0000 0.94692  0.24897  0.22331  Biso   1.000  C
  C913     1.0000 0.76960  0.51325  0.76832  Biso   1.000  C
  C914     1.0000 0.73323  0.77481  0.49473  Biso   1.000  C
  C915     1.0000 0.48908  0.73875  0.76199  Biso   1.000  C
  C916     1.0000 0.26721  0.50662  0.75779  Biso   1.000  C
  C917     1.0000 0.21728  0.75807  0.01649  Biso   1.000  C
  C918     1.0000 0.99778  0.75566  0.74301  Biso   1.000  C
  C919     1.0000 0.71802  0.01271  0.76351  Biso   1.000  C
  C920     1.0000 0.74194  0.28307  0.52754  Biso   1.000  C
  C921     1.0000 0.98302  0.25256  0.77657  Biso   1.000  C
  C922     1.0000 0.22074  0.97371  0.77194  Biso   1.000  C
  C923     1.0000 0.26321  0.26045  0.02559  Biso   1.000  C
  C924     1.0000 0.47340  0.23569  0.76722  Biso   1.000  C
  C925     1.0000 0.22033  0.47428  0.25291  Biso   1.000  C
  C926     1.0000 0.24425  0.23280  0.54340  Biso   1.000  C
  C927     1.0000 0.49819  0.28163  0.26467  Biso   1.000  C
  C928     1.0000 0.71891  0.54185  0.26633  Biso   1.000  C
  C929     1.0000 0.76063  0.26476  0.02343  Biso   1.000  C
  C930     1.0000 0.95545  0.26719  0.27297  Biso   1.000  C
  C931     1.0000 0.24878  0.03931  0.27108  Biso   1.000  C
  C932     1.0000 0.23875  0.73419  0.52105  Biso   1.000  C
  C933     1.0000 0.03659  0.76064  0.23860  Biso   1.000  C
  C934     1.0000 0.75427  0.00040  0.26008  Biso   1.000  C
  C935     1.0000 0.71772  0.77043  0.00918  Biso   1.000  C
  C936     1.0000 0.49306  0.77953  0.26180  Biso   1.000  C
  C937     1.0000 0.74052  0.28989  0.02404  Biso   1.000  C
  C938     1.0000 0.03280  0.73921  0.26174  Biso   1.000  C
  C939     1.0000 0.24195  0.96975  0.74853  Biso   1.000  C
  C940     1.0000 0.21974  0.25454  0.54270  Biso   1.000  C
  C941     1.0000 0.49203  0.75965  0.23620  Biso   1.000  C
  C942     1.0000 0.74037  0.01384  0.78600  Biso   1.000  C
  C943     1.0000 0.73801  0.79354  0.01328  Biso   1.000  C
  C944     1.0000 0.49576  0.25943  0.28641  Biso   1.000  C
  C945     1.0000 0.24320  0.50831  0.73708  Biso   1.000  C
  C946     1.0000 0.25692  0.75936  0.52272  Biso   1.000  C
  C947     1.0000 0.95589  0.24339  0.25144  Biso   1.000  C
  C948     1.0000 0.74886  0.50760  0.79050  Biso   1.000  C
  C949     1.0000 0.23741  0.73494  0.00800  Biso   1.000  C
  C950     1.0000 0.98530  0.27566  0.75398  Biso   1.000  C
  C951     1.0000 0.73267  0.99870  0.28389  Biso   1.000  C
  C952     1.0000 0.75404  0.75245  0.49504  Biso   1.000  C
  C953     1.0000 0.47479  0.25763  0.79158  Biso   1.000  C
  C954     1.0000 0.22536  0.03197  0.25088  Biso   1.000  C
  C955     1.0000 0.24002  0.23921  0.02161  Biso   1.000  C
  C956     1.0000 0.48871  0.76154  0.73961  Biso   1.000  C
  C957     1.0000 0.74083  0.53913  0.28970  Biso   1.000  C
  C958     1.0000 0.71985  0.25904  0.52475  Biso   1.000  C
  C959     1.0000 0.99172  0.77497  0.76933  Biso   1.000  C
  C960     1.0000 0.24354  0.47999  0.23187  Biso   1.000  C
  Cu1      1.0000 0.99768  0.51277  0.66154  Biso   1.000  Cu
  Cu2      1.0000 0.63990  0.01110  0.51919  Biso   1.000  Cu
  Cu3      1.0000 0.48282  0.66113  0.00301  Biso   1.000  Cu
  Cu4      1.0000 0.50220  0.49434  0.85877  Biso   1.000  Cu
  Cu5      1.0000 0.14506  0.00320  0.00923  Biso   1.000  Cu
  Cu6      1.0000 0.99393  0.66605  0.50742  Biso   1.000  Cu
  Cu7      1.0000 0.48116  0.00177  0.66719  Biso   1.000  Cu
  Cu8      1.0000 0.83775  0.51509  0.52428  Biso   1.000  Cu
  Cu9      1.0000 0.99726  0.16290  0.01515  Biso   1.000  Cu
  Cu10     1.0000 0.98396  0.01386  0.86313  Biso   1.000  Cu
  Cu11     1.0000 0.33634  0.49810  0.99878  Biso   1.000  Cu
  Cu12     1.0000 0.48473  0.16014  0.52178  Biso   1.000  Cu
  Cu13     1.0000 0.98433  0.50745  0.35844  Biso   1.000  Cu
  Cu14     1.0000 0.33173  0.00036  0.51207  Biso   1.000  Cu
  Cu15     1.0000 0.50032  0.36169  0.02435  Biso   1.000  Cu
  Cu16     1.0000 0.48596  0.51907  0.16345  Biso   1.000  Cu
  Cu17     1.0000 0.83697  0.02996  0.02262  Biso   1.000  Cu
  Cu18     1.0000 0.98534  0.35568  0.51384  Biso   1.000  Cu
  Cu19     1.0000 0.49025  0.01650  0.36387  Biso   1.000  Cu
  Cu20     1.0000 0.14841  0.49689  0.49838  Biso   1.000  Cu
  Cu21     1.0000 0.98563  0.85875  0.00745  Biso   1.000  Cu
  Cu22     1.0000 0.98842  0.00504  0.16449  Biso   1.000  Cu
  Cu23     1.0000 0.64579  0.52474  0.01960  Biso   1.000  Cu
  Cu24     1.0000 0.49309  0.85091  0.50210  Biso   1.000  Cu
  Cu25     1.0000 0.20224  0.99872  0.00734  Biso   1.000  Cu
  Cu26     1.0000 0.00309  0.21723  0.01452  Biso   1.000  Cu
  Cu27     1.0000 0.99349  0.00373  0.21842  Biso   1.000  Cu
  Cu28     1.0000 0.69419  0.01232  0.52288  Biso   1.000  Cu
  Cu29     1.0000 0.48199  0.21480  0.52462  Biso   1.000  Cu
  Cu30     1.0000 0.48956  0.01871  0.30777  Biso   1.000  Cu
  Cu31     1.0000 0.28266  0.49532  0.99114  Biso   1.000  Cu
  Cu32     1.0000 0.47781  0.71505  0.99872  Biso   1.000  Cu
  Cu33     1.0000 0.48141  0.52413  0.21610  Biso   1.000  Cu
  Cu34     1.0000 0.78369  0.51886  0.52563  Biso   1.000  Cu
  Cu35     1.0000 0.00127  0.72211  0.50703  Biso   1.000  Cu
  Cu36     1.0000 0.97937  0.50658  0.30270  Biso   1.000  Cu
  Cu37     1.0000 0.78315  0.02990  0.02376  Biso   1.000  Cu
  Cu38     1.0000 0.97984  0.80366  0.01090  Biso   1.000  Cu
  Cu39     1.0000 0.98226  0.01465  0.80704  Biso   1.000  Cu
  Cu40     1.0000 0.27721  0.99977  0.51149  Biso   1.000  Cu
  Cu41     1.0000 0.49582  0.79690  0.50267  Biso   1.000  Cu
  Cu42     1.0000 0.48101  0.99706  0.72172  Biso   1.000  Cu
  Cu43     1.0000 0.69873  0.52962  0.02380  Biso   1.000  Cu
  Cu44     1.0000 0.50401  0.30549  0.02806  Biso   1.000  Cu
  Cu45     1.0000 0.50396  0.49434  0.80232  Biso   1.000  Cu
  Cu46     1.0000 0.20154  0.49501  0.49677  Biso   1.000  Cu
  Cu47     1.0000 0.98139  0.30230  0.51588  Biso   1.000  Cu
  Cu48     1.0000 0.00345  0.51375  0.71504  Biso   1.000  Cu
  H1       1.0000 0.22405  0.78923  0.50497  Biso   1.000  H
  H2       1.0000 0.49317  0.22649  0.81975  Biso   1.000  H
  H3       1.0000 0.71248  0.52454  0.32358  Biso   1.000  H
  H4       1.0000 0.71462  0.82996  0.98596  Biso   1.000  H
  H5       1.0000 0.95947  0.25199  0.72479  Biso   1.000  H
  H6       1.0000 0.27314  0.49793  0.26536  Biso   1.000  H
  H7       1.0000 0.24262  0.28407  0.57022  Biso   1.000  H
  H8       1.0000 0.97069  0.80655  0.74166  Biso   1.000  H
  H9       1.0000 0.71651  0.95722  0.26654  Biso   1.000  H
  H10      1.0000 0.75684  0.30451  0.06717  Biso   1.000  H
  H11      1.0000 0.45324  0.78695  0.75821  Biso   1.000  H
  H12      1.0000 0.25046  0.99812  0.23060  Biso   1.000  H
  H13      1.0000 0.74557  0.22731  0.55016  Biso   1.000  H
  H14      1.0000 0.51667  0.78426  0.20518  Biso   1.000  H
  H15      1.0000 0.21321  0.47837  0.76205  Biso   1.000  H
  H16      1.0000 0.26208  0.20541  0.04433  Biso   1.000  H
  H17      1.0000 0.04894  0.70263  0.23817  Biso   1.000  H
  H18      1.0000 0.71736  0.52327  0.76121  Biso   1.000  H
  H19      1.0000 0.77348  0.76848  0.45326  Biso   1.000  H
  H20      1.0000 0.97404  0.21454  0.28312  Biso   1.000  H
  H21      1.0000 0.21377  0.99140  0.71678  Biso   1.000  H
  H22      1.0000 0.21385  0.69970  0.02743  Biso   1.000  H
  H23      1.0000 0.52136  0.22986  0.26140  Biso   1.000  H
  H24      1.0000 0.76047  0.97912  0.76589  Biso   1.000  H
  H25      1.0000 0.25155  0.00172  0.79431  Biso   1.000  H
  H26      1.0000 0.79454  0.28371  0.05435  Biso   1.000  H
  H27      1.0000 0.00531  0.73799  0.21105  Biso   1.000  H
  H28      1.0000 0.74752  0.99840  0.73049  Biso   1.000  H
  H29      1.0000 0.22968  0.21760  0.50040  Biso   1.000  H
  H30      1.0000 0.51030  0.81261  0.23375  Biso   1.000  H
  H31      1.0000 0.28720  0.54673  0.74674  Biso   1.000  H
  H32      1.0000 0.68812  0.79496  0.03590  Biso   1.000  H
  H33      1.0000 0.45770  0.30442  0.27962  Biso   1.000  H
  H34      1.0000 0.75197  0.55344  0.75431  Biso   1.000  H
  H35      1.0000 0.20719  0.75715  0.54803  Biso   1.000  H
  H36      1.0000 0.97594  0.29475  0.24224  Biso   1.000  H
  H37      1.0000 0.72367  0.97873  0.22851  Biso   1.000  H
  H38      1.0000 0.23858  0.78665  0.98476  Biso   1.000  H
  H39      1.0000 0.96401  0.28105  0.80560  Biso   1.000  H
  H40      1.0000 0.21976  0.05771  0.30116  Biso   1.000  H
  H41      1.0000 0.75824  0.79562  0.52603  Biso   1.000  H
  H42      1.0000 0.45064  0.20442  0.79165  Biso   1.000  H
  H43      1.0000 0.68311  0.51408  0.28640  Biso   1.000  H
  H44      1.0000 0.24970  0.28016  0.98417  Biso   1.000  H
  H45      1.0000 0.52464  0.71606  0.74486  Biso   1.000  H
  H46      1.0000 0.19069  0.50089  0.22609  Biso   1.000  H
  H47      1.0000 0.76669  0.26593  0.56364  Biso   1.000  H
  H48      1.0000 0.02816  0.72980  0.76800  Biso   1.000  H
  H49      1.0000 0.24387  0.44523  0.28565  Biso   1.000  H
  H50      1.0000 0.26478  0.24491  0.58369  Biso   1.000  H
  H51      1.0000 0.54183  0.26720  0.25163  Biso   1.000  H
  H52      1.0000 0.74152  0.57657  0.23767  Biso   1.000  H
  H53      1.0000 0.73394  0.23942  0.99378  Biso   1.000  H
  H54      1.0000 0.93417  0.24268  0.30682  Biso   1.000  H
  H55      1.0000 0.28282  0.01712  0.24569  Biso   1.000  H
  H56      1.0000 0.26606  0.71165  0.48971  Biso   1.000  H
  H57      1.0000 0.06642  0.78881  0.26298  Biso   1.000  H
  H58      1.0000 0.78721  0.02050  0.28459  Biso   1.000  H
  H59      1.0000 0.74120  0.74527  0.97797  Biso   1.000  H
  H60      1.0000 0.47813  0.75104  0.29560  Biso   1.000  H
  H61      1.0000 0.79189  0.47178  0.77891  Biso   1.000  H
  H62      1.0000 0.70862  0.75292  0.46272  Biso   1.000  H
  H63      1.0000 0.45975  0.75923  0.79051  Biso   1.000  H
  H64      1.0000 0.25520  0.46058  0.77377  Biso   1.000  H
  H65      1.0000 0.19083  0.73378  0.04569  Biso   1.000  H
  H66      1.0000 0.96332  0.77538  0.71594  Biso   1.000  H
  H67      1.0000 0.68539  0.02788  0.79119  Biso   1.000  H
  H68      1.0000 0.72465  0.30310  0.48758  Biso   1.000  H
  H69      1.0000 0.99833  0.21864  0.74930  Biso   1.000  H
  H70      1.0000 0.18716  0.95155  0.74870  Biso   1.000  H
  H71      1.0000 0.28391  0.24335  0.06475  Biso   1.000  H
  H72      1.0000 0.50175  0.26091  0.74102  Biso   1.000  H
  H73      1.0000 0.77725  0.48386  0.81959  Biso   1.000  H
  H74      1.0000 0.74042  0.73637  0.53448  Biso   1.000  H
  H75      1.0000 0.52167  0.74181  0.71333  Biso   1.000  H
  H76      1.0000 0.26697  0.53554  0.70714  Biso   1.000  H
  H77      1.0000 0.26607  0.76547  0.98766  Biso   1.000  H
  H78      1.0000 0.00838  0.74664  0.80256  Biso   1.000  H
  H79      1.0000 0.72488  0.05274  0.81127  Biso   1.000  H
  H80      1.0000 0.68990  0.28614  0.49911  Biso   1.000  H
  H81      1.0000 0.01281  0.30100  0.78023  Biso   1.000  H
  H82      1.0000 0.27592  0.95210  0.77656  Biso   1.000  H
  H83      1.0000 0.21098  0.27067  0.00143  Biso   1.000  H
  H84      1.0000 0.45791  0.29035  0.76264  Biso   1.000  H
  H85      1.0000 0.21755  0.46880  0.19399  Biso   1.000  H
  H86      1.0000 0.19379  0.22809  0.50941  Biso   1.000  H
  H87      1.0000 0.46929  0.28454  0.31748  Biso   1.000  H
  H88      1.0000 0.77410  0.56570  0.26680  Biso   1.000  H
  H89      1.0000 0.72016  0.27837  0.98193  Biso   1.000  H
  H90      1.0000 0.93539  0.26836  0.21366  Biso   1.000  H
  H91      1.0000 0.19407  0.06471  0.26551  Biso   1.000  H
  H92      1.0000 0.29378  0.73280  0.54045  Biso   1.000  H
  H93      1.0000 0.01355  0.77305  0.28605  Biso   1.000  H
  H94      1.0000 0.74838  0.03768  0.30584  Biso   1.000  H
  H95      1.0000 0.76375  0.76429  0.04005  Biso   1.000  H
  H96      1.0000 0.46513  0.72933  0.26372  Biso   1.000  H
  H97      1.0000 0.85446  0.01650  0.93132  Biso   1.000  H
  H98      1.0000 0.89450  0.88711  0.01803  Biso   1.000  H
  H99      1.0000 0.96973  0.91974  0.87961  Biso   1.000  H
  H100     1.0000 0.35177  0.98215  0.60555  Biso   1.000  H
  H101     1.0000 0.40192  0.86818  0.49491  Biso   1.000  H
  H102     1.0000 0.48406  0.91137  0.63963  Biso   1.000  H
  H103     1.0000 0.63023  0.51098  0.92938  Biso   1.000  H
  H104     1.0000 0.59045  0.38961  0.01619  Biso   1.000  H
  H105     1.0000 0.49490  0.41019  0.88529  Biso   1.000  H
  H106     1.0000 0.13316  0.51220  0.59127  Biso   1.000  H
  H107     1.0000 0.07886  0.36778  0.50877  Biso   1.000  H
  H108     1.0000 0.00253  0.42143  0.64433  Biso   1.000  H
  H109     1.0000 0.12742  0.01264  0.09622  Biso   1.000  H
  H110     1.0000 0.08374  0.13890  0.00096  Biso   1.000  H
  H111     1.0000 0.98909  0.09855  0.14393  Biso   1.000  H
  H112     1.0000 0.62328  0.99639  0.43043  Biso   1.000  H
  H113     1.0000 0.57712  0.14544  0.51550  Biso   1.000  H
  H114     1.0000 0.47791  0.10846  0.38895  Biso   1.000  H
  H115     1.0000 0.35065  0.51069  0.08831  Biso   1.000  H
  H116     1.0000 0.38790  0.63448  0.98680  Biso   1.000  H
  H117     1.0000 0.48807  0.61033  0.13718  Biso   1.000  H
  H118     1.0000 0.85788  0.51727  0.42949  Biso   1.000  H
  H119     1.0000 0.90436  0.65107  0.50737  Biso   1.000  H
  H120     1.0000 0.99555  0.59886  0.37392  Biso   1.000  H
  H121     1.0000 0.07673  0.00342  0.88000  Biso   1.000  H
  H122     1.0000 0.85694  0.11524  0.00366  Biso   1.000  H
  H123     1.0000 0.99336  0.87833  0.10624  Biso   1.000  H
  H124     1.0000 0.57410  0.01935  0.65066  Biso   1.000  H
  H125     1.0000 0.35290  0.08815  0.51809  Biso   1.000  H
  H126     1.0000 0.51023  0.87663  0.41339  Biso   1.000  H
  H127     1.0000 0.41237  0.48974  0.86891  Biso   1.000  H
  H128     1.0000 0.61894  0.61888  0.01510  Biso   1.000  H
  H129     1.0000 0.50086  0.38626  0.11443  Biso   1.000  H
  H130     1.0000 0.90432  0.50929  0.64995  Biso   1.000  H
  H131     1.0000 0.13237  0.58752  0.49286  Biso   1.000  H
  H132     1.0000 0.96776  0.37112  0.42382  Biso   1.000  H
  H133     1.0000 0.89926  0.01294  0.15418  Biso   1.000  H
  H134     1.0000 0.12352  0.91696  0.02635  Biso   1.000  H
  H135     1.0000 0.00059  0.14709  0.92710  Biso   1.000  H
  H136     1.0000 0.39733  0.01796  0.38434  Biso   1.000  H
  H137     1.0000 0.62620  0.91771  0.51870  Biso   1.000  H
  H138     1.0000 0.47777  0.13295  0.61447  Biso   1.000  H
  H139     1.0000 0.58311  0.52042  0.14790  Biso   1.000  H
  H140     1.0000 0.36206  0.41208  0.02017  Biso   1.000  H
  H141     1.0000 0.49232  0.63435  0.91452  Biso   1.000  H
  H142     1.0000 0.08174  0.49570  0.36889  Biso   1.000  H
  H143     1.0000 0.85447  0.42916  0.52770  Biso   1.000  H
  H144     1.0000 0.99958  0.64361  0.60066  Biso   1.000  H
  H145     1.0000 0.59452  0.50020  0.88173  Biso   1.000  H
  H146     1.0000 0.86159  0.60578  0.51457  Biso   1.000  H
  H147     1.0000 0.48632  0.86951  0.59229  Biso   1.000  H
  H148     1.0000 0.09637  0.52388  0.63311  Biso   1.000  H
  H149     1.0000 0.35259  0.59403  0.99107  Biso   1.000  H
  H150     1.0000 0.96862  0.87967  0.92018  Biso   1.000  H
  H151     1.0000 0.89265  0.01608  0.88589  Biso   1.000  H
  H152     1.0000 0.61913  0.10821  0.51617  Biso   1.000  H
  H153     1.0000 0.99797  0.37730  0.60700  Biso   1.000  H
  H154     1.0000 0.38973  0.99119  0.64733  Biso   1.000  H
  H155     1.0000 0.13019  0.09101  0.99322  Biso   1.000  H
  H156     1.0000 0.48562  0.37098  0.93308  Biso   1.000  H
  H157     1.0000 0.39234  0.51048  0.13327  Biso   1.000  H
  H158     1.0000 0.12877  0.40624  0.49996  Biso   1.000  H
  H159     1.0000 0.48507  0.14755  0.42812  Biso   1.000  H
  H160     1.0000 0.89652  0.51090  0.38640  Biso   1.000  H
  H161     1.0000 0.63171  0.43690  0.02602  Biso   1.000  H
  H162     1.0000 0.98319  0.14215  0.10118  Biso   1.000  H
  H163     1.0000 0.07979  0.01902  0.13828  Biso   1.000  H
  H164     1.0000 0.35788  0.91031  0.50463  Biso   1.000  H
  H165     1.0000 0.00147  0.64411  0.41526  Biso   1.000  H
  H166     1.0000 0.58202  0.00326  0.38227  Biso   1.000  H
  H167     1.0000 0.85704  0.93049  0.02640  Biso   1.000  H
  H168     1.0000 0.48550  0.64641  0.09460  Biso   1.000  H
  H169     1.0000 0.99065  0.10502  0.88490  Biso   1.000  H
  H170     1.0000 0.86060  0.02024  0.11404  Biso   1.000  H
  H171     1.0000 0.07540  0.87508  0.01533  Biso   1.000  H
  H172     1.0000 0.47192  0.09458  0.65012  Biso   1.000  H
  H173     1.0000 0.35234  0.01801  0.42574  Biso   1.000  H
  H174     1.0000 0.58348  0.87561  0.51403  Biso   1.000  H
  H175     1.0000 0.48940  0.59119  0.87697  Biso   1.000  H
  H176     1.0000 0.62111  0.52444  0.11376  Biso   1.000  H
  H177     1.0000 0.40701  0.37363  0.02667  Biso   1.000  H
  H178     1.0000 0.00001  0.60191  0.64174  Biso   1.000  H
  H179     1.0000 0.12564  0.49289  0.40715  Biso   1.000  H
  H180     1.0000 0.89439  0.38429  0.52454  Biso   1.000  H
  H181     1.0000 0.99294  0.91679  0.15255  Biso   1.000  H
  H182     1.0000 0.12305  0.99001  0.92071  Biso   1.000  H
  H183     1.0000 0.90397  0.15050  0.00917  Biso   1.000  H
  H184     1.0000 0.51031  0.92336  0.37346  Biso   1.000  H
  H185     1.0000 0.61774  0.01905  0.60853  Biso   1.000  H
  H186     1.0000 0.39563  0.13395  0.51599  Biso   1.000  H
  H187     1.0000 0.49896  0.42617  0.15559  Biso   1.000  H
  H188     1.0000 0.36606  0.47957  0.91111  Biso   1.000  H
  H189     1.0000 0.57256  0.65704  0.01370  Biso   1.000  H
  H190     1.0000 0.96385  0.41679  0.37994  Biso   1.000  H
  H191     1.0000 0.85907  0.51662  0.61302  Biso   1.000  H
  H192     1.0000 0.08576  0.63374  0.50238  Biso   1.000  H
  H193     1.0000 0.26216  0.85576  0.51836  Biso   1.000  H
  H194     1.0000 0.47212  0.27049  0.88766  Biso   1.000  H
  H195     1.0000 0.83457  0.51197  0.29286  Biso   1.000  H
  H196     1.0000 0.75704  0.88712  0.02851  Biso   1.000  H
  H197     1.0000 0.99040  0.28311  0.65848  Biso   1.000  H
  H198     1.0000 0.33739  0.50196  0.22714  Biso   1.000  H
  H199     1.0000 0.21904  0.34927  0.52084  Biso   1.000  H
  H200     1.0000 0.97334  0.77965  0.86732  Biso   1.000  H
  H201     1.0000 0.64028  0.00210  0.29062  Biso   1.000  H
  H202     1.0000 0.73087  0.38484  0.04286  Biso   1.000  H
  H203     1.0000 0.48464  0.77055  0.64406  Biso   1.000  H
  H204     1.0000 0.13264  0.01349  0.23479  Biso   1.000  H
  H205     1.0000 0.71477  0.16068  0.51241  Biso   1.000  H
  H206     1.0000 0.47747  0.74874  0.13878  Biso   1.000  H
  H207     1.0000 0.15136  0.51867  0.72596  Biso   1.000  H
  H208     1.0000 0.22940  0.14217  0.99291  Biso   1.000  H
  H209     1.0000 0.02449  0.73649  0.36572  Biso   1.000  H
  H210     1.0000 0.65046  0.48640  0.79034  Biso   1.000  H
  H211     1.0000 0.76709  0.66241  0.50690  Biso   1.000  H
  H212     1.0000 0.98711  0.23436  0.16199  Biso   1.000  H
  H213     1.0000 0.33378  0.97200  0.74233  Biso   1.000  H
  H214     1.0000 0.25170  0.64106  0.98578  Biso   1.000  H
  H215     1.0000 0.50476  0.24510  0.37939  Biso   1.000  H
  H216     1.0000 0.83472  0.01226  0.79147  Biso   1.000  H
  H217     1.0000 0.21613  0.49305  0.34649  Biso   1.000  H
  H218     1.0000 0.33964  0.22874  0.53977  Biso   1.000  H
  H219     1.0000 0.49328  0.37949  0.25399  Biso   1.000  H
  H220     1.0000 0.71712  0.54132  0.16885  Biso   1.000  H
  H221     1.0000 0.86101  0.25363  0.01182  Biso   1.000  H
  H222     1.0000 0.95615  0.36530  0.28273  Biso   1.000  H
  H223     1.0000 0.25886  0.03306  0.36744  Biso   1.000  H
  H224     1.0000 0.14263  0.72446  0.51502  Biso   1.000  H
  H225     1.0000 0.02699  0.85746  0.24019  Biso   1.000  H
  H226     1.0000 0.76350  0.03012  0.16712  Biso   1.000  H
  H227     1.0000 0.61814  0.75778  0.00667  Biso   1.000  H
  H228     1.0000 0.47602  0.87434  0.28013  Biso   1.000  H
  H229     1.0000 0.76908  0.52544  0.67534  Biso   1.000  H
  H230     1.0000 0.63724  0.77975  0.49549  Biso   1.000  H
  H231     1.0000 0.49420  0.63400  0.77519  Biso   1.000  H
  H232     1.0000 0.27046  0.49013  0.85196  Biso   1.000  H
  H233     1.0000 0.12776  0.77613  0.02067  Biso   1.000  H
  H234     1.0000 0.99817  0.65474  0.73832  Biso   1.000  H
  H235     1.0000 0.71354  0.03262  0.66463  Biso   1.000  H
  H236     1.0000 0.83756  0.28825  0.52516  Biso   1.000  H
  H237     1.0000 0.96252  0.15717  0.78844  Biso   1.000  H
  H238     1.0000 0.21537  0.98111  0.86163  Biso   1.000  H
  H239     1.0000 0.36072  0.27244  0.03688  Biso   1.000  H
  H240     1.0000 0.47323  0.13815  0.75069  Biso   1.000  H
  H241     1.0000 0.72927  0.51718  0.88243  Biso   1.000  H
  H242     1.0000 0.85420  0.74288  0.47992  Biso   1.000  H
  H243     1.0000 0.48693  0.85102  0.73217  Biso   1.000  H
  H244     1.0000 0.23214  0.50189  0.63730  Biso   1.000  H
  H245     1.0000 0.32813  0.72695  0.01372  Biso   1.000  H
  H246     1.0000 0.99714  0.87116  0.78578  Biso   1.000  H
  H247     1.0000 0.75201  0.01143  0.88269  Biso   1.000  H
  H248     1.0000 0.62276  0.24569  0.52453  Biso   1.000  H
  H249     1.0000 0.98512  0.37427  0.74415  Biso   1.000  H
  H250     1.0000 0.25494  0.96592  0.65144  Biso   1.000  H
  H251     1.0000 0.14513  0.23015  0.01754  Biso   1.000  H
  H252     1.0000 0.49462  0.34738  0.79546  Biso   1.000  H
  H253     1.0000 0.25015  0.51045  0.13552  Biso   1.000  H
  H254     1.0000 0.12749  0.26863  0.52995  Biso   1.000  H
  H255     1.0000 0.48447  0.16214  0.29186  Biso   1.000  H
  H256     1.0000 0.75860  0.53915  0.38556  Biso   1.000  H
  H257     1.0000 0.64982  0.29576  0.02677  Biso   1.000  H
  H258     1.0000 0.96504  0.14680  0.24296  Biso   1.000  H
  H259     1.0000 0.22242  0.01937  0.15684  Biso   1.000  H
  H260     1.0000 0.35131  0.76953  0.50255  Biso   1.000  H
  H261     1.0000 0.01359  0.64807  0.27807  Biso   1.000  H
  H262     1.0000 0.72098  0.98838  0.37752  Biso   1.000  H
  H263     1.0000 0.83440  0.79532  0.00661  Biso   1.000  H
  H264     1.0000 0.48981  0.66885  0.23041  Biso   1.000  H
  H265     1.0000 0.00013  0.24397  0.87262  Biso   1.000  H
  H266     1.0000 0.84623  0.98252  0.24528  Biso   1.000  H
  H267     1.0000 0.21471  0.85308  0.03633  Biso   1.000  H
  H268     1.0000 0.47302  0.23225  0.66785  Biso   1.000  H
  H269     1.0000 0.34801  0.04333  0.28782  Biso   1.000  H
  H270     1.0000 0.72189  0.86634  0.51028  Biso   1.000  H
  H271     1.0000 0.48722  0.72765  0.85239  Biso   1.000  H
  H272     1.0000 0.62459  0.54727  0.24692  Biso   1.000  H
  H273     1.0000 0.26998  0.35182  0.02118  Biso   1.000  H
  H274     1.0000 0.99757  0.74326  0.65233  Biso   1.000  H
  H275     1.0000 0.11872  0.48293  0.26662  Biso   1.000  H
  H276     1.0000 0.75150  0.37987  0.52801  Biso   1.000  H
  H277     1.0000 0.02595  0.78062  0.14637  Biso   1.000  H
  H278     1.0000 0.12566  0.00337  0.78225  Biso   1.000  H
  H279     1.0000 0.76473  0.17775  0.01971  Biso   1.000  H
  H280     1.0000 0.51246  0.78093  0.35922  Biso   1.000  H
  H281     1.0000 0.62645  0.99798  0.74400  Biso   1.000  H
  H282     1.0000 0.25651  0.14240  0.53651  Biso   1.000  H
  H283     1.0000 0.51554  0.29059  0.17408  Biso   1.000  H
  H284     1.0000 0.36163  0.49299  0.76960  Biso   1.000  H
  H285     1.0000 0.71220  0.67365  0.01136  Biso   1.000  H
  H286     1.0000 0.97852  0.27696  0.36852  Biso   1.000  H
  H287     1.0000 0.86100  0.51444  0.75192  Biso   1.000  H
  H288     1.0000 0.22942  0.63800  0.50810  Biso   1.000  H
  H289     1.0000 0.09199  0.22998  0.02307  Biso   1.000  H
  H290     1.0000 0.97512  0.09470  0.23969  Biso   1.000  H
  H291     1.0000 0.22336  0.01692  0.10151  Biso   1.000  H
  H292     1.0000 0.57204  0.24338  0.52413  Biso   1.000  H
  H293     1.0000 0.48320  0.10830  0.29258  Biso   1.000  H
  H294     1.0000 0.71859  0.99062  0.43475  Biso   1.000  H
  H295     1.0000 0.38487  0.72980  0.01252  Biso   1.000  H
  H296     1.0000 0.49013  0.61367  0.23267  Biso   1.000  H
  H297     1.0000 0.25290  0.51611  0.08267  Biso   1.000  H
  H298     1.0000 0.90606  0.74376  0.48310  Biso   1.000  H
  H299     1.0000 0.00338  0.59572  0.27987  Biso   1.000  H
  H300     1.0000 0.76437  0.54139  0.43850  Biso   1.000  H
  H301     1.0000 0.88929  0.79183  0.00524  Biso   1.000  H
  H302     1.0000 0.99791  0.92664  0.78996  Biso   1.000  H
  H303     1.0000 0.75697  0.02629  0.93483  Biso   1.000  H
  H304     1.0000 0.40629  0.77168  0.50494  Biso   1.000  H
  H305     1.0000 0.48527  0.90736  0.73527  Biso   1.000  H
  H306     1.0000 0.25540  0.97807  0.59779  Biso   1.000  H
  H307     1.0000 0.59818  0.29247  0.02183  Biso   1.000  H
  H308     1.0000 0.50547  0.40030  0.78985  Biso   1.000  H
  H309     1.0000 0.72405  0.52805  0.93840  Biso   1.000  H
  H310     1.0000 0.07367  0.27424  0.52334  Biso   1.000  H
  H311     1.0000 0.99489  0.42854  0.74252  Biso   1.000  H
  H312     1.0000 0.22601  0.49672  0.58438  Biso   1.000  H
  H313     1.0000 0.21829  0.98075  0.91700  Biso   1.000  H
  H314     1.0000 0.91588  0.24726  0.01378  Biso   1.000  H
  H315     1.0000 0.01429  0.91249  0.24354  Biso   1.000  H
  H316     1.0000 0.71295  0.03239  0.61254  Biso   1.000  H
  H317     1.0000 0.39170  0.23130  0.53035  Biso   1.000  H
  H318     1.0000 0.47269  0.92962  0.28489  Biso   1.000  H
  H319     1.0000 0.26960  0.48196  0.90724  Biso   1.000  H
  H320     1.0000 0.56513  0.75188  0.00848  Biso   1.000  H
  H321     1.0000 0.47756  0.43177  0.24675  Biso   1.000  H
  H322     1.0000 0.76160  0.51769  0.62031  Biso   1.000  H
  H323     1.0000 0.09189  0.72820  0.51110  Biso   1.000  H
  H324     1.0000 0.95248  0.41782  0.28557  Biso   1.000  H
  H325     1.0000 0.76868  0.04505  0.11244  Biso   1.000  H
  H326     1.0000 0.07349  0.77941  0.02072  Biso   1.000  H
  H327     1.0000 0.96724  0.10448  0.78851  Biso   1.000  H
  H328     1.0000 0.25731  0.02407  0.42067  Biso   1.000  H
  H329     1.0000 0.58401  0.78014  0.49983  Biso   1.000  H
  H330     1.0000 0.46930  0.08386  0.74612  Biso   1.000  H
  H331     1.0000 0.71804  0.53287  0.11360  Biso   1.000  H
  H332     1.0000 0.41626  0.27675  0.04153  Biso   1.000  H
  H333     1.0000 0.49989  0.57855  0.78168  Biso   1.000  H
  H334     1.0000 0.22145  0.49088  0.40251  Biso   1.000  H
  H335     1.0000 0.89388  0.29078  0.51967  Biso   1.000  H
  H336     1.0000 0.00030  0.60047  0.73847  Biso   1.000  H
  H337     1.0000 0.01048  0.23969  0.92495  Biso   1.000  H
  H338     1.0000 0.89733  0.97064  0.24272  Biso   1.000  H
  H339     1.0000 0.21759  0.90978  0.02933  Biso   1.000  H
  H340     1.0000 0.47634  0.23059  0.61410  Biso   1.000  H
  H341     1.0000 0.40200  0.04226  0.29058  Biso   1.000  H
  H342     1.0000 0.72228  0.91870  0.52725  Biso   1.000  H
  H343     1.0000 0.48103  0.72947  0.90814  Biso   1.000  H
  H344     1.0000 0.57126  0.53138  0.24601  Biso   1.000  H
  H345     1.0000 0.26632  0.40557  0.01948  Biso   1.000  H
  H346     1.0000 0.99505  0.74187  0.59902  Biso   1.000  H
  H347     1.0000 0.06526  0.48504  0.27581  Biso   1.000  H
  H348     1.0000 0.75858  0.42978  0.52033  Biso   1.000  H
  H349     1.0000 0.01544  0.78687  0.09438  Biso   1.000  H
  H350     1.0000 0.07184  0.01376  0.78718  Biso   1.000  H
  H351     1.0000 0.76357  0.11988  0.02003  Biso   1.000  H
  H352     1.0000 0.51809  0.78262  0.41150  Biso   1.000  H
  H353     1.0000 0.57576  0.99604  0.74732  Biso   1.000  H
  H354     1.0000 0.25397  0.09148  0.52844  Biso   1.000  H
  H355     1.0000 0.51799  0.29246  0.11834  Biso   1.000  H
  H356     1.0000 0.41221  0.49821  0.77425  Biso   1.000  H
  H357     1.0000 0.71484  0.61991  0.00933  Biso   1.000  H
  H358     1.0000 0.98277  0.27731  0.42184  Biso   1.000  H
  H359     1.0000 0.91732  0.50663  0.74553  Biso   1.000  H
  H360     1.0000 0.22839  0.58383  0.50154  Biso   1.000  H
  H361     1.0000 0.00918  0.73837  0.41574  Biso   1.000  H
  H362     1.0000 0.38646  0.98214  0.74222  Biso   1.000  H
  H363     1.0000 0.72629  0.44182  0.03429  Biso   1.000  H
  H364     1.0000 0.47374  0.73875  0.08312  Biso   1.000  H
  H365     1.0000 0.88838  0.01557  0.78945  Biso   1.000  H
  H366     1.0000 0.22343  0.40285  0.51332  Biso   1.000  H
  H367     1.0000 0.50326  0.24475  0.43434  Biso   1.000  H
  H368     1.0000 0.09484  0.52025  0.72998  Biso   1.000  H
  H369     1.0000 0.76509  0.94348  0.03902  Biso   1.000  H
  H370     1.0000 0.99989  0.23641  0.10846  Biso   1.000  H
  H371     1.0000 0.59693  0.48886  0.79013  Biso   1.000  H
  H372     1.0000 0.26248  0.90727  0.51453  Biso   1.000  H
  H373     1.0000 0.98463  0.28431  0.60378  Biso   1.000  H
  H374     1.0000 0.58476  0.00773  0.28715  Biso   1.000  H
  H375     1.0000 0.25512  0.58612  0.98282  Biso   1.000  H
  H376     1.0000 0.47415  0.27339  0.94112  Biso   1.000  H
  H377     1.0000 0.08070  0.01232  0.23318  Biso   1.000  H
  H378     1.0000 0.76754  0.60701  0.52141  Biso   1.000  H
  H379     1.0000 0.48292  0.77506  0.58947  Biso   1.000  H
  H380     1.0000 0.88851  0.50076  0.29146  Biso   1.000  H
  H381     1.0000 0.22541  0.09016  0.98727  Biso   1.000  H
  H382     1.0000 0.97834  0.78110  0.92011  Biso   1.000  H
  H383     1.0000 0.39101  0.51682  0.22664  Biso   1.000  H
  H384     1.0000 0.71533  0.10695  0.50953  Biso   1.000  H
  H385     1.0000 0.15325  0.50225  0.26019  Biso   1.000  H
  H386     1.0000 0.26933  0.17926  0.49973  Biso   1.000  H
  H387     1.0000 0.46149  0.34146  0.24296  Biso   1.000  H
  H388     1.0000 0.65613  0.50985  0.24499  Biso   1.000  H
  H389     1.0000 0.82844  0.24403  0.05005  Biso   1.000  H
  H390     1.0000 0.98658  0.33485  0.28223  Biso   1.000  H
  H391     1.0000 0.25712  0.06064  0.34181  Biso   1.000  H
  H392     1.0000 0.17215  0.71844  0.54480  Biso   1.000  H
  H393     1.0000 0.99404  0.77899  0.18103  Biso   1.000  H
  H394     1.0000 0.75830  0.98521  0.18855  Biso   1.000  H
  H395     1.0000 0.65050  0.75675  0.03677  Biso   1.000  H
  H396     1.0000 0.51737  0.84967  0.27181  Biso   1.000  H
  H397     1.0000 0.79003  0.56059  0.71626  Biso   1.000  H
  H398     1.0000 0.71768  0.83497  0.53288  Biso   1.000  H
  H399     1.0000 0.52283  0.67371  0.77626  Biso   1.000  H
  H400     1.0000 0.32184  0.54821  0.78997  Biso   1.000  H
  H401     1.0000 0.20619  0.82351  0.99085  Biso   1.000  H
  H402     1.0000 0.02748  0.68926  0.73649  Biso   1.000  H
  H403     1.0000 0.71580  0.99500  0.69083  Biso   1.000  H
  H404     1.0000 0.80318  0.30335  0.56510  Biso   1.000  H
  H405     1.0000 0.96502  0.24413  0.84707  Biso   1.000  H
  H406     1.0000 0.21702  0.01363  0.83122  Biso   1.000  H
  H407     1.0000 0.28601  0.31701  0.98371  Biso   1.000  H
  H408     1.0000 0.44714  0.16649  0.75215  Biso   1.000  H
  H409     1.0000 0.24948  0.48155  0.15889  Biso   1.000  H
  H410     1.0000 0.15914  0.26877  0.50250  Biso   1.000  H
  H411     1.0000 0.46482  0.24081  0.35118  Biso   1.000  H
  H412     1.0000 0.81364  0.55170  0.29609  Biso   1.000  H
  H413     1.0000 0.67972  0.31384  0.98847  Biso   1.000  H
  H414     1.0000 0.94782  0.23104  0.18034  Biso   1.000  H
  H415     1.0000 0.15892  0.05679  0.22484  Biso   1.000  H
  H416     1.0000 0.32884  0.77187  0.53581  Biso   1.000  H
  H417     1.0000 0.00264  0.74234  0.32603  Biso   1.000  H
  H418     1.0000 0.71177  0.03589  0.34330  Biso   1.000  H
  H419     1.0000 0.80529  0.79908  0.04147  Biso   1.000  H
  H420     1.0000 0.45892  0.69654  0.22801  Biso   1.000  H
  H421     1.0000 0.73640  0.47979  0.85786  Biso   1.000  H
  H422     1.0000 0.77919  0.69775  0.53902  Biso   1.000  H
  H423     1.0000 0.52164  0.77595  0.67556  Biso   1.000  H
  H424     1.0000 0.22705  0.53748  0.67078  Biso   1.000  H
  H425     1.0000 0.30378  0.72789  0.97564  Biso   1.000  H
  H426     1.0000 0.00189  0.78165  0.84182  Biso   1.000  H
  H427     1.0000 0.75797  0.04776  0.85002  Biso   1.000  H
  H428     1.0000 0.65316  0.24684  0.49406  Biso   1.000  H
  H429     1.0000 0.01542  0.34369  0.74733  Biso   1.000  H
  H430     1.0000 0.30867  0.93999  0.73929  Biso   1.000  H
  H431     1.0000 0.17342  0.23155  0.98669  Biso   1.000  H
  H432     1.0000 0.45378  0.32777  0.80252  Biso   1.000  H
  H433     1.0000 0.25221  0.99278  0.67963  Biso   1.000  H
  H434     1.0000 0.72087  0.34053  0.07252  Biso   1.000  H
  H435     1.0000 0.04266  0.66886  0.28005  Biso   1.000  H
  H436     1.0000 0.80332  0.97662  0.80090  Biso   1.000  H
  H437     1.0000 0.20680  0.32723  0.55775  Biso   1.000  H
  H438     1.0000 0.51673  0.74513  0.16741  Biso   1.000  H
  H439     1.0000 0.17730  0.47621  0.72126  Biso   1.000  H
  H440     1.0000 0.74809  0.86270  0.99169  Biso   1.000  H
  H441     1.0000 0.51751  0.18995  0.29143  Biso   1.000  H
  H442     1.0000 0.67702  0.52075  0.79383  Biso   1.000  H
  H443     1.0000 0.26080  0.82761  0.49308  Biso   1.000  H
  H444     1.0000 0.99156  0.18051  0.24893  Biso   1.000  H
  H445     1.0000 0.67942  0.95212  0.30467  Biso   1.000  H
  H446     1.0000 0.24679  0.66360  0.02071  Biso   1.000  H
  H447     1.0000 0.95959  0.28806  0.68654  Biso   1.000  H
  H448     1.0000 0.21411  0.98797  0.19224  Biso   1.000  H
  H449     1.0000 0.81522  0.73430  0.45673  Biso   1.000  H
  H450     1.0000 0.50409  0.26639  0.85798  Biso   1.000  H
  H451     1.0000 0.74762  0.51287  0.35624  Biso   1.000  H
  H452     1.0000 0.22992  0.16592  0.02946  Biso   1.000  H
  H453     1.0000 0.45668  0.82451  0.72806  Biso   1.000  H
  H454     1.0000 0.30553  0.51711  0.23009  Biso   1.000  H
  H455     1.0000 0.70532  0.19213  0.55475  Biso   1.000  H
  H456     1.0000 0.96693  0.84351  0.77907  Biso   1.000  H
  H457     1.0000 0.66581  0.79162  0.46623  Biso   1.000  H
  H458     1.0000 0.45451  0.72073  0.82288  Biso   1.000  H
  H459     1.0000 0.82630  0.47432  0.73877  Biso   1.000  H
  H460     1.0000 0.15584  0.77145  0.05370  Biso   1.000  H
  H461     1.0000 0.96479  0.73767  0.68102  Biso   1.000  H
  H462     1.0000 0.28979  0.45847  0.81188  Biso   1.000  H
  H463     1.0000 0.76829  0.34035  0.48866  Biso   1.000  H
  H464     1.0000 0.99596  0.17944  0.78495  Biso   1.000  H
  H465     1.0000 0.64873  0.03372  0.74958  Biso   1.000  H
  H466     1.0000 0.32255  0.28202  0.06277  Biso   1.000  H
  H467     1.0000 0.50009  0.22836  0.69870  Biso   1.000  H
  H468     1.0000 0.15015  0.95778  0.78690  Biso   1.000  H
  H469     1.0000 0.30384  0.20835  0.58108  Biso   1.000  H
  H470     1.0000 0.54455  0.30286  0.21200  Biso   1.000  H
  H471     1.0000 0.21132  0.45820  0.32395  Biso   1.000  H
  H472     1.0000 0.77003  0.20390  0.98380  Biso   1.000  H
  H473     1.0000 0.93923  0.27802  0.34244  Biso   1.000  H
  H474     1.0000 0.70795  0.57800  0.20278  Biso   1.000  H
  H475     1.0000 0.23049  0.67352  0.48277  Biso   1.000  H
  H476     1.0000 0.05952  0.83122  0.22663  Biso   1.000  H
  H477     1.0000 0.31735  0.01682  0.28131  Biso   1.000  H
  H478     1.0000 0.70607  0.70455  0.97645  Biso   1.000  H
  H479     1.0000 0.47783  0.78660  0.33360  Biso   1.000  H
  H480     1.0000 0.82343  0.01716  0.24971  Biso   1.000  H
  N1       1.0000 0.66002  0.19268  0.51858  Biso   1.000  N
  N2       1.0000 0.48627  0.69819  0.17615  Biso   1.000  N
  N3       1.0000 0.17917  0.50709  0.67463  Biso   1.000  N
  N4       1.0000 0.17629  0.17730  0.00497  Biso   1.000  N
  N5       1.0000 0.01480  0.68358  0.32960  Biso   1.000  N
  N6       1.0000 0.68148  0.50155  0.84775  Biso   1.000  N
  N7       1.0000 0.82023  0.69285  0.49714  Biso   1.000  N
  N8       1.0000 0.97397  0.18153  0.19064  Biso   1.000  N
  N9       1.0000 0.30451  0.97057  0.68630  Biso   1.000  N
  N10      1.0000 0.30225  0.67427  0.99393  Biso   1.000  N
  N11      1.0000 0.49274  0.19406  0.34717  Biso   1.000  N
  N12      1.0000 0.80501  0.00999  0.84808  Biso   1.000  N
  N13      1.0000 0.31837  0.82176  0.50907  Biso   1.000  N
  N14      1.0000 0.48530  0.31962  0.85067  Biso   1.000  N
  N15      1.0000 0.80801  0.52364  0.34769  Biso   1.000  N
  N16      1.0000 0.80567  0.85044  0.01729  Biso   1.000  N
  N17      1.0000 0.99060  0.33854  0.69208  Biso   1.000  N
  N18      1.0000 0.30523  0.50573  0.17138  Biso   1.000  N
  N19      1.0000 0.16440  0.32100  0.52258  Biso   1.000  N
  N20      1.0000 0.98250  0.83544  0.83510  Biso   1.000  N
  N21      1.0000 0.66939  0.99468  0.34336  Biso   1.000  N
  N22      1.0000 0.67910  0.35138  0.03140  Biso   1.000  N
  N23      1.0000 0.48546  0.82423  0.67716  Biso   1.000  N
  N24      1.0000 0.16687  0.01781  0.18502  Biso   1.000  N
  N25      1.0000 0.82490  0.51958  0.70155  Biso   1.000  N
  N26      1.0000 0.66924  0.83434  0.50401  Biso   1.000  N
  N27      1.0000 0.49181  0.67266  0.82528  Biso   1.000  N
  N28      1.0000 0.32593  0.49819  0.82377  Biso   1.000  N
  N29      1.0000 0.15882  0.82619  0.02524  Biso   1.000  N
  N30      1.0000 0.99457  0.68676  0.68593  Biso   1.000  N
  N31      1.0000 0.65800  0.01636  0.69634  Biso   1.000  N
  N32      1.0000 0.80810  0.34321  0.52948  Biso   1.000  N
  N33      1.0000 0.98381  0.19029  0.84043  Biso   1.000  N
  N34      1.0000 0.16079  0.99255  0.83198  Biso   1.000  N
  N35      1.0000 0.32661  0.32413  0.02459  Biso   1.000  N
  N36      1.0000 0.47261  0.17601  0.70029  Biso   1.000  N
  N37      1.0000 0.16065  0.48520  0.31655  Biso   1.000  N
  N38      1.0000 0.30979  0.17395  0.53592  Biso   1.000  N
  N39      1.0000 0.50303  0.34523  0.20448  Biso   1.000  N
  N40      1.0000 0.66165  0.53821  0.19820  Biso   1.000  N
  N41      1.0000 0.82202  0.20342  0.01227  Biso   1.000  N
  N42      1.0000 0.96860  0.33049  0.33596  Biso   1.000  N
  N43      1.0000 0.31253  0.03680  0.33722  Biso   1.000  N
  N44      1.0000 0.17559  0.67260  0.50899  Biso   1.000  N
  N45      1.0000 0.02063  0.82948  0.18492  Biso   1.000  N
  N46      1.0000 0.81351  0.00386  0.19557  Biso   1.000  N
  N47      1.0000 0.65633  0.70491  0.00893  Biso   1.000  N
  N48      1.0000 0.49864  0.83952  0.32704  Biso   1.000  N
  O1       1.0000 0.33115  0.53968  0.98822  Biso   1.000  O
  O2       1.0000 0.98836  0.35678  0.55527  Biso   1.000  O
  O3       1.0000 0.53223  0.01018  0.35837  Biso   1.000  O
  O4       1.0000 0.83662  0.55652  0.52303  Biso   1.000  O
  O5       1.0000 0.49103  0.35079  0.98388  Biso   1.000  O
  O6       1.0000 0.02917  0.01110  0.15972  Biso   1.000  O
  O7       1.0000 0.15011  0.04108  0.99745  Biso   1.000  O
  O8       1.0000 0.49077  0.84773  0.54336  Biso   1.000  O
  O9       1.0000 0.94173  0.51163  0.35760  Biso   1.000  O
  O10      1.0000 0.64167  0.05452  0.51714  Biso   1.000  O
  O11      1.0000 0.98281  0.85268  0.96865  Biso   1.000  O
  O12      1.0000 0.44400  0.51765  0.16098  Biso   1.000  O
  O13      1.0000 0.64792  0.48311  0.02476  Biso   1.000  O
  O14      1.0000 0.99923  0.66659  0.46557  Biso   1.000  O
  O15      1.0000 0.43865  0.99496  0.67101  Biso   1.000  O
  O16      1.0000 0.15100  0.45535  0.50271  Biso   1.000  O
  O17      1.0000 0.47767  0.66594  0.04326  Biso   1.000  O
  O18      1.0000 0.93967  0.01233  0.86103  Biso   1.000  O
  O19      1.0000 0.83523  0.98765  0.02523  Biso   1.000  O
  O20      1.0000 0.48631  0.16699  0.48034  Biso   1.000  O
  O21      1.0000 0.04137  0.51645  0.66010  Biso   1.000  O
  O22      1.0000 0.33191  0.95809  0.50636  Biso   1.000  O
  O23      1.0000 0.99898  0.16502  0.05662  Biso   1.000  O
  O24      1.0000 0.54447  0.49864  0.85932  Biso   1.000  O
  O25      1.0000 0.94701  0.99940  0.17441  Biso   1.000  O
  O26      1.0000 0.14767  0.96151  0.02232  Biso   1.000  O
  O27      1.0000 0.99429  0.17113  0.97381  Biso   1.000  O
  O28      1.0000 0.44679  0.01792  0.36160  Biso   1.000  O
  O29      1.0000 0.64476  0.96876  0.51864  Biso   1.000  O
  O30      1.0000 0.48465  0.16063  0.56358  Biso   1.000  O
  O31      1.0000 0.52995  0.51916  0.16909  Biso   1.000  O
  O32      1.0000 0.33727  0.45620  0.00769  Biso   1.000  O
  O33      1.0000 0.48421  0.66099  0.96141  Biso   1.000  O
  O34      1.0000 0.02757  0.50142  0.35099  Biso   1.000  O
  O35      1.0000 0.83230  0.47434  0.52585  Biso   1.000  O
  O36      1.0000 0.99172  0.66915  0.55036  Biso   1.000  O
  O37      1.0000 0.02598  0.01550  0.86052  Biso   1.000  O
  O38      1.0000 0.83555  0.07176  0.02100  Biso   1.000  O
  O39      1.0000 0.99150  0.85708  0.05134  Biso   1.000  O
  O40      1.0000 0.52478  0.00637  0.67324  Biso   1.000  O
  O41      1.0000 0.32882  0.04243  0.51650  Biso   1.000  O
  O42      1.0000 0.49795  0.84901  0.46172  Biso   1.000  O
  O43      1.0000 0.46069  0.49215  0.84992  Biso   1.000  O
  O44      1.0000 0.64429  0.56887  0.01609  Biso   1.000  O
  O45      1.0000 0.50599  0.35923  0.06651  Biso   1.000  O
  O46      1.0000 0.95482  0.51587  0.66465  Biso   1.000  O
  O47      1.0000 0.15375  0.53907  0.49340  Biso   1.000  O
  O48      1.0000 0.98442  0.34845  0.47115  Biso   1.000  O
  O49      1.0000 0.99897  0.96412  0.17400  Biso   1.000  O
  O50      1.0000 0.14569  0.98998  0.96805  Biso   1.000  O
  O51      1.0000 0.95470  0.16924  0.01905  Biso   1.000  O
  O52      1.0000 0.48808  0.97428  0.35672  Biso   1.000  O
  O53      1.0000 0.64307  0.01054  0.56195  Biso   1.000  O
  O54      1.0000 0.44331  0.16372  0.51904  Biso   1.000  O
  O55      1.0000 0.48701  0.47937  0.17425  Biso   1.000  O
  O56      1.0000 0.33800  0.48702  0.95921  Biso   1.000  O
  O57      1.0000 0.52425  0.67215  0.00670  Biso   1.000  O
  O58      1.0000 0.97950  0.46558  0.35589  Biso   1.000  O
  O59      1.0000 0.83204  0.51383  0.56506  Biso   1.000  O
  O60      1.0000 0.03577  0.66239  0.50890  Biso   1.000  O
  O61      1.0000 0.98295  0.05697  0.86088  Biso   1.000  O
  O62      1.0000 0.83611  0.03290  0.06349  Biso   1.000  O
  O63      1.0000 0.02756  0.85522  0.00956  Biso   1.000  O
  O64      1.0000 0.47645  0.04179  0.67117  Biso   1.000  O
  O65      1.0000 0.32784  0.00522  0.47128  Biso   1.000  O
  O66      1.0000 0.53247  0.84962  0.50855  Biso   1.000  O
  O67      1.0000 0.49724  0.53643  0.85848  Biso   1.000  O
  O68      1.0000 0.64609  0.52936  0.06277  Biso   1.000  O
  O69      1.0000 0.45977  0.35442  0.03255  Biso   1.000  O
  O70      1.0000 0.00160  0.55495  0.66566  Biso   1.000  O
  O71      1.0000 0.15124  0.49117  0.45660  Biso   1.000  O
  O72      1.0000 0.94236  0.35843  0.51680  Biso   1.000  O
  O73      1.0000 0.00049  0.47225  0.66627  Biso   1.000  O
  O74      1.0000 0.64414  0.01041  0.47582  Biso   1.000  O
  O75      1.0000 0.43772  0.66045  0.00229  Biso   1.000  O
  O76      1.0000 0.50545  0.45408  0.85824  Biso   1.000  O
  O77      1.0000 0.15252  0.01475  0.05019  Biso   1.000  O
  O78      1.0000 0.95160  0.67272  0.50445  Biso   1.000  O
  O79      1.0000 0.48574  0.96045  0.66536  Biso   1.000  O
  O80      1.0000 0.83613  0.51688  0.48386  Biso   1.000  O
  O81      1.0000 0.03953  0.16204  0.01062  Biso   1.000  O
  O82      1.0000 0.98233  0.97159  0.85980  Biso   1.000  O
  O83      1.0000 0.33077  0.50655  0.04025  Biso   1.000  O
  O84      1.0000 0.52627  0.16506  0.52478  Biso   1.000  O
  O85      1.0000 0.98535  0.54846  0.35027  Biso   1.000  O
  O86      1.0000 0.32725  0.99450  0.55255  Biso   1.000  O
  O87      1.0000 0.54185  0.36004  0.01550  Biso   1.000  O
  O88      1.0000 0.48575  0.56180  0.16351  Biso   1.000  O
  O89      1.0000 0.83342  0.02963  0.97975  Biso   1.000  O
  O90      1.0000 0.02844  0.34897  0.51225  Biso   1.000  O
  O91      1.0000 0.48890  0.05897  0.36376  Biso   1.000  O
  O92      1.0000 0.15232  0.50414  0.53933  Biso   1.000  O
  O93      1.0000 0.94238  0.86029  0.01251  Biso   1.000  O
  O94      1.0000 0.98141  0.04695  0.16704  Biso   1.000  O
  O95      1.0000 0.65080  0.52205  0.97927  Biso   1.000  O
  O96      1.0000 0.45010  0.84620  0.49752  Biso   1.000  O
  O97      1.0000 0.44007  0.21245  0.52668  Biso   1.000  O
  O98      1.0000 0.48311  0.48070  0.22219  Biso   1.000  O
  O99      1.0000 0.20010  0.49485  0.45465  Biso   1.000  O
  O100     1.0000 0.96133  0.21656  0.01169  Biso   1.000  O
  O101     1.0000 0.96842  0.46561  0.30750  Biso   1.000  O
  O102     1.0000 0.69459  0.52824  0.06523  Biso   1.000  O
  O103     1.0000 0.04292  0.71176  0.50982  Biso   1.000  O
  O104     1.0000 0.00032  0.96263  0.22377  Biso   1.000  O
  O105     1.0000 0.27801  0.00590  0.46945  Biso   1.000  O
  O106     1.0000 0.51711  0.72158  0.99999  Biso   1.000  O
  O107     1.0000 0.48996  0.97697  0.30696  Biso   1.000  O
  O108     1.0000 0.78553  0.03337  0.06454  Biso   1.000  O
  O109     1.0000 0.53863  0.80229  0.50553  Biso   1.000  O
  O110     1.0000 0.50007  0.53495  0.81012  Biso   1.000  O
  O111     1.0000 0.78423  0.51753  0.56952  Biso   1.000  O
  O112     1.0000 0.02397  0.80556  0.00865  Biso   1.000  O
  O113     1.0000 0.00462  0.55519  0.71380  Biso   1.000  O
  O114     1.0000 0.28860  0.48511  0.95234  Biso   1.000  O
  O115     1.0000 0.94042  0.30941  0.51809  Biso   1.000  O
  O116     1.0000 0.97875  0.05772  0.81207  Biso   1.000  O
  O117     1.0000 0.69287  0.01337  0.56363  Biso   1.000  O
  O118     1.0000 0.46194  0.30585  0.03737  Biso   1.000  O
  O119     1.0000 0.47480  0.03764  0.72053  Biso   1.000  O
  O120     1.0000 0.19317  0.98667  0.96738  Biso   1.000  O
  O121     1.0000 0.04567  0.51163  0.70851  Biso   1.000  O
  O122     1.0000 0.69143  0.05534  0.52684  Biso   1.000  O
  O123     1.0000 0.47590  0.71442  0.03933  Biso   1.000  O
  O124     1.0000 0.54472  0.49948  0.81055  Biso   1.000  O
  O125     1.0000 0.19965  0.04109  0.99359  Biso   1.000  O
  O126     1.0000 0.00519  0.71713  0.46508  Biso   1.000  O
  O127     1.0000 0.43884  0.98903  0.71909  Biso   1.000  O
  O128     1.0000 0.78849  0.56049  0.52693  Biso   1.000  O
  O129     1.0000 0.00044  0.21501  0.05630  Biso   1.000  O
  O130     1.0000 0.93892  0.01349  0.81125  Biso   1.000  O
  O131     1.0000 0.28373  0.53677  0.98098  Biso   1.000  O
  O132     1.0000 0.48525  0.21577  0.48349  Biso   1.000  O
  O133     1.0000 0.93829  0.51579  0.30847  Biso   1.000  O
  O134     1.0000 0.28331  0.95632  0.50985  Biso   1.000  O
  O135     1.0000 0.49567  0.30237  0.98762  Biso   1.000  O
  O136     1.0000 0.44062  0.52149  0.20912  Biso   1.000  O
  O137     1.0000 0.78652  0.98577  0.03090  Biso   1.000  O
  O138     1.0000 0.98796  0.30799  0.55735  Biso   1.000  O
  O139     1.0000 0.53197  0.01468  0.30946  Biso   1.000  O
  O140     1.0000 0.19975  0.45432  0.49932  Biso   1.000  O
  O141     1.0000 0.97568  0.80424  0.96942  Biso   1.000  O
  O142     1.0000 0.03186  0.00816  0.20805  Biso   1.000  O
  O143     1.0000 0.69714  0.48935  0.02876  Biso   1.000  O
  O144     1.0000 0.49249  0.79921  0.54404  Biso   1.000  O
  O145     1.0000 0.52517  0.52119  0.21739  Biso   1.000  O
  O146     1.0000 0.20184  0.53955  0.49567  Biso   1.000  O
  O147     1.0000 0.48242  0.20900  0.56652  Biso   1.000  O
  O148     1.0000 0.02174  0.49798  0.30323  Biso   1.000  O
  O149     1.0000 0.69385  0.57232  0.02123  Biso   1.000  O
  O150     1.0000 0.00188  0.21919  0.97229  Biso   1.000  O
  O151     1.0000 0.94971  0.99735  0.22209  Biso   1.000  O
  O152     1.0000 0.27995  0.04246  0.51131  Biso   1.000  O
  O153     1.0000 0.99355  0.71794  0.54768  Biso   1.000  O
  O154     1.0000 0.44836  0.01858  0.31270  Biso   1.000  O
  O155     1.0000 0.78610  0.07140  0.01965  Biso   1.000  O
  O156     1.0000 0.48074  0.70936  0.95702  Biso   1.000  O
  O157     1.0000 0.46242  0.49333  0.80081  Biso   1.000  O
  O158     1.0000 0.78273  0.47487  0.52443  Biso   1.000  O
  O159     1.0000 0.50164  0.79939  0.46063  Biso   1.000  O
  O160     1.0000 0.96149  0.51419  0.71371  Biso   1.000  O
  O161     1.0000 0.28749  0.45481  0.00504  Biso   1.000  O
  O162     1.0000 0.98684  0.80724  0.05198  Biso   1.000  O
  O163     1.0000 0.02431  0.01873  0.81097  Biso   1.000  O
  O164     1.0000 0.69349  0.97100  0.52186  Biso   1.000  O
  O165     1.0000 0.97786  0.30145  0.47443  Biso   1.000  O
  O166     1.0000 0.52242  0.00160  0.72160  Biso   1.000  O
  O167     1.0000 0.19737  0.95909  0.01889  Biso   1.000  O
  O168     1.0000 0.51370  0.31179  0.06837  Biso   1.000  O
  O169     1.0000 0.98800  0.04632  0.21677  Biso   1.000  O
  O170     1.0000 0.20125  0.01263  0.04801  Biso   1.000  O
  O171     1.0000 0.04320  0.21006  0.01559  Biso   1.000  O
  O172     1.0000 0.49271  0.05966  0.31449  Biso   1.000  O
  O173     1.0000 0.69277  0.00703  0.48001  Biso   1.000  O
  O174     1.0000 0.52352  0.21570  0.52836  Biso   1.000  O
  O175     1.0000 0.48031  0.56521  0.21073  Biso   1.000  O
  O176     1.0000 0.28093  0.50347  0.03217  Biso   1.000  O
  O177     1.0000 0.43489  0.70897  0.99936  Biso   1.000  O
  O178     1.0000 0.98975  0.54800  0.30291  Biso   1.000  O
  O179     1.0000 0.78710  0.51860  0.48310  Biso   1.000  O
  O180     1.0000 0.95832  0.72192  0.50167  Biso   1.000  O
  O181     1.0000 0.98023  0.97196  0.81005  Biso   1.000  O
  O182     1.0000 0.78301  0.02714  0.98297  Biso   1.000  O
  O183     1.0000 0.93878  0.81049  0.01896  Biso   1.000  O
  O184     1.0000 0.48857  0.95711  0.71354  Biso   1.000  O
  O185     1.0000 0.27870  0.99826  0.55308  Biso   1.000  O
  O186     1.0000 0.45194  0.79786  0.50187  Biso   1.000  O
  O187     1.0000 0.50559  0.45190  0.80890  Biso   1.000  O
  O188     1.0000 0.70040  0.52560  0.98250  Biso   1.000  O
  O189     1.0000 0.54431  0.31151  0.01771  Biso   1.000  O
  O190     1.0000 0.00234  0.47459  0.71372  Biso   1.000  O
  O191     1.0000 0.20110  0.49649  0.53942  Biso   1.000  O
  O192     1.0000 0.02449  0.29995  0.51508  Biso   1.000  O
