data_image0
_cell_length_a       46.8898
_cell_length_b       47.2028
_cell_length_c       46.4863
_cell_angle_alpha    90
_cell_angle_beta     90
_cell_angle_gamma    90

_symmetry_space_group_name_H-M    "P 1"
_symmetry_int_tables_number       1

loop_
  _symmetry_equiv_pos_as_xyz
  'x, y, z'

loop_
  _atom_site_label
  _atom_site_occupancy
  _atom_site_fract_x
  _atom_site_fract_y
  _atom_site_fract_z
  _atom_site_thermal_displace_type
  _atom_site_B_iso_or_equiv
  _atom_site_type_symbol
  C1       1.0000 0.57108  0.98567  0.35439  Biso   1.000  C
  C2       1.0000 0.33979  0.54331  0.02946  Biso   1.000  C
  C3       1.0000 0.03606  0.29911  0.57126  Biso   1.000  C
  C4       1.0000 0.07470  0.00962  0.21695  Biso   1.000  C
  C5       1.0000 0.83571  0.52387  0.53173  Biso   1.000  C
  C6       1.0000 0.51174  0.30888  0.97818  Biso   1.000  C
  C7       1.0000 0.97102  0.51059  0.35191  Biso   1.000  C
  C8       1.0000 0.20363  0.04526  0.04506  Biso   1.000  C
  C9       1.0000 0.50877  0.80608  0.59204  Biso   1.000  C
  C10      1.0000 0.46612  0.47960  0.21470  Biso   1.000  C
  C11      1.0000 0.70697  0.02080  0.52096  Biso   1.000  C
  C12      1.0000 0.02217  0.79728  0.99612  Biso   1.000  C
  C13      1.0000 0.47532  0.99008  0.72080  Biso   1.000  C
  C14      1.0000 0.70227  0.42941  0.03332  Biso   1.000  C
  C15      1.0000 0.00568  0.67385  0.49637  Biso   1.000  C
  C16      1.0000 0.97137  0.96537  0.85584  Biso   1.000  C
  C17      1.0000 0.20776  0.44943  0.53285  Biso   1.000  C
  C18      1.0000 0.51798  0.66488  0.08850  Biso   1.000  C
  C19      1.0000 0.07527  0.46881  0.71407  Biso   1.000  C
  C20      1.0000 0.83876  0.93104  0.02637  Biso   1.000  C
  C21      1.0000 0.52991  0.16334  0.47738  Biso   1.000  C
  C22      1.0000 0.57502  0.48685  0.84721  Biso   1.000  C
  C23      1.0000 0.33638  0.94324  0.54544  Biso   1.000  C
  C24      1.0000 0.03450  0.17125  0.07213  Biso   1.000  C
  C25      1.0000 0.34769  0.04934  0.53340  Biso   1.000  C
  C26      1.0000 0.53675  0.30625  0.08268  Biso   1.000  C
  C27      1.0000 0.07636  0.48558  0.35855  Biso   1.000  C
  C28      1.0000 0.84433  0.03764  0.04125  Biso   1.000  C
  C29      1.0000 0.03553  0.30976  0.46336  Biso   1.000  C
  C30      1.0000 0.57631  0.47993  0.21280  Biso   1.000  C
  C31      1.0000 0.19497  0.55946  0.53217  Biso   1.000  C
  C32      1.0000 0.01751  0.81076  0.10478  Biso   1.000  C
  C33      1.0000 0.46345  0.98128  0.35311  Biso   1.000  C
  C34      1.0000 0.70291  0.53721  0.02270  Biso   1.000  C
  C35      1.0000 0.50823  0.79933  0.48161  Biso   1.000  C
  C36      1.0000 0.96625  0.99926  0.21449  Biso   1.000  C
  C37      1.0000 0.69708  0.91322  0.54014  Biso   1.000  C
  C38      1.0000 0.52257  0.66681  0.97820  Biso   1.000  C
  C39      1.0000 0.96245  0.46481  0.70883  Biso   1.000  C
  C40      1.0000 0.19848  0.93752  0.03827  Biso   1.000  C
  C41      1.0000 0.00257  0.66319  0.60712  Biso   1.000  C
  C42      1.0000 0.46503  0.48070  0.84752  Biso   1.000  C
  C43      1.0000 0.84542  0.41519  0.52489  Biso   1.000  C
  C44      1.0000 0.01636  0.15885  0.96410  Biso   1.000  C
  C45      1.0000 0.58239  0.97806  0.71326  Biso   1.000  C
  C46      1.0000 0.34397  0.43507  0.03289  Biso   1.000  C
  C47      1.0000 0.54464  0.15853  0.58438  Biso   1.000  C
  C48      1.0000 0.08101  0.97399  0.85488  Biso   1.000  C
  C49      1.0000 0.01800  0.02284  0.85363  Biso   1.000  C
  C50      1.0000 0.84200  0.97480  0.08765  Biso   1.000  C
  C51      1.0000 0.07377  0.80658  0.05594  Biso   1.000  C
  C52      1.0000 0.53528  0.03900  0.71882  Biso   1.000  C
  C53      1.0000 0.33672  0.99005  0.48452  Biso   1.000  C
  C54      1.0000 0.56136  0.79371  0.53698  Biso   1.000  C
  C55      1.0000 0.51837  0.53845  0.84840  Biso   1.000  C
  C56      1.0000 0.70276  0.48685  0.08442  Biso   1.000  C
  C57      1.0000 0.47565  0.30738  0.04565  Biso   1.000  C
  C58      1.0000 0.01655  0.52131  0.72098  Biso   1.000  C
  C59      1.0000 0.20676  0.50081  0.47829  Biso   1.000  C
  C60      1.0000 0.98270  0.29914  0.51818  Biso   1.000  C
  C61      1.0000 0.02311  0.95016  0.21708  Biso   1.000  C
  C62      1.0000 0.20131  0.99266  0.98723  Biso   1.000  C
  C63      1.0000 0.97250  0.16936  0.02311  Biso   1.000  C
  C64      1.0000 0.51997  0.92578  0.35384  Biso   1.000  C
  C65      1.0000 0.70361  0.97703  0.58366  Biso   1.000  C
  C66      1.0000 0.48076  0.16947  0.53940  Biso   1.000  C
  C67      1.0000 0.51999  0.42734  0.21314  Biso   1.000  C
  C68      1.0000 0.34247  0.48872  0.97608  Biso   1.000  C
  C69      1.0000 0.57402  0.66845  0.03039  Biso   1.000  C
  C70      1.0000 0.01699  0.44715  0.34675  Biso   1.000  C
  C71      1.0000 0.83981  0.46267  0.58219  Biso   1.000  C
  C72      1.0000 0.05963  0.67200  0.55449  Biso   1.000  C
  C73      1.0000 0.03110  0.55345  0.36524  Biso   1.000  C
  C74      1.0000 0.34639  0.00152  0.59439  Biso   1.000  C
  C75      1.0000 0.58057  0.30548  0.01540  Biso   1.000  C
  C76      1.0000 0.51898  0.53441  0.21394  Biso   1.000  C
  C77      1.0000 0.84144  0.99426  0.97915  Biso   1.000  C
  C78      1.0000 0.09393  0.30832  0.52039  Biso   1.000  C
  C79      1.0000 0.51795  0.03532  0.35704  Biso   1.000  C
  C80      1.0000 0.20358  0.50734  0.58946  Biso   1.000  C
  C81      1.0000 0.96613  0.80206  0.05323  Biso   1.000  C
  C82      1.0000 0.01684  0.05863  0.20911  Biso   1.000  C
  C83      1.0000 0.70283  0.47463  0.97413  Biso   1.000  C
  C84      1.0000 0.45218  0.81000  0.53896  Biso   1.000  C
  C85      1.0000 0.01616  0.41451  0.70558  Biso   1.000  C
  C86      1.0000 0.70133  0.96317  0.47695  Biso   1.000  C
  C87      1.0000 0.46536  0.66578  0.03565  Biso   1.000  C
  C88      1.0000 0.52133  0.43138  0.84428  Biso   1.000  C
  C89      1.0000 0.19931  0.99153  0.09616  Biso   1.000  C
  C90      1.0000 0.95232  0.66273  0.55112  Biso   1.000  C
  C91      1.0000 0.52465  0.93021  0.71904  Biso   1.000  C
  C92      1.0000 0.84538  0.47649  0.47584  Biso   1.000  C
  C93      1.0000 0.08077  0.17007  0.01238  Biso   1.000  C
  C94      1.0000 0.03522  0.91836  0.86365  Biso   1.000  C
  C95      1.0000 0.34307  0.49592  0.08469  Biso   1.000  C
  C96      1.0000 0.59010  0.15391  0.51951  Biso   1.000  C
  C97      1.0000 0.70910  0.05141  0.51031  Biso   1.000  C
  C98      1.0000 0.51797  0.66434  0.12059  Biso   1.000  C
  C99      1.0000 0.10666  0.47108  0.71441  Biso   1.000  C
  C100     1.0000 0.20602  0.07686  0.04432  Biso   1.000  C
  C101     1.0000 0.00541  0.67512  0.46464  Biso   1.000  C
  C102     1.0000 0.60664  0.48670  0.84604  Biso   1.000  C
  C103     1.0000 0.83514  0.55613  0.53356  Biso   1.000  C
  C104     1.0000 0.03396  0.17333  0.10438  Biso   1.000  C
  C105     1.0000 0.44270  0.99165  0.72098  Biso   1.000  C
  C106     1.0000 0.33869  0.57509  0.03294  Biso   1.000  C
  C107     1.0000 0.53003  0.16318  0.44516  Biso   1.000  C
  C108     1.0000 0.93937  0.96651  0.85650  Biso   1.000  C
  C109     1.0000 0.33204  0.91094  0.54926  Biso   1.000  C
  C110     1.0000 0.50981  0.30771  0.94558  Biso   1.000  C
  C111     1.0000 0.93899  0.51239  0.35164  Biso   1.000  C
  C112     1.0000 0.83830  0.89885  0.02817  Biso   1.000  C
  C113     1.0000 0.03641  0.29494  0.60370  Biso   1.000  C
  C114     1.0000 0.43237  0.47913  0.21410  Biso   1.000  C
  C115     1.0000 0.21171  0.41737  0.53354  Biso   1.000  C
  C116     1.0000 0.02683  0.79622  0.96381  Biso   1.000  C
  C117     1.0000 0.60366  0.98521  0.35285  Biso   1.000  C
  C118     1.0000 0.70301  0.39775  0.03500  Biso   1.000  C
  C119     1.0000 0.51270  0.80425  0.62368  Biso   1.000  C
  C120     1.0000 0.10602  0.00868  0.21957  Biso   1.000  C
  C121     1.0000 0.83977  0.97152  0.11906  Biso   1.000  C
  C122     1.0000 0.10673  0.80832  0.06236  Biso   1.000  C
  C123     1.0000 0.00776  0.05192  0.84679  Biso   1.000  C
  C124     1.0000 0.33507  0.99082  0.45269  Biso   1.000  C
  C125     1.0000 0.59451  0.79165  0.54077  Biso   1.000  C
  C126     1.0000 0.53741  0.07136  0.71717  Biso   1.000  C
  C127     1.0000 0.70282  0.48539  0.11751  Biso   1.000  C
  C128     1.0000 0.44291  0.30804  0.04404  Biso   1.000  C
  C129     1.0000 0.52016  0.57074  0.84966  Biso   1.000  C
  C130     1.0000 0.20655  0.49496  0.44807  Biso   1.000  C
  C131     1.0000 0.95086  0.29570  0.52117  Biso   1.000  C
  C132     1.0000 0.01946  0.55322  0.72666  Biso   1.000  C
  C133     1.0000 0.20183  0.98976  0.95516  Biso   1.000  C
  C134     1.0000 0.94042  0.16826  0.02706  Biso   1.000  C
  C135     1.0000 0.02418  0.91689  0.22103  Biso   1.000  C
  C136     1.0000 0.70425  0.97908  0.61527  Biso   1.000  C
  C137     1.0000 0.44861  0.17305  0.53507  Biso   1.000  C
  C138     1.0000 0.51607  0.89426  0.35293  Biso   1.000  C
  C139     1.0000 0.34090  0.48499  0.94350  Biso   1.000  C
  C140     1.0000 0.60692  0.66617  0.02958  Biso   1.000  C
  C141     1.0000 0.52117  0.39596  0.21374  Biso   1.000  C
  C142     1.0000 0.84028  0.45335  0.61262  Biso   1.000  C
  C143     1.0000 0.09060  0.67611  0.55708  Biso   1.000  C
  C144     1.0000 0.01515  0.41497  0.34239  Biso   1.000  C
  C145     1.0000 0.34403  0.50049  0.11716  Biso   1.000  C
  C146     1.0000 0.12591  0.31040  0.52738  Biso   1.000  C
  C147     1.0000 0.52121  0.06694  0.35405  Biso   1.000  C
  C148     1.0000 0.84645  0.47806  0.44464  Biso   1.000  C
  C149     1.0000 0.61262  0.30164  0.01444  Biso   1.000  C
  C150     1.0000 0.01309  0.09097  0.20680  Biso   1.000  C
  C151     1.0000 0.19922  0.99590  0.12746  Biso   1.000  C
  C152     1.0000 0.42180  0.81255  0.54553  Biso   1.000  C
  C153     1.0000 0.03108  0.58576  0.36718  Biso   1.000  C
  C154     1.0000 0.70071  0.96385  0.44457  Biso   1.000  C
  C155     1.0000 0.93415  0.80503  0.05284  Biso   1.000  C
  C156     1.0000 0.51779  0.56520  0.21476  Biso   1.000  C
  C157     1.0000 0.70366  0.47399  0.94171  Biso   1.000  C
  C158     1.0000 0.92022  0.65878  0.55155  Biso   1.000  C
  C159     1.0000 0.52463  0.89808  0.71868  Biso   1.000  C
  C160     1.0000 0.20271  0.50308  0.62191  Biso   1.000  C
  C161     1.0000 0.43368  0.66768  0.04060  Biso   1.000  C
  C162     1.0000 0.04376  0.88727  0.86376  Biso   1.000  C
  C163     1.0000 0.84179  0.99695  0.94711  Biso   1.000  C
  C164     1.0000 0.62196  0.15313  0.51759  Biso   1.000  C
  C165     1.0000 0.01464  0.38202  0.70420  Biso   1.000  C
  C166     1.0000 0.34762  0.00457  0.62656  Biso   1.000  C
  C167     1.0000 0.11307  0.16981  0.01792  Biso   1.000  C
  C168     1.0000 0.51904  0.39912  0.84470  Biso   1.000  C
  C169     1.0000 0.01718  0.81290  0.13724  Biso   1.000  C
  C170     1.0000 0.11315  0.97480  0.85527  Biso   1.000  C
  C171     1.0000 0.84684  0.07023  0.04528  Biso   1.000  C
  C172     1.0000 0.51346  0.79859  0.45006  Biso   1.000  C
  C173     1.0000 0.61388  0.97782  0.71272  Biso   1.000  C
  C174     1.0000 0.34873  0.08101  0.53618  Biso   1.000  C
  C175     1.0000 0.53864  0.30625  0.11601  Biso   1.000  C
  C176     1.0000 0.43334  0.47561  0.84741  Biso   1.000  C
  C177     1.0000 0.70166  0.56830  0.02241  Biso   1.000  C
  C178     1.0000 0.02959  0.31092  0.43133  Biso   1.000  C
  C179     1.0000 0.93032  0.46356  0.70943  Biso   1.000  C
  C180     1.0000 0.19185  0.59003  0.54135  Biso   1.000  C
  C181     1.0000 0.01280  0.15496  0.93299  Biso   1.000  C
  C182     1.0000 0.93433  0.98910  0.21564  Biso   1.000  C
  C183     1.0000 0.19981  0.90458  0.04029  Biso   1.000  C
  C184     1.0000 0.54615  0.15970  0.61681  Biso   1.000  C
  C185     1.0000 0.43184  0.98375  0.35344  Biso   1.000  C
  C186     1.0000 0.69405  0.88137  0.54180  Biso   1.000  C
  C187     1.0000 0.52873  0.66698  0.94610  Biso   1.000  C
  C188     1.0000 0.60815  0.48129  0.21314  Biso   1.000  C
  C189     1.0000 0.34483  0.40243  0.03625  Biso   1.000  C
  C190     1.0000 0.00260  0.65842  0.63971  Biso   1.000  C
  C191     1.0000 0.10840  0.48374  0.35652  Biso   1.000  C
  C192     1.0000 0.84823  0.38261  0.51977  Biso   1.000  C
  C193     1.0000 0.86935  0.99120  0.93210  Biso   1.000  C
  C194     1.0000 0.91993  0.83301  0.04603  Biso   1.000  C
  C195     1.0000 0.03991  0.87244  0.89095  Biso   1.000  C
  C196     1.0000 0.37514  0.99947  0.64102  Biso   1.000  C
  C197     1.0000 0.40747  0.84043  0.54612  Biso   1.000  C
  C198     1.0000 0.52404  0.88177  0.69146  Biso   1.000  C
  C199     1.0000 0.67564  0.47892  0.92680  Biso   1.000  C
  C200     1.0000 0.62838  0.32858  0.01644  Biso   1.000  C
  C201     1.0000 0.51309  0.38455  0.87144  Biso   1.000  C
  C202     1.0000 0.17592  0.49508  0.63684  Biso   1.000  C
  C203     1.0000 0.13853  0.33966  0.53228  Biso   1.000  C
  C204     1.0000 0.01809  0.36666  0.67607  Biso   1.000  C
  C205     1.0000 0.17414  0.99795  0.14493  Biso   1.000  C
  C206     1.0000 0.12961  0.14319  0.02299  Biso   1.000  C
  C207     1.0000 0.01570  0.10335  0.17751  Biso   1.000  C
  C208     1.0000 0.67333  0.96675  0.42891  Biso   1.000  C
  C209     1.0000 0.63603  0.12590  0.51424  Biso   1.000  C
  C210     1.0000 0.52325  0.08409  0.38106  Biso   1.000  C
  C211     1.0000 0.37131  0.49606  0.13358  Biso   1.000  C
  C212     1.0000 0.41554  0.64090  0.03986  Biso   1.000  C
  C213     1.0000 0.51696  0.58346  0.18817  Biso   1.000  C
  C214     1.0000 0.87140  0.48731  0.42873  Biso   1.000  C
  C215     1.0000 0.90883  0.62926  0.54795  Biso   1.000  C
  C216     1.0000 0.02111  0.60017  0.39425  Biso   1.000  C
  C217     1.0000 0.12588  0.97619  0.88363  Biso   1.000  C
  C218     1.0000 0.87470  0.08524  0.04081  Biso   1.000  C
  C219     1.0000 0.01751  0.84164  0.15090  Biso   1.000  C
  C220     1.0000 0.62966  0.97959  0.68548  Biso   1.000  C
  C221     1.0000 0.37755  0.09598  0.53642  Biso   1.000  C
  C222     1.0000 0.51192  0.82630  0.43282  Biso   1.000  C
  C223     1.0000 0.41791  0.47842  0.87465  Biso   1.000  C
  C224     1.0000 0.67357  0.58348  0.02722  Biso   1.000  C
  C225     1.0000 0.53927  0.33263  0.13274  Biso   1.000  C
  C226     1.0000 0.91741  0.46026  0.68205  Biso   1.000  C
  C227     1.0000 0.16383  0.60517  0.54276  Biso   1.000  C
  C228     1.0000 0.02763  0.33949  0.41694  Biso   1.000  C
  C229     1.0000 0.91773  0.98349  0.18843  Biso   1.000  C
  C230     1.0000 0.17189  0.88923  0.04570  Biso   1.000  C
  C231     1.0000 0.01036  0.12675  0.92220  Biso   1.000  C
  C232     1.0000 0.41806  0.98292  0.38131  Biso   1.000  C
  C233     1.0000 0.66614  0.86559  0.54542  Biso   1.000  C
  C234     1.0000 0.54531  0.13435  0.63588  Biso   1.000  C
  C235     1.0000 0.62540  0.47998  0.18604  Biso   1.000  C
  C236     1.0000 0.37297  0.38842  0.03804  Biso   1.000  C
  C237     1.0000 0.53003  0.63978  0.93062  Biso   1.000  C
  C238     1.0000 0.12672  0.48654  0.38226  Biso   1.000  C
  C239     1.0000 0.87672  0.36861  0.51974  Biso   1.000  C
  C240     1.0000 0.00715  0.63064  0.65410  Biso   1.000  C
  C241     1.0000 0.62197  0.48439  0.87286  Biso   1.000  C
  C242     1.0000 0.86135  0.57269  0.54047  Biso   1.000  C
  C243     1.0000 0.51725  0.83223  0.63826  Biso   1.000  C
  C244     1.0000 0.12259  0.47941  0.68890  Biso   1.000  C
  C245     1.0000 0.36451  0.59236  0.03165  Biso   1.000  C
  C246     1.0000 0.02942  0.82185  0.94451  Biso   1.000  C
  C247     1.0000 0.92203  0.97235  0.88446  Biso   1.000  C
  C248     1.0000 0.68464  0.06994  0.51094  Biso   1.000  C
  C249     1.0000 0.03123  0.31989  0.62269  Biso   1.000  C
  C250     1.0000 0.42788  0.99220  0.69371  Biso   1.000  C
  C251     1.0000 0.17951  0.09242  0.03677  Biso   1.000  C
  C252     1.0000 0.50783  0.33487  0.92714  Biso   1.000  C
  C253     1.0000 0.41780  0.48407  0.18674  Biso   1.000  C
  C254     1.0000 0.18532  0.40030  0.53733  Biso   1.000  C
  C255     1.0000 0.52471  0.13659  0.43074  Biso   1.000  C
  C256     1.0000 0.92355  0.50621  0.37939  Biso   1.000  C
  C257     1.0000 0.67676  0.38113  0.03186  Biso   1.000  C
  C258     1.0000 0.03016  0.14875  0.12225  Biso   1.000  C
  C259     1.0000 0.12283  0.00562  0.19261  Biso   1.000  C
  C260     1.0000 0.35830  0.89375  0.55082  Biso   1.000  C
  C261     1.0000 0.00817  0.65016  0.44786  Biso   1.000  C
  C262     1.0000 0.62013  0.97745  0.37911  Biso   1.000  C
  C263     1.0000 0.86513  0.88316  0.03136  Biso   1.000  C
  C264     1.0000 0.51568  0.63778  0.13681  Biso   1.000  C
  C265     1.0000 0.00740  0.07018  0.87279  Biso   1.000  C
  C266     1.0000 0.86490  0.97601  0.13616  Biso   1.000  C
  C267     1.0000 0.12088  0.83552  0.05901  Biso   1.000  C
  C268     1.0000 0.53908  0.08629  0.68893  Biso   1.000  C
  C269     1.0000 0.36209  0.98701  0.43743  Biso   1.000  C
  C270     1.0000 0.61184  0.81832  0.54212  Biso   1.000  C
  C271     1.0000 0.52445  0.58603  0.87756  Biso   1.000  C
  C272     1.0000 0.67564  0.48286  0.13364  Biso   1.000  C
  C273     1.0000 0.42612  0.33504  0.04162  Biso   1.000  C
  C274     1.0000 0.01668  0.57249  0.70165  Biso   1.000  C
  C275     1.0000 0.17938  0.49361  0.43346  Biso   1.000  C
  C276     1.0000 0.93237  0.32180  0.51620  Biso   1.000  C
  C277     1.0000 0.02242  0.89839  0.19603  Biso   1.000  C
  C278     1.0000 0.17366  0.98894  0.93822  Biso   1.000  C
  C279     1.0000 0.92591  0.14077  0.03069  Biso   1.000  C
  C280     1.0000 0.51431  0.87834  0.38070  Biso   1.000  C
  C281     1.0000 0.67729  0.97964  0.63194  Biso   1.000  C
  C282     1.0000 0.43160  0.14588  0.53692  Biso   1.000  C
  C283     1.0000 0.52621  0.38108  0.18667  Biso   1.000  C
  C284     1.0000 0.36758  0.48481  0.92689  Biso   1.000  C
  C285     1.0000 0.62302  0.63720  0.02643  Biso   1.000  C
  C286     1.0000 0.01793  0.39597  0.36785  Biso   1.000  C
  C287     1.0000 0.86753  0.45375  0.62928  Biso   1.000  C
  C288     1.0000 0.10908  0.65178  0.55157  Biso   1.000  C
  C289     1.0000 0.35577  0.86303  0.55110  Biso   1.000  C
  C290     1.0000 0.50963  0.33295  0.89546  Biso   1.000  C
  C291     1.0000 0.89168  0.50014  0.37823  Biso   1.000  C
  C292     1.0000 0.86702  0.85209  0.03358  Biso   1.000  C
  C293     1.0000 0.02815  0.31589  0.65442  Biso   1.000  C
  C294     1.0000 0.38753  0.48936  0.18734  Biso   1.000  C
  C295     1.0000 0.18833  0.36929  0.53545  Biso   1.000  C
  C296     1.0000 0.03602  0.81992  0.91436  Biso   1.000  C
  C297     1.0000 0.65173  0.97749  0.37828  Biso   1.000  C
  C298     1.0000 0.68004  0.34920  0.03408  Biso   1.000  C
  C299     1.0000 0.51560  0.83039  0.67002  Biso   1.000  C
  C300     1.0000 0.15378  0.00758  0.19558  Biso   1.000  C
  C301     1.0000 0.68797  0.10180  0.51056  Biso   1.000  C
  C302     1.0000 0.51841  0.63791  0.16832  Biso   1.000  C
  C303     1.0000 0.15335  0.47936  0.68805  Biso   1.000  C
  C304     1.0000 0.18135  0.12312  0.03494  Biso   1.000  C
  C305     1.0000 0.01102  0.65239  0.41640  Biso   1.000  C
  C306     1.0000 0.65249  0.47832  0.87364  Biso   1.000  C
  C307     1.0000 0.85768  0.60445  0.54034  Biso   1.000  C
  C308     1.0000 0.02531  0.15456  0.15298  Biso   1.000  C
  C309     1.0000 0.39511  0.99587  0.69405  Biso   1.000  C
  C310     1.0000 0.36350  0.62409  0.03428  Biso   1.000  C
  C311     1.0000 0.52889  0.13725  0.40019  Biso   1.000  C
  C312     1.0000 0.89073  0.97863  0.88193  Biso   1.000  C
  C313     1.0000 0.17926  0.48784  0.40166  Biso   1.000  C
  C314     1.0000 0.40068  0.14853  0.53492  Biso   1.000  C
  C315     1.0000 0.52740  0.34984  0.18685  Biso   1.000  C
  C316     1.0000 0.67788  0.48175  0.16478  Biso   1.000  C
  C317     1.0000 0.89443  0.14037  0.03630  Biso   1.000  C
  C318     1.0000 0.01891  0.36489  0.36435  Biso   1.000  C
  C319     1.0000 0.36483  0.98953  0.40613  Biso   1.000  C
  C320     1.0000 0.13981  0.65660  0.54997  Biso   1.000  C
  C321     1.0000 0.02035  0.86740  0.20109  Biso   1.000  C
  C322     1.0000 0.86428  0.97674  0.16734  Biso   1.000  C
  C323     1.0000 0.65426  0.63835  0.02571  Biso   1.000  C
  C324     1.0000 0.51715  0.84719  0.38011  Biso   1.000  C
  C325     1.0000 0.86591  0.45458  0.66163  Biso   1.000  C
  C326     1.0000 0.64271  0.81369  0.54078  Biso   1.000  C
  C327     1.0000 0.52464  0.61813  0.87776  Biso   1.000  C
  C328     1.0000 0.36604  0.47897  0.89568  Biso   1.000  C
  C329     1.0000 0.15164  0.83568  0.05427  Biso   1.000  C
  C330     1.0000 0.01616  0.60457  0.70515  Biso   1.000  C
  C331     1.0000 0.68020  0.97972  0.66231  Biso   1.000  C
  C332     1.0000 0.90106  0.31736  0.51578  Biso   1.000  C
  C333     1.0000 0.01209  0.10156  0.87128  Biso   1.000  C
  C334     1.0000 0.17706  0.98524  0.90702  Biso   1.000  C
  C335     1.0000 0.39463  0.33474  0.03879  Biso   1.000  C
  C336     1.0000 0.53861  0.11797  0.69054  Biso   1.000  C
  C337     1.0000 0.67452  0.47551  0.89559  Biso   1.000  C
  C338     1.0000 0.87693  0.62834  0.54338  Biso   1.000  C
  C339     1.0000 0.51942  0.85135  0.69247  Biso   1.000  C
  C340     1.0000 0.17539  0.48603  0.66753  Biso   1.000  C
  C341     1.0000 0.38478  0.64579  0.03685  Biso   1.000  C
  C342     1.0000 0.04051  0.84042  0.89111  Biso   1.000  C
  C343     1.0000 0.86862  0.98673  0.90149  Biso   1.000  C
  C344     1.0000 0.66767  0.12469  0.51235  Biso   1.000  C
  C345     1.0000 0.02197  0.33559  0.67679  Biso   1.000  C
  C346     1.0000 0.37302  0.99803  0.67187  Biso   1.000  C
  C347     1.0000 0.16008  0.14452  0.02798  Biso   1.000  C
  C348     1.0000 0.51325  0.35356  0.87226  Biso   1.000  C
  C349     1.0000 0.36785  0.49389  0.16564  Biso   1.000  C
  C350     1.0000 0.16941  0.34467  0.53481  Biso   1.000  C
  C351     1.0000 0.52755  0.11505  0.37878  Biso   1.000  C
  C352     1.0000 0.86910  0.49169  0.39786  Biso   1.000  C
  C353     1.0000 0.65858  0.32720  0.02518  Biso   1.000  C
  C354     1.0000 0.01967  0.13509  0.17539  Biso   1.000  C
  C355     1.0000 0.17571  0.00412  0.17435  Biso   1.000  C
  C356     1.0000 0.37640  0.84021  0.54897  Biso   1.000  C
  C357     1.0000 0.01691  0.63096  0.39403  Biso   1.000  C
  C358     1.0000 0.67339  0.97230  0.39777  Biso   1.000  C
  C359     1.0000 0.88851  0.83201  0.04104  Biso   1.000  C
  C360     1.0000 0.51764  0.61538  0.18957  Biso   1.000  C
  C361     1.0000 0.01266  0.12524  0.89043  Biso   1.000  C
  C362     1.0000 0.88604  0.98033  0.18832  Biso   1.000  C
  C363     1.0000 0.17248  0.85764  0.04862  Biso   1.000  C
  C364     1.0000 0.54214  0.13825  0.66708  Biso   1.000  C
  C365     1.0000 0.38676  0.98786  0.38363  Biso   1.000  C
  C366     1.0000 0.66465  0.83374  0.54364  Biso   1.000  C
  C367     1.0000 0.52532  0.63990  0.89902  Biso   1.000  C
  C368     1.0000 0.65664  0.47981  0.18664  Biso   1.000  C
  C369     1.0000 0.37267  0.35655  0.03904  Biso   1.000  C
  C370     1.0000 0.01094  0.62901  0.68601  Biso   1.000  C
  C371     1.0000 0.15743  0.48569  0.38028  Biso   1.000  C
  C372     1.0000 0.87838  0.33762  0.51645  Biso   1.000  C
  C373     1.0000 0.01936  0.84390  0.18227  Biso   1.000  C
  C374     1.0000 0.15854  0.97921  0.88492  Biso   1.000  C
  C375     1.0000 0.87310  0.11831  0.04019  Biso   1.000  C
  C376     1.0000 0.51645  0.82586  0.40283  Biso   1.000  C
  C377     1.0000 0.65997  0.97712  0.68554  Biso   1.000  C
  C378     1.0000 0.37830  0.12677  0.53729  Biso   1.000  C
  C379     1.0000 0.53531  0.33012  0.16412  Biso   1.000  C
  C380     1.0000 0.38716  0.47739  0.87305  Biso   1.000  C
  C381     1.0000 0.67377  0.61517  0.02694  Biso   1.000  C
  C382     1.0000 0.02356  0.34161  0.38497  Biso   1.000  C
  C383     1.0000 0.88609  0.45865  0.68298  Biso   1.000  C
  C384     1.0000 0.16309  0.63652  0.54833  Biso   1.000  C
  C385     1.0000 0.20738  0.13997  0.03761  Biso   1.000  C
  C386     1.0000 0.02347  0.18247  0.16665  Biso   1.000  C
  C387     1.0000 0.16765  0.01330  0.22306  Biso   1.000  C
  C388     1.0000 0.71557  0.11636  0.50728  Biso   1.000  C
  C389     1.0000 0.53308  0.16286  0.38303  Biso   1.000  C
  C390     1.0000 0.66705  0.98139  0.35136  Biso   1.000  C
  C391     1.0000 0.33651  0.63973  0.03820  Biso   1.000  C
  C392     1.0000 0.52000  0.66427  0.18473  Biso   1.000  C
  C393     1.0000 0.37137  0.49030  0.21392  Biso   1.000  C
  C394     1.0000 0.83014  0.61774  0.53762  Biso   1.000  C
  C395     1.0000 0.01110  0.67937  0.40094  Biso   1.000  C
  C396     1.0000 0.87652  0.49961  0.35116  Biso   1.000  C
  C397     1.0000 0.84120  0.83524  0.03185  Biso   1.000  C
  C398     1.0000 0.04097  0.79208  0.90114  Biso   1.000  C
  C399     1.0000 0.87635  0.97760  0.85364  Biso   1.000  C
  C400     1.0000 0.32763  0.84853  0.55188  Biso   1.000  C
  C401     1.0000 0.51297  0.80321  0.68690  Biso   1.000  C
  C402     1.0000 0.37936  0.99772  0.72122  Biso   1.000  C
  C403     1.0000 0.70608  0.33388  0.03909  Biso   1.000  C
  C404     1.0000 0.51195  0.30497  0.88142  Biso   1.000  C
  C405     1.0000 0.66849  0.47565  0.84638  Biso   1.000  C
  C406     1.0000 0.21688  0.35677  0.53228  Biso   1.000  C
  C407     1.0000 0.03070  0.28703  0.66787  Biso   1.000  C
  C408     1.0000 0.16926  0.47081  0.71439  Biso   1.000  C
  C409     1.0000 0.17657  0.97872  0.85889  Biso   1.000  C
  C410     1.0000 0.84646  0.13364  0.04217  Biso   1.000  C
  C411     1.0000 0.01751  0.81796  0.19932  Biso   1.000  C
  C412     1.0000 0.67712  0.97418  0.71110  Biso   1.000  C
  C413     1.0000 0.35187  0.14371  0.53766  Biso   1.000  C
  C414     1.0000 0.51814  0.79890  0.38851  Biso   1.000  C
  C415     1.0000 0.37044  0.46972  0.84640  Biso   1.000  C
  C416     1.0000 0.70430  0.63069  0.02710  Biso   1.000  C
  C417     1.0000 0.53567  0.30211  0.17790  Biso   1.000  C
  C418     1.0000 0.86873  0.45984  0.70965  Biso   1.000  C
  C419     1.0000 0.18846  0.65283  0.55193  Biso   1.000  C
  C420     1.0000 0.02071  0.31640  0.36739  Biso   1.000  C
  C421     1.0000 0.87115  0.98016  0.21622  Biso   1.000  C
  C422     1.0000 0.19980  0.84305  0.04879  Biso   1.000  C
  C423     1.0000 0.01609  0.14981  0.87195  Biso   1.000  C
  C424     1.0000 0.36971  0.99322  0.35753  Biso   1.000  C
  C425     1.0000 0.69148  0.81711  0.54280  Biso   1.000  C
  C426     1.0000 0.54188  0.16650  0.67955  Biso   1.000  C
  C427     1.0000 0.67247  0.47985  0.21406  Biso   1.000  C
  C428     1.0000 0.34653  0.34084  0.04152  Biso   1.000  C
  C429     1.0000 0.52258  0.66702  0.88316  Biso   1.000  C
  C430     1.0000 0.17194  0.48182  0.35304  Biso   1.000  C
  C431     1.0000 0.85270  0.32072  0.51621  Biso   1.000  C
  C432     1.0000 0.01260  0.65417  0.70462  Biso   1.000  C
  C433     1.0000 0.01700  0.11416  0.84261  Biso   1.000  C
  C434     1.0000 0.83776  0.97180  0.18309  Biso   1.000  C
  C435     1.0000 0.16925  0.80922  0.05667  Biso   1.000  C
  C436     1.0000 0.53599  0.13561  0.71593  Biso   1.000  C
  C437     1.0000 0.33861  0.99837  0.39044  Biso   1.000  C
  C438     1.0000 0.65700  0.78586  0.53994  Biso   1.000  C
  C439     1.0000 0.51999  0.63383  0.85068  Biso   1.000  C
  C440     1.0000 0.70606  0.48365  0.18037  Biso   1.000  C
  C441     1.0000 0.37942  0.30879  0.03993  Biso   1.000  C
  C442     1.0000 0.01955  0.61616  0.73454  Biso   1.000  C
  C443     1.0000 0.20641  0.48715  0.38424  Biso   1.000  C
  C444     1.0000 0.88839  0.28911  0.51628  Biso   1.000  C
  C445     1.0000 0.02116  0.85299  0.22965  Biso   1.000  C
  C446     1.0000 0.20530  0.98655  0.89315  Biso   1.000  C
  C447     1.0000 0.87729  0.16752  0.03671  Biso   1.000  C
  C448     1.0000 0.52153  0.83134  0.35462  Biso   1.000  C
  C449     1.0000 0.70881  0.97915  0.67628  Biso   1.000  C
  C450     1.0000 0.38508  0.17594  0.53539  Biso   1.000  C
  C451     1.0000 0.52290  0.33278  0.21203  Biso   1.000  C
  C452     1.0000 0.33853  0.47251  0.88172  Biso   1.000  C
  C453     1.0000 0.67124  0.66507  0.02717  Biso   1.000  C
  C454     1.0000 0.01486  0.35190  0.33639  Biso   1.000  C
  C455     1.0000 0.83677  0.45474  0.67623  Biso   1.000  C
  C456     1.0000 0.15377  0.68368  0.55519  Biso   1.000  C
  C457     1.0000 0.01993  0.64736  0.36759  Biso   1.000  C
  C458     1.0000 0.34678  0.00259  0.68878  Biso   1.000  C
  C459     1.0000 0.67444  0.30120  0.02763  Biso   1.000  C
  C460     1.0000 0.52038  0.63058  0.21742  Biso   1.000  C
  C461     1.0000 0.84278  0.98949  0.88409  Biso   1.000  C
  C462     1.0000 0.18752  0.32016  0.53248  Biso   1.000  C
  C463     1.0000 0.53060  0.13056  0.35065  Biso   1.000  C
  C464     1.0000 0.20195  0.48365  0.68365  Biso   1.000  C
  C465     1.0000 0.87325  0.80376  0.04314  Biso   1.000  C
  C466     1.0000 0.01446  0.15197  0.20080  Biso   1.000  C
  C467     1.0000 0.70209  0.47153  0.88006  Biso   1.000  C
  C468     1.0000 0.35845  0.81515  0.55095  Biso   1.000  C
  C469     1.0000 0.02201  0.31811  0.70189  Biso   1.000  C
  C470     1.0000 0.70000  0.97136  0.38226  Biso   1.000  C
  C471     1.0000 0.36978  0.67325  0.04078  Biso   1.000  C
  C472     1.0000 0.51919  0.33675  0.84681  Biso   1.000  C
  C473     1.0000 0.20222  0.00666  0.19028  Biso   1.000  C
  C474     1.0000 0.85853  0.65295  0.54334  Biso   1.000  C
  C475     1.0000 0.51564  0.83564  0.71958  Biso   1.000  C
  C476     1.0000 0.84310  0.48685  0.38230  Biso   1.000  C
  C477     1.0000 0.17421  0.17256  0.02941  Biso   1.000  C
  C478     1.0000 0.04625  0.82336  0.86617  Biso   1.000  C
  C479     1.0000 0.34071  0.49818  0.17985  Biso   1.000  C
  C480     1.0000 0.68391  0.15047  0.51220  Biso   1.000  C
  C481     1.0000 0.37519  0.78701  0.55305  Biso   1.000  C
  C482     1.0000 0.52445  0.35192  0.81844  Biso   1.000  C
  C483     1.0000 0.81681  0.47637  0.39888  Biso   1.000  C
  C484     1.0000 0.88760  0.77603  0.04836  Biso   1.000  C
  C485     1.0000 0.01447  0.33203  0.72872  Biso   1.000  C
  C486     1.0000 0.31572  0.50664  0.16404  Biso   1.000  C
  C487     1.0000 0.17662  0.29121  0.53041  Biso   1.000  C
  C488     1.0000 0.05637  0.83998  0.83995  Biso   1.000  C
  C489     1.0000 0.72830  0.96325  0.39569  Biso   1.000  C
  C490     1.0000 0.65668  0.27389  0.02349  Biso   1.000  C
  C491     1.0000 0.51663  0.85092  0.74694  Biso   1.000  C
  C492     1.0000 0.22908  0.00216  0.17328  Biso   1.000  C
  C493     1.0000 0.66921  0.17713  0.52129  Biso   1.000  C
  C494     1.0000 0.52098  0.61260  0.24334  Biso   1.000  C
  C495     1.0000 0.22978  0.49270  0.66756  Biso   1.000  C
  C496     1.0000 0.15795  0.19980  0.02693  Biso   1.000  C
  C497     1.0000 0.03252  0.63264  0.34183  Biso   1.000  C
  C498     1.0000 0.72938  0.46460  0.89554  Biso   1.000  C
  C499     1.0000 0.87033  0.68113  0.54780  Biso   1.000  C
  C500     1.0000 0.00848  0.13978  0.22993  Biso   1.000  C
  C501     1.0000 0.32016  0.00808  0.67328  Biso   1.000  C
  C502     1.0000 0.38826  0.69756  0.04722  Biso   1.000  C
  C503     1.0000 0.52909  0.11317  0.32487  Biso   1.000  C
  C504     1.0000 0.81548  0.99618  0.89888  Biso   1.000  C
  C505     1.0000 0.65406  0.48058  0.81977  Biso   1.000  C
  C506     1.0000 0.80477  0.60068  0.52935  Biso   1.000  C
  C507     1.0000 0.51239  0.77607  0.67127  Biso   1.000  C
  C508     1.0000 0.15180  0.45951  0.73908  Biso   1.000  C
  C509     1.0000 0.30917  0.62181  0.03830  Biso   1.000  C
  C510     1.0000 0.03598  0.76610  0.91929  Biso   1.000  C
  C511     1.0000 0.89241  0.97198  0.82625  Biso   1.000  C
  C512     1.0000 0.73952  0.09662  0.50097  Biso   1.000  C
  C513     1.0000 0.03899  0.26303  0.64907  Biso   1.000  C
  C514     1.0000 0.39657  0.99760  0.74828  Biso   1.000  C
  C515     1.0000 0.23420  0.12380  0.04078  Biso   1.000  C
  C516     1.0000 0.51154  0.27898  0.90000  Biso   1.000  C
  C517     1.0000 0.38468  0.48418  0.24106  Biso   1.000  C
  C518     1.0000 0.24387  0.37484  0.52859  Biso   1.000  C
  C519     1.0000 0.53748  0.19032  0.39659  Biso   1.000  C
  C520     1.0000 0.89223  0.50844  0.32474  Biso   1.000  C
  C521     1.0000 0.73265  0.35229  0.04509  Biso   1.000  C
  C522     1.0000 0.02756  0.20845  0.14727  Biso   1.000  C
  C523     1.0000 0.14940  0.01870  0.24859  Biso   1.000  C
  C524     1.0000 0.30075  0.86619  0.55102  Biso   1.000  C
  C525     1.0000 0.00519  0.70621  0.41686  Biso   1.000  C
  C526     1.0000 0.65145  0.98784  0.32373  Biso   1.000  C
  C527     1.0000 0.81276  0.85025  0.02623  Biso   1.000  C
  C528     1.0000 0.51740  0.69274  0.16878  Biso   1.000  C
  C529     1.0000 0.81982  0.11739  0.04910  Biso   1.000  C
  C530     1.0000 0.01716  0.78954  0.18587  Biso   1.000  C
  C531     1.0000 0.16292  0.97505  0.83150  Biso   1.000  C
  C532     1.0000 0.32437  0.12953  0.53742  Biso   1.000  C
  C533     1.0000 0.51923  0.77140  0.40447  Biso   1.000  C
  C534     1.0000 0.66181  0.97243  0.73998  Biso   1.000  C
  C535     1.0000 0.73199  0.61526  0.02419  Biso   1.000  C
  C536     1.0000 0.53998  0.27595  0.16153  Biso   1.000  C
  C537     1.0000 0.38726  0.46423  0.82035  Biso   1.000  C
  C538     1.0000 0.21728  0.63884  0.55085  Biso   1.000  C
  C539     1.0000 0.02531  0.28770  0.38248  Biso   1.000  C
  C540     1.0000 0.88312  0.46653  0.73662  Biso   1.000  C
  C541     1.0000 0.22615  0.85880  0.04163  Biso   1.000  C
  C542     1.0000 0.01948  0.17736  0.88499  Biso   1.000  C
  C543     1.0000 0.88644  0.98494  0.24282  Biso   1.000  C
  C544     1.0000 0.71893  0.83175  0.54006  Biso   1.000  C
  C545     1.0000 0.54438  0.19124  0.66030  Biso   1.000  C
  C546     1.0000 0.38461  0.99430  0.33015  Biso   1.000  C
  C547     1.0000 0.31863  0.35469  0.04305  Biso   1.000  C
  C548     1.0000 0.52450  0.69297  0.89942  Biso   1.000  C
  C549     1.0000 0.65403  0.48306  0.24071  Biso   1.000  C
  C550     1.0000 0.82398  0.33416  0.51376  Biso   1.000  C
  C551     1.0000 0.00875  0.68277  0.68948  Biso   1.000  C
  C552     1.0000 0.15393  0.47707  0.32636  Biso   1.000  C
  C553     1.0000 0.01280  0.09773  0.81719  Biso   1.000  C
  C554     1.0000 0.81119  0.96576  0.16546  Biso   1.000  C
  C555     1.0000 0.15518  0.78166  0.06256  Biso   1.000  C
  C556     1.0000 0.53589  0.12155  0.74415  Biso   1.000  C
  C557     1.0000 0.31063  0.00262  0.40467  Biso   1.000  C
  C558     1.0000 0.63901  0.76105  0.54183  Biso   1.000  C
  C559     1.0000 0.51562  0.61930  0.82362  Biso   1.000  C
  C560     1.0000 0.73422  0.48473  0.16334  Biso   1.000  C
  C561     1.0000 0.39530  0.28066  0.03822  Biso   1.000  C
  C562     1.0000 0.01991  0.59602  0.76045  Biso   1.000  C
  C563     1.0000 0.23456  0.49024  0.40008  Biso   1.000  C
  C564     1.0000 0.90687  0.26357  0.52133  Biso   1.000  C
  C565     1.0000 0.02380  0.87101  0.25450  Biso   1.000  C
  C566     1.0000 0.23134  0.98881  0.90832  Biso   1.000  C
  C567     1.0000 0.89324  0.19564  0.03313  Biso   1.000  C
  C568     1.0000 0.52386  0.84715  0.32605  Biso   1.000  C
  C569     1.0000 0.73510  0.98388  0.65956  Biso   1.000  C
  C570     1.0000 0.40231  0.20337  0.53179  Biso   1.000  C
  C571     1.0000 0.51711  0.34700  0.23945  Biso   1.000  C
  C572     1.0000 0.31140  0.47706  0.89816  Biso   1.000  C
  C573     1.0000 0.65644  0.69264  0.03257  Biso   1.000  C
  C574     1.0000 0.00809  0.37087  0.31088  Biso   1.000  C
  C575     1.0000 0.81151  0.44892  0.65900  Biso   1.000  C
  C576     1.0000 0.13514  0.70897  0.55990  Biso   1.000  C
  C577     1.0000 0.31733  0.50763  0.13312  Biso   1.000  C
  C578     1.0000 0.14562  0.28556  0.52709  Biso   1.000  C
  C579     1.0000 0.52470  0.08195  0.32599  Biso   1.000  C
  C580     1.0000 0.81868  0.47211  0.42968  Biso   1.000  C
  C581     1.0000 0.62636  0.27407  0.01732  Biso   1.000  C
  C582     1.0000 0.00844  0.10814  0.23369  Biso   1.000  C
  C583     1.0000 0.22781  0.99849  0.14125  Biso   1.000  C
  C584     1.0000 0.40673  0.78490  0.54947  Biso   1.000  C
  C585     1.0000 0.03811  0.60226  0.34086  Biso   1.000  C
  C586     1.0000 0.72832  0.96100  0.42791  Biso   1.000  C
  C587     1.0000 0.91853  0.77773  0.05369  Biso   1.000  C
  C588     1.0000 0.51883  0.58069  0.24307  Biso   1.000  C
  C589     1.0000 0.73123  0.46658  0.92597  Biso   1.000  C
  C590     1.0000 0.90101  0.68444  0.55249  Biso   1.000  C
  C591     1.0000 0.52029  0.88143  0.74624  Biso   1.000  C
  C592     1.0000 0.22965  0.50255  0.63809  Biso   1.000  C
  C593     1.0000 0.41968  0.69443  0.04803  Biso   1.000  C
  C594     1.0000 0.05398  0.87109  0.83935  Biso   1.000  C
  C595     1.0000 0.81527  0.00019  0.93023  Biso   1.000  C
  C596     1.0000 0.63865  0.17831  0.52270  Biso   1.000  C
  C597     1.0000 0.00997  0.36350  0.72923  Biso   1.000  C
  C598     1.0000 0.32041  0.00811  0.64182  Biso   1.000  C
  C599     1.0000 0.12756  0.19819  0.01906  Biso   1.000  C
  C600     1.0000 0.52330  0.38347  0.81750  Biso   1.000  C
  C601     1.0000 0.22969  0.98931  0.93929  Biso   1.000  C
  C602     1.0000 0.92417  0.19680  0.02682  Biso   1.000  C
  C603     1.0000 0.02445  0.90242  0.25068  Biso   1.000  C
  C604     1.0000 0.73288  0.98172  0.62840  Biso   1.000  C
  C605     1.0000 0.43410  0.20119  0.53212  Biso   1.000  C
  C606     1.0000 0.51895  0.87846  0.32572  Biso   1.000  C
  C607     1.0000 0.31275  0.48129  0.92851  Biso   1.000  C
  C608     1.0000 0.62441  0.69302  0.03268  Biso   1.000  C
  C609     1.0000 0.51509  0.37927  0.23999  Biso   1.000  C
  C610     1.0000 0.81257  0.44900  0.62762  Biso   1.000  C
  C611     1.0000 0.10375  0.70469  0.56215  Biso   1.000  C
  C612     1.0000 0.00952  0.40293  0.31477  Biso   1.000  C
  C613     1.0000 0.81265  0.96642  0.13378  Biso   1.000  C
  C614     1.0000 0.12413  0.78097  0.06601  Biso   1.000  C
  C615     1.0000 0.01003  0.06576  0.81770  Biso   1.000  C
  C616     1.0000 0.30995  0.99759  0.43607  Biso   1.000  C
  C617     1.0000 0.60718  0.76307  0.54177  Biso   1.000  C
  C618     1.0000 0.53663  0.08850  0.74488  Biso   1.000  C
  C619     1.0000 0.73075  0.48734  0.13225  Biso   1.000  C
  C620     1.0000 0.42660  0.28124  0.04119  Biso   1.000  C
  C621     1.0000 0.51494  0.58774  0.82296  Biso   1.000  C
  C622     1.0000 0.23482  0.49206  0.43153  Biso   1.000  C
  C623     1.0000 0.93766  0.26739  0.52430  Biso   1.000  C
  C624     1.0000 0.02082  0.56422  0.75665  Biso   1.000  C
  C625     1.0000 0.01432  0.18062  0.91557  Biso   1.000  C
  C626     1.0000 0.91754  0.98904  0.24308  Biso   1.000  C
  C627     1.0000 0.22575  0.88905  0.03481  Biso   1.000  C
  C628     1.0000 0.54768  0.18835  0.62865  Biso   1.000  C
  C629     1.0000 0.41534  0.98881  0.32686  Biso   1.000  C
  C630     1.0000 0.71923  0.86299  0.53842  Biso   1.000  C
  C631     1.0000 0.52814  0.69391  0.93071  Biso   1.000  C
  C632     1.0000 0.62336  0.48280  0.24084  Biso   1.000  C
  C633     1.0000 0.31708  0.38668  0.03880  Biso   1.000  C
  C634     1.0000 0.00210  0.68423  0.65818  Biso   1.000  C
  C635     1.0000 0.12319  0.47842  0.32743  Biso   1.000  C
  C636     1.0000 0.82269  0.36571  0.51560  Biso   1.000  C
  C637     1.0000 0.01720  0.78648  0.15506  Biso   1.000  C
  C638     1.0000 0.13094  0.97147  0.82823  Biso   1.000  C
  C639     1.0000 0.82086  0.08656  0.05087  Biso   1.000  C
  C640     1.0000 0.51875  0.77111  0.43592  Biso   1.000  C
  C641     1.0000 0.62974  0.97251  0.73964  Biso   1.000  C
  C642     1.0000 0.32223  0.09782  0.53600  Biso   1.000  C
  C643     1.0000 0.54133  0.27828  0.13062  Biso   1.000  C
  C644     1.0000 0.41822  0.46970  0.82051  Biso   1.000  C
  C645     1.0000 0.72995  0.58292  0.02258  Biso   1.000  C
  C646     1.0000 0.02984  0.28537  0.41363  Biso   1.000  C
  C647     1.0000 0.91397  0.46553  0.73699  Biso   1.000  C
  C648     1.0000 0.21941  0.60796  0.54568  Biso   1.000  C
  C649     1.0000 0.00147  0.70370  0.44898  Biso   1.000  C
  C650     1.0000 0.42795  0.99466  0.74860  Biso   1.000  C
  C651     1.0000 0.73148  0.38375  0.04136  Biso   1.000  C
  C652     1.0000 0.51870  0.69210  0.13681  Biso   1.000  C
  C653     1.0000 0.92324  0.96647  0.82863  Biso   1.000  C
  C654     1.0000 0.24034  0.40513  0.52737  Biso   1.000  C
  C655     1.0000 0.53444  0.19110  0.42885  Biso   1.000  C
  C656     1.0000 0.12074  0.46078  0.74099  Biso   1.000  C
  C657     1.0000 0.81078  0.88129  0.02561  Biso   1.000  C
  C658     1.0000 0.03231  0.20249  0.11657  Biso   1.000  C
  C659     1.0000 0.62287  0.48671  0.82006  Biso   1.000  C
  C660     1.0000 0.30381  0.89798  0.54901  Biso   1.000  C
  C661     1.0000 0.04215  0.26623  0.61751  Biso   1.000  C
  C662     1.0000 0.62000  0.98962  0.32519  Biso   1.000  C
  C663     1.0000 0.31036  0.58950  0.03875  Biso   1.000  C
  C664     1.0000 0.50923  0.28054  0.93086  Biso   1.000  C
  C665     1.0000 0.11851  0.01443  0.24858  Biso   1.000  C
  C666     1.0000 0.80771  0.56937  0.52864  Biso   1.000  C
  C667     1.0000 0.51107  0.77640  0.64010  Biso   1.000  C
  C668     1.0000 0.92297  0.51445  0.32323  Biso   1.000  C
  C669     1.0000 0.23335  0.09285  0.04677  Biso   1.000  C
  C670     1.0000 0.02985  0.76731  0.94989  Biso   1.000  C
  C671     1.0000 0.41461  0.47790  0.24151  Biso   1.000  C
  C672     1.0000 0.73723  0.06476  0.50562  Biso   1.000  C
  C673     1.0000 0.22236  0.98703  0.84552  Biso   1.000  C
  C674     1.0000 0.82964  0.17757  0.04102  Biso   1.000  C
  C675     1.0000 0.02154  0.80617  0.24773  Biso   1.000  C
  C676     1.0000 0.72392  0.97742  0.72241  Biso   1.000  C
  C677     1.0000 0.33796  0.19160  0.53863  Biso   1.000  C
  C678     1.0000 0.52241  0.78343  0.34390  Biso   1.000  C
  C679     1.0000 0.32504  0.46261  0.83468  Biso   1.000  C
  C680     1.0000 0.71768  0.67808  0.02970  Biso   1.000  C
  C681     1.0000 0.53294  0.28712  0.22521  Biso   1.000  C
  C682     1.0000 0.82045  0.45623  0.72255  Biso   1.000  C
  C683     1.0000 0.19970  0.70020  0.55947  Biso   1.000  C
  C684     1.0000 0.01549  0.30663  0.31936  Biso   1.000  C
  C685     1.0000 0.82337  0.97337  0.22881  Biso   1.000  C
  C686     1.0000 0.21603  0.79641  0.05393  Biso   1.000  C
  C687     1.0000 0.01978  0.15828  0.82299  Biso   1.000  C
  C688     1.0000 0.32379  0.00510  0.34425  Biso   1.000  C
  C689     1.0000 0.70335  0.77108  0.53455  Biso   1.000  C
  C690     1.0000 0.53305  0.18235  0.72510  Biso   1.000  C
  C691     1.0000 0.72065  0.48137  0.22703  Biso   1.000  C
  C692     1.0000 0.33349  0.29359  0.04038  Biso   1.000  C
  C693     1.0000 0.51814  0.68124  0.83728  Biso   1.000  C
  C694     1.0000 0.21700  0.48442  0.33690  Biso   1.000  C
  C695     1.0000 0.84256  0.27220  0.51369  Biso   1.000  C
  C696     1.0000 0.02015  0.66227  0.75239  Biso   1.000  C
  C697     1.0000 0.71415  0.97543  0.33489  Biso   1.000  C
  C698     1.0000 0.32475  0.68893  0.04516  Biso   1.000  C
  C699     1.0000 0.02472  0.26951  0.71358  Biso   1.000  C
  C700     1.0000 0.21621  0.01105  0.23634  Biso   1.000  C
  C701     1.0000 0.81078  0.66339  0.53298  Biso   1.000  C
  C702     1.0000 0.52220  0.29064  0.83582  Biso   1.000  C
  C703     1.0000 0.82993  0.49074  0.33649  Biso   1.000  C
  C704     1.0000 0.21894  0.18803  0.03514  Biso   1.000  C
  C705     1.0000 0.51351  0.78778  0.73248  Biso   1.000  C
  C706     1.0000 0.32408  0.49588  0.22680  Biso   1.000  C
  C707     1.0000 0.73189  0.16385  0.50974  Biso   1.000  C
  C708     1.0000 0.04250  0.77647  0.85597  Biso   1.000  C
  C709     1.0000 0.33081  0.00295  0.73450  Biso   1.000  C
  C710     1.0000 0.71991  0.28734  0.03780  Biso   1.000  C
  C711     1.0000 0.01625  0.69506  0.35471  Biso   1.000  C
  C712     1.0000 0.83113  0.98197  0.83627  Biso   1.000  C
  C713     1.0000 0.23512  0.30997  0.53290  Biso   1.000  C
  C714     1.0000 0.52216  0.67749  0.23120  Biso   1.000  C
  C715     1.0000 0.21497  0.46883  0.72884  Biso   1.000  C
  C716     1.0000 0.82632  0.78842  0.03875  Biso   1.000  C
  C717     1.0000 0.53300  0.17541  0.33420  Biso   1.000  C
  C718     1.0000 0.71488  0.46836  0.83262  Biso   1.000  C
  C719     1.0000 0.31135  0.80143  0.55746  Biso   1.000  C
  C720     1.0000 0.01862  0.19777  0.21285  Biso   1.000  C
  C721     1.0000 0.54167  0.78608  0.31865  Biso   1.000  C
  C722     1.0000 0.32730  0.47643  0.80503  Biso   1.000  C
  C723     1.0000 0.81514  0.27267  0.53086  Biso   1.000  C
  C724     1.0000 0.00011  0.78287  0.24699  Biso   1.000  C
  C725     1.0000 0.79436  0.47298  0.71803  Biso   1.000  C
  C726     1.0000 0.30724  0.29741  0.02333  Biso   1.000  C
  C727     1.0000 0.99785  0.27990  0.32302  Biso   1.000  C
  C728     1.0000 0.24341  0.01099  0.84867  Biso   1.000  C
  C729     1.0000 0.72996  0.77025  0.55127  Biso   1.000  C
  C730     1.0000 0.51197  0.28519  0.24837  Biso   1.000  C
  C731     1.0000 0.75357  0.96601  0.71716  Biso   1.000  C
  C732     1.0000 0.24076  0.79836  0.03258  Biso   1.000  C
  C733     1.0000 0.51297  0.17975  0.75069  Biso   1.000  C
  C734     1.0000 0.71659  0.46590  0.25420  Biso   1.000  C
  C735     1.0000 0.19557  0.72958  0.54533  Biso   1.000  C
  C736     1.0000 0.00028  0.18399  0.82368  Biso   1.000  C
  C737     1.0000 0.24682  0.47187  0.33874  Biso   1.000  C
  C738     1.0000 0.74439  0.67247  0.04499  Biso   1.000  C
  C739     1.0000 0.03943  0.65783  0.77783  Biso   1.000  C
  C740     1.0000 0.82885  0.95926  0.25635  Biso   1.000  C
  C741     1.0000 0.30940  0.19068  0.52426  Biso   1.000  C
  C742     1.0000 0.53501  0.68029  0.81057  Biso   1.000  C
  C743     1.0000 0.32287  0.98738  0.31787  Biso   1.000  C
  C744     1.0000 0.83289  0.20514  0.05383  Biso   1.000  C
  C745     1.0000 0.02892  0.72415  0.36098  Biso   1.000  C
  C746     1.0000 0.30322  0.98855  0.72930  Biso   1.000  C
  C747     1.0000 0.74231  0.29031  0.05968  Biso   1.000  C
  C748     1.0000 0.53588  0.70629  0.22644  Biso   1.000  C
  C749     1.0000 0.83325  0.95994  0.81267  Biso   1.000  C
  C750     1.0000 0.26055  0.31129  0.55098  Biso   1.000  C
  C751     1.0000 0.54696  0.17286  0.30733  Biso   1.000  C
  C752     1.0000 0.24399  0.45905  0.72124  Biso   1.000  C
  C753     1.0000 0.80409  0.78873  0.01648  Biso   1.000  C
  C754     1.0000 0.02833  0.19406  0.24285  Biso   1.000  C
  C755     1.0000 0.70881  0.45484  0.80400  Biso   1.000  C
  C756     1.0000 0.28709  0.80918  0.57716  Biso   1.000  C
  C757     1.0000 0.01410  0.24133  0.70561  Biso   1.000  C
  C758     1.0000 0.71706  0.99808  0.31535  Biso   1.000  C
  C759     1.0000 0.29715  0.68276  0.05795  Biso   1.000  C
  C760     1.0000 0.54365  0.29319  0.81183  Biso   1.000  C
  C761     1.0000 0.24428  0.02286  0.22977  Biso   1.000  C
  C762     1.0000 0.81542  0.69091  0.51766  Biso   1.000  C
  C763     1.0000 0.49349  0.76305  0.72919  Biso   1.000  C
  C764     1.0000 0.79902  0.49802  0.34113  Biso   1.000  C
  C765     1.0000 0.24340  0.18529  0.05563  Biso   1.000  C
  C766     1.0000 0.02602  0.78067  0.82970  Biso   1.000  C
  C767     1.0000 0.32827  0.51007  0.25484  Biso   1.000  C
  C768     1.0000 0.72634  0.19354  0.50078  Biso   1.000  C
  C769     1.0000 0.50013  0.70572  0.84266  Biso   1.000  C
  C770     1.0000 0.82344  0.44176  0.75060  Biso   1.000  C
  C771     1.0000 0.69691  0.74488  0.51646  Biso   1.000  C
  C772     1.0000 0.00619  0.68923  0.75133  Biso   1.000  C
  C773     1.0000 0.29824  0.44725  0.83951  Biso   1.000  C
  C774     1.0000 0.21745  0.77292  0.07518  Biso   1.000  C
  C775     1.0000 0.04051  0.15571  0.79772  Biso   1.000  C
  C776     1.0000 0.71983  0.99102  0.74977  Biso   1.000  C
  C777     1.0000 0.84856  0.24529  0.49507  Biso   1.000  C
  C778     1.0000 0.54971  0.20919  0.72428  Biso   1.000  C
  C779     1.0000 0.22587  0.96745  0.82029  Biso   1.000  C
  C780     1.0000 0.33513  0.26676  0.05626  Biso   1.000  C
  C781     1.0000 0.55540  0.26406  0.22403  Biso   1.000  C
  C782     1.0000 0.20966  0.50138  0.31125  Biso   1.000  C
  C783     1.0000 0.34437  0.21956  0.55164  Biso   1.000  C
  C784     1.0000 0.02685  0.31259  0.29043  Biso   1.000  C
  C785     1.0000 0.74749  0.49829  0.22345  Biso   1.000  C
  C786     1.0000 0.80111  0.17171  0.02926  Biso   1.000  C
  C787     1.0000 0.04049  0.80713  0.27299  Biso   1.000  C
  C788     1.0000 0.30226  0.02925  0.34616  Biso   1.000  C
  C789     1.0000 0.22388  0.69592  0.57940  Biso   1.000  C
  C790     1.0000 0.50481  0.75881  0.34670  Biso   1.000  C
  C791     1.0000 0.79484  0.98483  0.22192  Biso   1.000  C
  C792     1.0000 0.71471  0.70739  0.01812  Biso   1.000  C
  C793     1.0000 0.51828  0.20385  0.33919  Biso   1.000  C
  C794     1.0000 0.29451  0.48351  0.22198  Biso   1.000  C
  C795     1.0000 0.23242  0.28473  0.51474  Biso   1.000  C
  C796     1.0000 0.00438  0.22513  0.20538  Biso   1.000  C
  C797     1.0000 0.83674  0.47917  0.30697  Biso   1.000  C
  C798     1.0000 0.71920  0.26182  0.01790  Biso   1.000  C
  C799     1.0000 0.00623  0.69064  0.32586  Biso   1.000  C
  C800     1.0000 0.21204  0.00374  0.26605  Biso   1.000  C
  C801     1.0000 0.31101  0.77135  0.54551  Biso   1.000  C
  C802     1.0000 0.50647  0.67294  0.25877  Biso   1.000  C
  C803     1.0000 0.73272  0.94981  0.33261  Biso   1.000  C
  C804     1.0000 0.82614  0.76328  0.06041  Biso   1.000  C
  C805     1.0000 0.53273  0.78956  0.75668  Biso   1.000  C
  C806     1.0000 0.74416  0.48195  0.83656  Biso   1.000  C
  C807     1.0000 0.78303  0.65519  0.54491  Biso   1.000  C
  C808     1.0000 0.05445  0.74705  0.86112  Biso   1.000  C
  C809     1.0000 0.21005  0.47829  0.75823  Biso   1.000  C
  C810     1.0000 0.33025  0.71754  0.03470  Biso   1.000  C
  C811     1.0000 0.03219  0.27244  0.74443  Biso   1.000  C
  C812     1.0000 0.80820  0.00311  0.83290  Biso   1.000  C
  C813     1.0000 0.76149  0.15713  0.51866  Biso   1.000  C
  C814     1.0000 0.50655  0.26364  0.83643  Biso   1.000  C
  C815     1.0000 0.33487  0.01711  0.76278  Biso   1.000  C
  C816     1.0000 0.21703  0.21510  0.01889  Biso   1.000  C
  C817     1.0000 0.99964  0.20264  0.79906  Biso   1.000  C
  C818     1.0000 0.80707  0.95798  0.27792  Biso   1.000  C
  C819     1.0000 0.26327  0.77820  0.03382  Biso   1.000  C
  C820     1.0000 0.51104  0.20035  0.77168  Biso   1.000  C
  C821     1.0000 0.30236  0.99126  0.29557  Biso   1.000  C
  C822     1.0000 0.75129  0.74789  0.54745  Biso   1.000  C
  C823     1.0000 0.53140  0.70202  0.78972  Biso   1.000  C
  C824     1.0000 0.73785  0.46269  0.27474  Biso   1.000  C
  C825     1.0000 0.28480  0.27707  0.02373  Biso   1.000  C
  C826     1.0000 0.04400  0.68070  0.79701  Biso   1.000  C
  C827     1.0000 0.26738  0.47849  0.31787  Biso   1.000  C
  C828     1.0000 0.79439  0.25062  0.52806  Biso   1.000  C
  C829     1.0000 0.99903  0.76261  0.26872  Biso   1.000  C
  C830     1.0000 0.26423  0.01633  0.82645  Biso   1.000  C
  C831     1.0000 0.81164  0.22545  0.05508  Biso   1.000  C
  C832     1.0000 0.53982  0.76668  0.29680  Biso   1.000  C
  C833     1.0000 0.77512  0.96526  0.73942  Biso   1.000  C
  C834     1.0000 0.29235  0.21533  0.51970  Biso   1.000  C
  C835     1.0000 0.51299  0.26368  0.26954  Biso   1.000  C
  C836     1.0000 0.30555  0.47341  0.78531  Biso   1.000  C
  C837     1.0000 0.76389  0.69506  0.04842  Biso   1.000  C
  C838     1.0000 0.99571  0.25949  0.30038  Biso   1.000  C
  C839     1.0000 0.77378  0.47530  0.73928  Biso   1.000  C
  C840     1.0000 0.21681  0.74964  0.55044  Biso   1.000  C
  C841     1.0000 0.24967  0.97208  0.80126  Biso   1.000  C
  C842     1.0000 0.77971  0.19211  0.03184  Biso   1.000  C
  C843     1.0000 0.04168  0.78363  0.29226  Biso   1.000  C
  C844     1.0000 0.74105  0.99169  0.77108  Biso   1.000  C
  C845     1.0000 0.32595  0.24368  0.54735  Biso   1.000  C
  C846     1.0000 0.50542  0.73867  0.32525  Biso   1.000  C
  C847     1.0000 0.27448  0.44941  0.82007  Biso   1.000  C
  C848     1.0000 0.73531  0.72866  0.02141  Biso   1.000  C
  C849     1.0000 0.55576  0.24282  0.24587  Biso   1.000  C
  C850     1.0000 0.80276  0.44611  0.77316  Biso   1.000  C
  C851     1.0000 0.24456  0.71711  0.58355  Biso   1.000  C
  C852     1.0000 0.02465  0.29207  0.26873  Biso   1.000  C
  C853     1.0000 0.77306  0.98257  0.24343  Biso   1.000  C
  C854     1.0000 0.24000  0.75452  0.07609  Biso   1.000  C
  C855     1.0000 0.03913  0.17550  0.77550  Biso   1.000  C
  C856     1.0000 0.28342  0.03441  0.32157  Biso   1.000  C
  C857     1.0000 0.71891  0.72385  0.51387  Biso   1.000  C
  C858     1.0000 0.54764  0.23083  0.74664  Biso   1.000  C
  C859     1.0000 0.76827  0.49732  0.24519  Biso   1.000  C
  C860     1.0000 0.31307  0.24577  0.05395  Biso   1.000  C
  C861     1.0000 0.49565  0.72620  0.82068  Biso   1.000  C
  C862     1.0000 0.23047  0.50604  0.28915  Biso   1.000  C
  C863     1.0000 0.82731  0.22301  0.49516  Biso   1.000  C
  C864     1.0000 0.00943  0.71018  0.77237  Biso   1.000  C
  C865     1.0000 0.73011  0.45300  0.78230  Biso   1.000  C
  C866     1.0000 0.79219  0.70901  0.51522  Biso   1.000  C
  C867     1.0000 0.49132  0.74268  0.75097  Biso   1.000  C
  C868     1.0000 0.26440  0.45451  0.74373  Biso   1.000  C
  C869     1.0000 0.27676  0.70407  0.05954  Biso   1.000  C
  C870     1.0000 0.02318  0.75770  0.80953  Biso   1.000  C
  C871     1.0000 0.81376  0.95967  0.78905  Biso   1.000  C
  C872     1.0000 0.74911  0.21299  0.50137  Biso   1.000  C
  C873     1.0000 0.01329  0.21759  0.72578  Biso   1.000  C
  C874     1.0000 0.28314  0.98809  0.75206  Biso   1.000  C
  C875     1.0000 0.26464  0.20648  0.05730  Biso   1.000  C
  C876     1.0000 0.54727  0.26991  0.79231  Biso   1.000  C
  C877     1.0000 0.30562  0.51036  0.27422  Biso   1.000  C
  C878     1.0000 0.28288  0.29000  0.54997  Biso   1.000  C
  C879     1.0000 0.54744  0.19391  0.28567  Biso   1.000  C
  C880     1.0000 0.77854  0.49426  0.31973  Biso   1.000  C
  C881     1.0000 0.76257  0.26790  0.06183  Biso   1.000  C
  C882     1.0000 0.02417  0.21684  0.26244  Biso   1.000  C
  C883     1.0000 0.26763  0.02484  0.25004  Biso   1.000  C
  C884     1.0000 0.26370  0.79027  0.58024  Biso   1.000  C
  C885     1.0000 0.02828  0.74693  0.34115  Biso   1.000  C
  C886     1.0000 0.73960  0.99847  0.29501  Biso   1.000  C
  C887     1.0000 0.78212  0.76856  0.01855  Biso   1.000  C
  C888     1.0000 0.53483  0.72628  0.24898  Biso   1.000  C
  C889     1.0000 0.75270  0.94903  0.31131  Biso   1.000  C
  C890     1.0000 0.30995  0.73854  0.03834  Biso   1.000  C
  C891     1.0000 0.02893  0.24884  0.76292  Biso   1.000  C
  C892     1.0000 0.23390  0.00599  0.28752  Biso   1.000  C
  C893     1.0000 0.75933  0.67422  0.54284  Biso   1.000  C
  C894     1.0000 0.51085  0.24230  0.81715  Biso   1.000  C
  C895     1.0000 0.81577  0.47657  0.28652  Biso   1.000  C
  C896     1.0000 0.23971  0.23575  0.01926  Biso   1.000  C
  C897     1.0000 0.53194  0.76685  0.77700  Biso   1.000  C
  C898     1.0000 0.27197  0.48428  0.24286  Biso   1.000  C
  C899     1.0000 0.78308  0.17857  0.51890  Biso   1.000  C
  C900     1.0000 0.04718  0.72521  0.84299  Biso   1.000  C
  C901     1.0000 0.31360  0.01455  0.78452  Biso   1.000  C
  C902     1.0000 0.74078  0.24063  0.02285  Biso   1.000  C
  C903     1.0000 0.00907  0.71205  0.30555  Biso   1.000  C
  C904     1.0000 0.78894  0.00156  0.80899  Biso   1.000  C
  C905     1.0000 0.25468  0.26465  0.51249  Biso   1.000  C
  C906     1.0000 0.50472  0.69470  0.28019  Biso   1.000  C
  C907     1.0000 0.23098  0.47588  0.77911  Biso   1.000  C
  C908     1.0000 0.80332  0.74276  0.05924  Biso   1.000  C
  C909     1.0000 0.51939  0.22430  0.31688  Biso   1.000  C
  C910     1.0000 0.76347  0.48165  0.81334  Biso   1.000  C
  C911     1.0000 0.28739  0.75424  0.54967  Biso   1.000  C
  C912     1.0000 0.00108  0.24622  0.22616  Biso   1.000  C
  C913     1.0000 0.78056  0.46479  0.76632  Biso   1.000  C
  C914     1.0000 0.74544  0.72638  0.52925  Biso   1.000  C
  C915     1.0000 0.51304  0.72446  0.79638  Biso   1.000  C
  C916     1.0000 0.27941  0.45888  0.79226  Biso   1.000  C
  C917     1.0000 0.26310  0.75639  0.05476  Biso   1.000  C
  C918     1.0000 0.02847  0.70609  0.79499  Biso   1.000  C
  C919     1.0000 0.76893  0.97956  0.76490  Biso   1.000  C
  C920     1.0000 0.80101  0.22719  0.50990  Biso   1.000  C
  C921     1.0000 0.01969  0.19860  0.77728  Biso   1.000  C
  C922     1.0000 0.26824  0.99606  0.80389  Biso   1.000  C
  C923     1.0000 0.28883  0.25094  0.03783  Biso   1.000  C
  C924     1.0000 0.52914  0.22515  0.76988  Biso   1.000  C
  C925     1.0000 0.25894  0.49605  0.29328  Biso   1.000  C
  C926     1.0000 0.29989  0.24136  0.53156  Biso   1.000  C
  C927     1.0000 0.53422  0.24228  0.26799  Biso   1.000  C
  C928     1.0000 0.76445  0.47884  0.26968  Biso   1.000  C
  C929     1.0000 0.78453  0.21954  0.04347  Biso   1.000  C
  C930     1.0000 0.00836  0.26719  0.27423  Biso   1.000  C
  C931     1.0000 0.28436  0.01535  0.29859  Biso   1.000  C
  C932     1.0000 0.24044  0.74364  0.56946  Biso   1.000  C
  C933     1.0000 0.01894  0.76293  0.29114  Biso   1.000  C
  C934     1.0000 0.77971  0.97053  0.27025  Biso   1.000  C
  C935     1.0000 0.75990  0.72217  0.03738  Biso   1.000  C
  C936     1.0000 0.52238  0.74218  0.29923  Biso   1.000  C
  C937     1.0000 0.76185  0.24347  0.04309  Biso   1.000  C
  C938     1.0000 0.01885  0.73968  0.31337  Biso   1.000  C
  C939     1.0000 0.28832  0.99935  0.77851  Biso   1.000  C
  C940     1.0000 0.27974  0.26666  0.52970  Biso   1.000  C
  C941     1.0000 0.52072  0.72142  0.27488  Biso   1.000  C
  C942     1.0000 0.79116  0.98023  0.78800  Biso   1.000  C
  C943     1.0000 0.78190  0.74483  0.03898  Biso   1.000  C
  C944     1.0000 0.53191  0.21990  0.28990  Biso   1.000  C
  C945     1.0000 0.25717  0.46219  0.77156  Biso   1.000  C
  C946     1.0000 0.26562  0.76280  0.56777  Biso   1.000  C
  C947     1.0000 0.00995  0.24243  0.25484  Biso   1.000  C
  C948     1.0000 0.75590  0.46825  0.78756  Biso   1.000  C
  C949     1.0000 0.28374  0.73184  0.05159  Biso   1.000  C
  C950     1.0000 0.02080  0.22126  0.75467  Biso   1.000  C
  C951     1.0000 0.75627  0.97307  0.29204  Biso   1.000  C
  C952     1.0000 0.76521  0.70062  0.52697  Biso   1.000  C
  C953     1.0000 0.53168  0.24423  0.79541  Biso   1.000  C
  C954     1.0000 0.26037  0.01808  0.27900  Biso   1.000  C
  C955     1.0000 0.26295  0.23125  0.03811  Biso   1.000  C
  C956     1.0000 0.51100  0.74620  0.77492  Biso   1.000  C
  C957     1.0000 0.78633  0.48186  0.29398  Biso   1.000  C
  C958     1.0000 0.77741  0.20637  0.50927  Biso   1.000  C
  C959     1.0000 0.03186  0.73012  0.81675  Biso   1.000  C
  C960     1.0000 0.27920  0.49739  0.26838  Biso   1.000  C
  Cu1      1.0000 0.01873  0.47010  0.68425  Biso   1.000  Cu
  Cu2      1.0000 0.67549  0.97295  0.53195  Biso   1.000  Cu
  Cu3      1.0000 0.51727  0.64164  0.03099  Biso   1.000  Cu
  Cu4      1.0000 0.51937  0.48327  0.87309  Biso   1.000  Cu
  Cu5      1.0000 0.17328  0.99401  0.04225  Biso   1.000  Cu
  Cu6      1.0000 0.00816  0.64220  0.55054  Biso   1.000  Cu
  Cu7      1.0000 0.52885  0.98320  0.68931  Biso   1.000  Cu
  Cu8      1.0000 0.86818  0.47303  0.53148  Biso   1.000  Cu
  Cu9      1.0000 0.02666  0.13971  0.02053  Biso   1.000  Cu
  Cu10     1.0000 0.02554  0.97303  0.88461  Biso   1.000  Cu
  Cu11     1.0000 0.37113  0.49088  0.03071  Biso   1.000  Cu
  Cu12     1.0000 0.53187  0.13308  0.53265  Biso   1.000  Cu
  Cu13     1.0000 0.02211  0.49527  0.38151  Biso   1.000  Cu
  Cu14     1.0000 0.36912  0.99431  0.53817  Biso   1.000  Cu
  Cu15     1.0000 0.52846  0.33454  0.02940  Biso   1.000  Cu
  Cu16     1.0000 0.52078  0.48118  0.18883  Biso   1.000  Cu
  Cu17     1.0000 0.86771  0.98320  0.03313  Biso   1.000  Cu
  Cu18     1.0000 0.03426  0.33058  0.51899  Biso   1.000  Cu
  Cu19     1.0000 0.51802  0.98099  0.38110  Biso   1.000  Cu
  Cu20     1.0000 0.17732  0.50193  0.53352  Biso   1.000  Cu
  Cu21     1.0000 0.01953  0.83188  0.04833  Biso   1.000  Cu
  Cu22     1.0000 0.02149  0.00219  0.18689  Biso   1.000  Cu
  Cu23     1.0000 0.67376  0.48273  0.02897  Biso   1.000  Cu
  Cu24     1.0000 0.51123  0.82898  0.53617  Biso   1.000  Cu
  Cu25     1.0000 0.22934  0.99028  0.04170  Biso   1.000  Cu
  Cu26     1.0000 0.02768  0.19389  0.01211  Biso   1.000  Cu
  Cu27     1.0000 0.01891  0.00506  0.24231  Biso   1.000  Cu
  Cu28     1.0000 0.72895  0.96656  0.53033  Biso   1.000  Cu
  Cu29     1.0000 0.53787  0.18675  0.53145  Biso   1.000  Cu
  Cu30     1.0000 0.51820  0.98131  0.32628  Biso   1.000  Cu
  Cu31     1.0000 0.31694  0.48996  0.03017  Biso   1.000  Cu
  Cu32     1.0000 0.51978  0.69499  0.03585  Biso   1.000  Cu
  Cu33     1.0000 0.51996  0.47873  0.24170  Biso   1.000  Cu
  Cu34     1.0000 0.81444  0.46768  0.52825  Biso   1.000  Cu
  Cu35     1.0000 0.00270  0.69607  0.55348  Biso   1.000  Cu
  Cu36     1.0000 0.02385  0.50470  0.32721  Biso   1.000  Cu
  Cu37     1.0000 0.81360  0.98397  0.03490  Biso   1.000  Cu
  Cu38     1.0000 0.01840  0.77737  0.05396  Biso   1.000  Cu
  Cu39     1.0000 0.02792  0.96668  0.83120  Biso   1.000  Cu
  Cu40     1.0000 0.31519  0.99898  0.54194  Biso   1.000  Cu
  Cu41     1.0000 0.50401  0.77477  0.53716  Biso   1.000  Cu
  Cu42     1.0000 0.53103  0.98184  0.74363  Biso   1.000  Cu
  Cu43     1.0000 0.72966  0.48331  0.02758  Biso   1.000  Cu
  Cu44     1.0000 0.52581  0.27898  0.02991  Biso   1.000  Cu
  Cu45     1.0000 0.51941  0.48577  0.82015  Biso   1.000  Cu
  Cu46     1.0000 0.23139  0.50665  0.53459  Biso   1.000  Cu
  Cu47     1.0000 0.04083  0.27678  0.51569  Biso   1.000  Cu
  Cu48     1.0000 0.01729  0.46279  0.73942  Biso   1.000  Cu
  H1       1.0000 0.24501  0.79432  0.59439  Biso   1.000  H
  H2       1.0000 0.56534  0.27377  0.77721  Biso   1.000  H
  H3       1.0000 0.75675  0.50055  0.32599  Biso   1.000  H
  H4       1.0000 0.76401  0.76838  0.00277  Biso   1.000  H
  H5       1.0000 0.00751  0.19683  0.71829  Biso   1.000  H
  H6       1.0000 0.30779  0.52188  0.29488  Biso   1.000  H
  H7       1.0000 0.30014  0.29284  0.56637  Biso   1.000  H
  H8       1.0000 0.01001  0.76204  0.79040  Biso   1.000  H
  H9       1.0000 0.74211  0.01716  0.27985  Biso   1.000  H
  H10      1.0000 0.77656  0.26856  0.08163  Biso   1.000  H
  H11      1.0000 0.47685  0.72413  0.74702  Biso   1.000  H
  H12      1.0000 0.28711  0.03662  0.24600  Biso   1.000  H
  H13      1.0000 0.74301  0.23459  0.49382  Biso   1.000  H
  H14      1.0000 0.54676  0.74554  0.24454  Biso   1.000  H
  H15      1.0000 0.28416  0.44285  0.73900  Biso   1.000  H
  H16      1.0000 0.28293  0.20223  0.07186  Biso   1.000  H
  H17      1.0000 0.03646  0.76799  0.34732  Biso   1.000  H
  H18      1.0000 0.72821  0.44066  0.76205  Biso   1.000  H
  H19      1.0000 0.79467  0.73020  0.50280  Biso   1.000  H
  H20      1.0000 0.03090  0.21363  0.28478  Biso   1.000  H
  H21      1.0000 0.26270  0.97687  0.74954  Biso   1.000  H
  H22      1.0000 0.25573  0.69702  0.06862  Biso   1.000  H
  H23      1.0000 0.55990  0.18940  0.26649  Biso   1.000  H
  H24      1.0000 0.81491  0.94283  0.77354  Biso   1.000  H
  H25      1.0000 0.28244  0.03291  0.82922  Biso   1.000  H
  H26      1.0000 0.81633  0.24598  0.06563  Biso   1.000  H
  H27      1.0000 0.98148  0.74624  0.26623  Biso   1.000  H
  H28      1.0000 0.79565  0.95361  0.73642  Biso   1.000  H
  H29      1.0000 0.27166  0.21193  0.50739  Biso   1.000  H
  H30      1.0000 0.55549  0.77022  0.27916  Biso   1.000  H
  H31      1.0000 0.30525  0.48773  0.76589  Biso   1.000  H
  H32      1.0000 0.78608  0.69053  0.05726  Biso   1.000  H
  H33      1.0000 0.49469  0.26451  0.28376  Biso   1.000  H
  H34      1.0000 0.75304  0.48603  0.73460  Biso   1.000  H
  H35      1.0000 0.21757  0.77136  0.53814  Biso   1.000  H
  H36      1.0000 0.98463  0.24003  0.30192  Biso   1.000  H
  H37      1.0000 0.81361  0.94896  0.29964  Biso   1.000  H
  H38      1.0000 0.28071  0.77878  0.01772  Biso   1.000  H
  H39      1.0000 0.98367  0.22085  0.79821  Biso   1.000  H
  H40      1.0000 0.30199  0.97616  0.27746  Biso   1.000  H
  H41      1.0000 0.76902  0.74843  0.56147  Biso   1.000  H
  H42      1.0000 0.49411  0.19708  0.78786  Biso   1.000  H
  H43      1.0000 0.73547  0.44855  0.29283  Biso   1.000  H
  H44      1.0000 0.26444  0.28331  0.01365  Biso   1.000  H
  H45      1.0000 0.54580  0.70367  0.77141  Biso   1.000  H
  H46      1.0000 0.28898  0.47104  0.31864  Biso   1.000  H
  H47      1.0000 0.77343  0.25039  0.54155  Biso   1.000  H
  H48      1.0000 0.06066  0.67818  0.81204  Biso   1.000  H
  H49      1.0000 0.22468  0.51480  0.26816  Biso   1.000  H
  H50      1.0000 0.32973  0.26449  0.55763  Biso   1.000  H
  H51      1.0000 0.57007  0.22500  0.24224  Biso   1.000  H
  H52      1.0000 0.78644  0.51258  0.24384  Biso   1.000  H
  H53      1.0000 0.75773  0.18767  0.02098  Biso   1.000  H
  H54      1.0000 0.03343  0.29563  0.24767  Biso   1.000  H
  H55      1.0000 0.26774  0.05272  0.32248  Biso   1.000  H
  H56      1.0000 0.26279  0.71520  0.59986  Biso   1.000  H
  H57      1.0000 0.05959  0.78210  0.30765  Biso   1.000  H
  H58      1.0000 0.75117  0.98558  0.23705  Biso   1.000  H
  H59      1.0000 0.73088  0.74999  0.01272  Biso   1.000  H
  H60      1.0000 0.49124  0.71836  0.32695  Biso   1.000  H
  H61      1.0000 0.80669  0.43617  0.79445  Biso   1.000  H
  H62      1.0000 0.71579  0.70507  0.50107  Biso   1.000  H
  H63      1.0000 0.48240  0.74475  0.82598  Biso   1.000  H
  H64      1.0000 0.25329  0.44045  0.82739  Biso   1.000  H
  H65      1.0000 0.23816  0.73663  0.09309  Biso   1.000  H
  H66      1.0000 0.99542  0.72856  0.77221  Biso   1.000  H
  H67      1.0000 0.73444  0.00017  0.79190  Biso   1.000  H
  H68      1.0000 0.82817  0.20299  0.48284  Biso   1.000  H
  H69      1.0000 0.05419  0.17288  0.75714  Biso   1.000  H
  H70      1.0000 0.25327  0.95678  0.78374  Biso   1.000  H
  H71      1.0000 0.31720  0.22574  0.06464  Biso   1.000  H
  H72      1.0000 0.56028  0.25145  0.74554  Biso   1.000  H
  H73      1.0000 0.78574  0.49113  0.81438  Biso   1.000  H
  H74      1.0000 0.73695  0.67114  0.55142  Biso   1.000  H
  H75      1.0000 0.54920  0.76368  0.79479  Biso   1.000  H
  H76      1.0000 0.22648  0.48745  0.79904  Biso   1.000  H
  H77      1.0000 0.31549  0.76062  0.02945  Biso   1.000  H
  H78      1.0000 0.05128  0.70367  0.85113  Biso   1.000  H
  H79      1.0000 0.77272  0.01795  0.80610  Biso   1.000  H
  H80      1.0000 0.80479  0.17061  0.52717  Biso   1.000  H
  H81      1.0000 0.03351  0.25203  0.78546  Biso   1.000  H
  H82      1.0000 0.31661  0.02746  0.80404  Biso   1.000  H
  H83      1.0000 0.24000  0.25205  0.00324  Biso   1.000  H
  H84      1.0000 0.49842  0.22244  0.81895  Biso   1.000  H
  H85      1.0000 0.25039  0.47446  0.24216  Biso   1.000  H
  H86      1.0000 0.25392  0.24694  0.49773  Biso   1.000  H
  H87      1.0000 0.50827  0.24490  0.32248  Biso   1.000  H
  H88      1.0000 0.81910  0.46694  0.26553  Biso   1.000  H
  H89      1.0000 0.74199  0.22290  0.00794  Biso   1.000  H
  H90      1.0000 0.99071  0.26582  0.21957  Biso   1.000  H
  H91      1.0000 0.23144  0.99872  0.31012  Biso   1.000  H
  H92      1.0000 0.28833  0.73164  0.53987  Biso   1.000  H
  H93      1.0000 0.00289  0.70835  0.28200  Biso   1.000  H
  H94      1.0000 0.76463  0.92873  0.30966  Biso   1.000  H
  H95      1.0000 0.80370  0.72647  0.07629  Biso   1.000  H
  H96      1.0000 0.49135  0.69125  0.29870  Biso   1.000  H
  H97      1.0000 0.88934  0.98678  0.94404  Biso   1.000  H
  H98      1.0000 0.93167  0.85440  0.04548  Biso   1.000  H
  H99      1.0000 0.03522  0.88455  0.91016  Biso   1.000  H
  H100     1.0000 0.39541  0.99360  0.63012  Biso   1.000  H
  H101     1.0000 0.41878  0.86020  0.54773  Biso   1.000  H
  H102     1.0000 0.52527  0.89450  0.67128  Biso   1.000  H
  H103     1.0000 0.65679  0.48637  0.93893  Biso   1.000  H
  H104     1.0000 0.61811  0.35020  0.01275  Biso   1.000  H
  H105     1.0000 0.50813  0.39652  0.89177  Biso   1.000  H
  H106     1.0000 0.15388  0.49734  0.62773  Biso   1.000  H
  H107     1.0000 0.12310  0.35742  0.53505  Biso   1.000  H
  H108     1.0000 0.01948  0.37939  0.65532  Biso   1.000  H
  H109     1.0000 0.15261  0.99619  0.13360  Biso   1.000  H
  H110     1.0000 0.11906  0.12319  0.02396  Biso   1.000  H
  H111     1.0000 0.01687  0.08916  0.15967  Biso   1.000  H
  H112     1.0000 0.65329  0.96603  0.44039  Biso   1.000  H
  H113     1.0000 0.62408  0.10667  0.51323  Biso   1.000  H
  H114     1.0000 0.52352  0.07597  0.40413  Biso   1.000  H
  H115     1.0000 0.39247  0.49104  0.12326  Biso   1.000  H
  H116     1.0000 0.42435  0.61924  0.04190  Biso   1.000  H
  H117     1.0000 0.51579  0.57528  0.16725  Biso   1.000  H
  H118     1.0000 0.89039  0.49438  0.43969  Biso   1.000  H
  H119     1.0000 0.92330  0.61144  0.55304  Biso   1.000  H
  H120     1.0000 0.01690  0.58656  0.41361  Biso   1.000  H
  H121     1.0000 0.11525  0.97709  0.90430  Biso   1.000  H
  H122     1.0000 0.89557  0.07345  0.03660  Biso   1.000  H
  H123     1.0000 0.01939  0.86103  0.13797  Biso   1.000  H
  H124     1.0000 0.61855  0.98034  0.66415  Biso   1.000  H
  H125     1.0000 0.39692  0.08207  0.53657  Biso   1.000  H
  H126     1.0000 0.50638  0.84667  0.44489  Biso   1.000  H
  H127     1.0000 0.42870  0.48164  0.89530  Biso   1.000  H
  H128     1.0000 0.65422  0.57320  0.02556  Biso   1.000  H
  H129     1.0000 0.53581  0.35426  0.12099  Biso   1.000  H
  H130     1.0000 0.92447  0.45826  0.66060  Biso   1.000  H
  H131     1.0000 0.14307  0.59301  0.54181  Biso   1.000  H
  H132     1.0000 0.02968  0.35873  0.43005  Biso   1.000  H
  H133     1.0000 0.92948  0.98486  0.16742  Biso   1.000  H
  H134     1.0000 0.15175  0.90140  0.04924  Biso   1.000  H
  H135     1.0000 0.00970  0.10699  0.93749  Biso   1.000  H
  H136     1.0000 0.42789  0.97902  0.40220  Biso   1.000  H
  H137     1.0000 0.64435  0.87531  0.54856  Biso   1.000  H
  H138     1.0000 0.54798  0.11078  0.62669  Biso   1.000  H
  H139     1.0000 0.61460  0.48106  0.16600  Biso   1.000  H
  H140     1.0000 0.39289  0.40169  0.03464  Biso   1.000  H
  H141     1.0000 0.53761  0.62111  0.94259  Biso   1.000  H
  H142     1.0000 0.11714  0.48756  0.40377  Biso   1.000  H
  H143     1.0000 0.89605  0.38252  0.52240  Biso   1.000  H
  H144     1.0000 0.00701  0.61067  0.64300  Biso   1.000  H
  H145     1.0000 0.61030  0.48387  0.89292  Biso   1.000  H
  H146     1.0000 0.88382  0.56407  0.54317  Biso   1.000  H
  H147     1.0000 0.51969  0.85384  0.62694  Biso   1.000  H
  H148     1.0000 0.11295  0.48933  0.67033  Biso   1.000  H
  H149     1.0000 0.38497  0.58034  0.02893  Biso   1.000  H
  H150     1.0000 0.02756  0.84420  0.95481  Biso   1.000  H
  H151     1.0000 0.93190  0.97128  0.90613  Biso   1.000  H
  H152     1.0000 0.66121  0.06450  0.50969  Biso   1.000  H
  H153     1.0000 0.02991  0.34081  0.61106  Biso   1.000  H
  H154     1.0000 0.43980  0.98788  0.67352  Biso   1.000  H
  H155     1.0000 0.16081  0.07905  0.03626  Biso   1.000  H
  H156     1.0000 0.50559  0.35648  0.93900  Biso   1.000  H
  H157     1.0000 0.42819  0.48316  0.16514  Biso   1.000  H
  H158     1.0000 0.16378  0.41062  0.53655  Biso   1.000  H
  H159     1.0000 0.52117  0.11777  0.44223  Biso   1.000  H
  H160     1.0000 0.93344  0.50795  0.40051  Biso   1.000  H
  H161     1.0000 0.65581  0.39146  0.02365  Biso   1.000  H
  H162     1.0000 0.02758  0.12569  0.11482  Biso   1.000  H
  H163     1.0000 0.11424  0.00343  0.17061  Biso   1.000  H
  H164     1.0000 0.38105  0.90345  0.55214  Biso   1.000  H
  H165     1.0000 0.00710  0.62889  0.45978  Biso   1.000  H
  H166     1.0000 0.60852  0.97478  0.39994  Biso   1.000  H
  H167     1.0000 0.88427  0.89604  0.03399  Biso   1.000  H
  H168     1.0000 0.51315  0.61747  0.12380  Biso   1.000  H
  H169     1.0000 0.00289  0.06028  0.89436  Biso   1.000  H
  H170     1.0000 0.88565  0.98262  0.12649  Biso   1.000  H
  H171     1.0000 0.10664  0.85497  0.05912  Biso   1.000  H
  H172     1.0000 0.54125  0.07631  0.66824  Biso   1.000  H
  H173     1.0000 0.38163  0.98017  0.45018  Biso   1.000  H
  H174     1.0000 0.60137  0.83931  0.54361  Biso   1.000  H
  H175     1.0000 0.52621  0.57552  0.89804  Biso   1.000  H
  H176     1.0000 0.65570  0.48233  0.12150  Biso   1.000  H
  H177     1.0000 0.43761  0.35550  0.03873  Biso   1.000  H
  H178     1.0000 0.01587  0.56420  0.68002  Biso   1.000  H
  H179     1.0000 0.15986  0.49535  0.44641  Biso   1.000  H
  H180     1.0000 0.93912  0.34351  0.51474  Biso   1.000  H
  H181     1.0000 0.02205  0.90437  0.17375  Biso   1.000  H
  H182     1.0000 0.15328  0.98995  0.94961  Biso   1.000  H
  H183     1.0000 0.93769  0.11954  0.02523  Biso   1.000  H
  H184     1.0000 0.51147  0.88797  0.40127  Biso   1.000  H
  H185     1.0000 0.65570  0.98015  0.62091  Biso   1.000  H
  H186     1.0000 0.44177  0.12428  0.53751  Biso   1.000  H
  H187     1.0000 0.53015  0.39354  0.16537  Biso   1.000  H
  H188     1.0000 0.38728  0.48635  0.93933  Biso   1.000  H
  H189     1.0000 0.61042  0.61685  0.02570  Biso   1.000  H
  H190     1.0000 0.02410  0.40921  0.38616  Biso   1.000  H
  H191     1.0000 0.88822  0.45672  0.61769  Biso   1.000  H
  H192     1.0000 0.10222  0.62901  0.54751  Biso   1.000  H
  H193     1.0000 0.27860  0.85769  0.54898  Biso   1.000  H
  H194     1.0000 0.51351  0.25646  0.89349  Biso   1.000  H
  H195     1.0000 0.87947  0.51300  0.30460  Biso   1.000  H
  H196     1.0000 0.79281  0.83894  0.02295  Biso   1.000  H
  H197     1.0000 0.04361  0.24126  0.65735  Biso   1.000  H
  H198     1.0000 0.37258  0.48418  0.26035  Biso   1.000  H
  H199     1.0000 0.26421  0.36451  0.52463  Biso   1.000  H
  H200     1.0000 0.03537  0.74453  0.91064  Biso   1.000  H
  H201     1.0000 0.66319  0.98999  0.30379  Biso   1.000  H
  H202     1.0000 0.75318  0.34253  0.05079  Biso   1.000  H
  H203     1.0000 0.51146  0.75636  0.68370  Biso   1.000  H
  H204     1.0000 0.15944  0.02278  0.27057  Biso   1.000  H
  H205     1.0000 0.75843  0.10679  0.49275  Biso   1.000  H
  H206     1.0000 0.51887  0.71379  0.18136  Biso   1.000  H
  H207     1.0000 0.16245  0.45005  0.75717  Biso   1.000  H
  H208     1.0000 0.25527  0.13272  0.03784  Biso   1.000  H
  H209     1.0000 0.00202  0.72846  0.40815  Biso   1.000  H
  H210     1.0000 0.66538  0.48210  0.79881  Biso   1.000  H
  H211     1.0000 0.78381  0.60887  0.52300  Biso   1.000  H
  H212     1.0000 0.02761  0.23103  0.15301  Biso   1.000  H
  H213     1.0000 0.38698  0.00094  0.77048  Biso   1.000  H
  H214     1.0000 0.28734  0.63136  0.03852  Biso   1.000  H
  H215     1.0000 0.54268  0.20963  0.38506  Biso   1.000  H
  H216     1.0000 0.88127  0.97429  0.80560  Biso   1.000  H
  H217     1.0000 0.25499  0.49077  0.38872  Biso   1.000  H
  H218     1.0000 0.39143  0.22400  0.52837  Biso   1.000  H
  H219     1.0000 0.51460  0.33604  0.25966  Biso   1.000  H
  H220     1.0000 0.75449  0.48819  0.17411  Biso   1.000  H
  H221     1.0000 0.88069  0.21504  0.02921  Biso   1.000  H
  H222     1.0000 0.00536  0.35965  0.28975  Biso   1.000  H
  H223     1.0000 0.29175  0.00989  0.39181  Biso   1.000  H
  H224     1.0000 0.14459  0.73013  0.56114  Biso   1.000  H
  H225     1.0000 0.02314  0.86170  0.27712  Biso   1.000  H
  H226     1.0000 0.79035  0.96138  0.17516  Biso   1.000  H
  H227     1.0000 0.66719  0.71323  0.03409  Biso   1.000  H
  H228     1.0000 0.52568  0.83667  0.30504  Biso   1.000  H
  H229     1.0000 0.78946  0.44460  0.66764  Biso   1.000  H
  H230     1.0000 0.65058  0.74131  0.54475  Biso   1.000  H
  H231     1.0000 0.51490  0.63077  0.80310  Biso   1.000  H
  H232     1.0000 0.29037  0.47634  0.88562  Biso   1.000  H
  H233     1.0000 0.16535  0.76052  0.06501  Biso   1.000  H
  H234     1.0000 0.01968  0.60640  0.78182  Biso   1.000  H
  H235     1.0000 0.75669  0.98574  0.66978  Biso   1.000  H
  H236     1.0000 0.89687  0.24183  0.52385  Biso   1.000  H
  H237     1.0000 0.01553  0.11095  0.79749  Biso   1.000  H
  H238     1.0000 0.25087  0.98874  0.89707  Biso   1.000  H
  H239     1.0000 0.38166  0.26259  0.03529  Biso   1.000  H
  H240     1.0000 0.53879  0.13350  0.76503  Biso   1.000  H
  H241     1.0000 0.75079  0.46032  0.88665  Biso   1.000  H
  H242     1.0000 0.85675  0.70020  0.54828  Biso   1.000  H
  H243     1.0000 0.51061  0.84296  0.76786  Biso   1.000  H
  H244     1.0000 0.25113  0.49496  0.67770  Biso   1.000  H
  H245     1.0000 0.38090  0.71887  0.04991  Biso   1.000  H
  H246     1.0000 0.06556  0.82597  0.82312  Biso   1.000  H
  H247     1.0000 0.79567  0.99264  0.88858  Biso   1.000  H
  H248     1.0000 0.68152  0.19304  0.53216  Biso   1.000  H
  H249     1.0000 0.01128  0.31972  0.74817  Biso   1.000  H
  H250     1.0000 0.30089  0.01202  0.68537  Biso   1.000  H
  H251     1.0000 0.16766  0.22152  0.02926  Biso   1.000  H
  H252     1.0000 0.52600  0.34214  0.79695  Biso   1.000  H
  H253     1.0000 0.29656  0.51339  0.17497  Biso   1.000  H
  H254     1.0000 0.19112  0.27119  0.53176  Biso   1.000  H
  H255     1.0000 0.53231  0.12370  0.30399  Biso   1.000  H
  H256     1.0000 0.79575  0.47324  0.38678  Biso   1.000  H
  H257     1.0000 0.66278  0.25053  0.02698  Biso   1.000  H
  H258     1.0000 0.00506  0.15232  0.25015  Biso   1.000  H
  H259     1.0000 0.24994  0.00049  0.18388  Biso   1.000  H
  H260     1.0000 0.36373  0.76712  0.55692  Biso   1.000  H
  H261     1.0000 0.03714  0.64212  0.32111  Biso   1.000  H
  H262     1.0000 0.74802  0.96168  0.38303  Biso   1.000  H
  H263     1.0000 0.87667  0.75542  0.05006  Biso   1.000  H
  H264     1.0000 0.52510  0.61905  0.26591  Biso   1.000  H
  H265     1.0000 0.02275  0.19599  0.87037  Biso   1.000  H
  H266     1.0000 0.87399  0.98305  0.26208  Biso   1.000  H
  H267     1.0000 0.24752  0.84768  0.04266  Biso   1.000  H
  H268     1.0000 0.54195  0.21310  0.66930  Biso   1.000  H
  H269     1.0000 0.37351  0.99703  0.30802  Biso   1.000  H
  H270     1.0000 0.74042  0.81973  0.53978  Biso   1.000  H
  H271     1.0000 0.52387  0.71480  0.89057  Biso   1.000  H
  H272     1.0000 0.66397  0.48833  0.26157  Biso   1.000  H
  H273     1.0000 0.29802  0.34248  0.04758  Biso   1.000  H
  H274     1.0000 0.01188  0.70207  0.70159  Biso   1.000  H
  H275     1.0000 0.16361  0.47537  0.30347  Biso   1.000  H
  H276     1.0000 0.80536  0.32059  0.51474  Biso   1.000  H
  H277     1.0000 0.01986  0.76900  0.19615  Biso   1.000  H
  H278     1.0000 0.17529  0.97867  0.81245  Biso   1.000  H
  H279     1.0000 0.79602  0.12796  0.05120  Biso   1.000  H
  H280     1.0000 0.52041  0.74995  0.39282  Biso   1.000  H
  H281     1.0000 0.67320  0.96906  0.76067  Biso   1.000  H
  H282     1.0000 0.30508  0.14176  0.53976  Biso   1.000  H
  H283     1.0000 0.54015  0.25385  0.17140  Biso   1.000  H
  H284     1.0000 0.37592  0.45557  0.80072  Biso   1.000  H
  H285     1.0000 0.75312  0.62727  0.02415  Biso   1.000  H
  H286     1.0000 0.02639  0.26936  0.36901  Biso   1.000  H
  H287     1.0000 0.87115  0.46879  0.75745  Biso   1.000  H
  H288     1.0000 0.23599  0.65125  0.55262  Biso   1.000  H
  H289     1.0000 0.11622  0.21856  0.01887  Biso   1.000  H
  H290     1.0000 0.00259  0.09801  0.25538  Biso   1.000  H
  H291     1.0000 0.24954  0.99569  0.13099  Biso   1.000  H
  H292     1.0000 0.62658  0.19716  0.53038  Biso   1.000  H
  H293     1.0000 0.52445  0.07181  0.30451  Biso   1.000  H
  H294     1.0000 0.74812  0.95481  0.43820  Biso   1.000  H
  H295     1.0000 0.43273  0.71378  0.05079  Biso   1.000  H
  H296     1.0000 0.51874  0.57020  0.26433  Biso   1.000  H
  H297     1.0000 0.29784  0.51014  0.12047  Biso   1.000  H
  H298     1.0000 0.91292  0.70343  0.55800  Biso   1.000  H
  H299     1.0000 0.04673  0.59177  0.32165  Biso   1.000  H
  H300     1.0000 0.79949  0.46805  0.44159  Biso   1.000  H
  H301     1.0000 0.93018  0.75645  0.05679  Biso   1.000  H
  H302     1.0000 0.06301  0.88363  0.82205  Biso   1.000  H
  H303     1.0000 0.79504  0.00315  0.93984  Biso   1.000  H
  H304     1.0000 0.41714  0.76451  0.55131  Biso   1.000  H
  H305     1.0000 0.52179  0.89406  0.76552  Biso   1.000  H
  H306     1.0000 0.29979  0.00901  0.63246  Biso   1.000  H
  H307     1.0000 0.61509  0.25435  0.01515  Biso   1.000  H
  H308     1.0000 0.52792  0.39402  0.79672  Biso   1.000  H
  H309     1.0000 0.75150  0.46511  0.93801  Biso   1.000  H
  H310     1.0000 0.13829  0.26263  0.52430  Biso   1.000  H
  H311     1.0000 0.00462  0.37277  0.75143  Biso   1.000  H
  H312     1.0000 0.25026  0.50949  0.62784  Biso   1.000  H
  H313     1.0000 0.24901  0.98657  0.95290  Biso   1.000  H
  H314     1.0000 0.93339  0.21766  0.02219  Biso   1.000  H
  H315     1.0000 0.02383  0.91533  0.27146  Biso   1.000  H
  H316     1.0000 0.75375  0.98419  0.61730  Biso   1.000  H
  H317     1.0000 0.44548  0.22323  0.52575  Biso   1.000  H
  H318     1.0000 0.51953  0.88895  0.30464  Biso   1.000  H
  H319     1.0000 0.29069  0.47931  0.93993  Biso   1.000  H
  H320     1.0000 0.61335  0.71322  0.03435  Biso   1.000  H
  H321     1.0000 0.51265  0.38886  0.26122  Biso   1.000  H
  H322     1.0000 0.79273  0.44833  0.61562  Biso   1.000  H
  H323     1.0000 0.08847  0.72274  0.56474  Biso   1.000  H
  H324     1.0000 0.00640  0.41607  0.29525  Biso   1.000  H
  H325     1.0000 0.79275  0.96202  0.12138  Biso   1.000  H
  H326     1.0000 0.11516  0.75942  0.07090  Biso   1.000  H
  H327     1.0000 0.00630  0.05226  0.79839  Biso   1.000  H
  H328     1.0000 0.29030  0.00106  0.44829  Biso   1.000  H
  H329     1.0000 0.59404  0.74432  0.54435  Biso   1.000  H
  H330     1.0000 0.53766  0.07802  0.76753  Biso   1.000  H
  H331     1.0000 0.75043  0.49161  0.11966  Biso   1.000  H
  H332     1.0000 0.43824  0.25997  0.04046  Biso   1.000  H
  H333     1.0000 0.51295  0.57779  0.80264  Biso   1.000  H
  H334     1.0000 0.25570  0.49304  0.44057  Biso   1.000  H
  H335     1.0000 0.95169  0.24850  0.52657  Biso   1.000  H
  H336     1.0000 0.02398  0.54926  0.77405  Biso   1.000  H
  H337     1.0000 0.01642  0.20175  0.92496  Biso   1.000  H
  H338     1.0000 0.92911  0.99209  0.26339  Biso   1.000  H
  H339     1.0000 0.24422  0.90145  0.02538  Biso   1.000  H
  H340     1.0000 0.55183  0.20749  0.61554  Biso   1.000  H
  H341     1.0000 0.42417  0.98863  0.30473  Biso   1.000  H
  H342     1.0000 0.73970  0.87381  0.53665  Biso   1.000  H
  H343     1.0000 0.52668  0.71392  0.94181  Biso   1.000  H
  H344     1.0000 0.60994  0.48634  0.25994  Biso   1.000  H
  H345     1.0000 0.29519  0.39678  0.04053  Biso   1.000  H
  H346     1.0000 0.99985  0.70663  0.64774  Biso   1.000  H
  H347     1.0000 0.11021  0.47711  0.30821  Biso   1.000  H
  H348     1.0000 0.80252  0.37667  0.51935  Biso   1.000  H
  H349     1.0000 0.01930  0.76517  0.14615  Biso   1.000  H
  H350     1.0000 0.12148  0.96738  0.80654  Biso   1.000  H
  H351     1.0000 0.80142  0.07485  0.05631  Biso   1.000  H
  H352     1.0000 0.51762  0.75159  0.44877  Biso   1.000  H
  H353     1.0000 0.62055  0.96966  0.76028  Biso   1.000  H
  H354     1.0000 0.30221  0.08551  0.53958  Biso   1.000  H
  H355     1.0000 0.54440  0.25904  0.11742  Biso   1.000  H
  H356     1.0000 0.42923  0.46718  0.80002  Biso   1.000  H
  H357     1.0000 0.75061  0.57216  0.02127  Biso   1.000  H
  H358     1.0000 0.03214  0.26315  0.42440  Biso   1.000  H
  H359     1.0000 0.92523  0.46965  0.76016  Biso   1.000  H
  H360     1.0000 0.24046  0.59962  0.54308  Biso   1.000  H
  H361     1.0000 0.00189  0.72334  0.46195  Biso   1.000  H
  H362     1.0000 0.44111  0.99904  0.76812  Biso   1.000  H
  H363     1.0000 0.75135  0.39504  0.04525  Biso   1.000  H
  H364     1.0000 0.51982  0.71360  0.12640  Biso   1.000  H
  H365     1.0000 0.93590  0.96287  0.80783  Biso   1.000  H
  H366     1.0000 0.25943  0.41763  0.52098  Biso   1.000  H
  H367     1.0000 0.53925  0.21094  0.44060  Biso   1.000  H
  H368     1.0000 0.11065  0.45264  0.76122  Biso   1.000  H
  H369     1.0000 0.78830  0.89009  0.02653  Biso   1.000  H
  H370     1.0000 0.03597  0.21997  0.10274  Biso   1.000  H
  H371     1.0000 0.61147  0.49082  0.79972  Biso   1.000  H
  H372     1.0000 0.28432  0.91208  0.54885  Biso   1.000  H
  H373     1.0000 0.05125  0.24728  0.60656  Biso   1.000  H
  H374     1.0000 0.60898  0.99278  0.30517  Biso   1.000  H
  H375     1.0000 0.29029  0.57734  0.04184  Biso   1.000  H
  H376     1.0000 0.50740  0.26313  0.94522  Biso   1.000  H
  H377     1.0000 0.10552  0.01587  0.26863  Biso   1.000  H
  H378     1.0000 0.78870  0.55733  0.52378  Biso   1.000  H
  H379     1.0000 0.51181  0.75686  0.62816  Biso   1.000  H
  H380     1.0000 0.93112  0.51879  0.30121  Biso   1.000  H
  H381     1.0000 0.25325  0.08017  0.05077  Biso   1.000  H
  H382     1.0000 0.02263  0.74642  0.96123  Biso   1.000  H
  H383     1.0000 0.42575  0.47093  0.26137  Biso   1.000  H
  H384     1.0000 0.75518  0.05072  0.50340  Biso   1.000  H
  H385     1.0000 0.24976  0.45759  0.35644  Biso   1.000  H
  H386     1.0000 0.30055  0.17156  0.51258  Biso   1.000  H
  H387     1.0000 0.49106  0.29803  0.24780  Biso   1.000  H
  H388     1.0000 0.69783  0.45343  0.26062  Biso   1.000  H
  H389     1.0000 0.85231  0.21136  0.06514  Biso   1.000  H
  H390     1.0000 0.98633  0.27443  0.34280  Biso   1.000  H
  H391     1.0000 0.33530  0.96788  0.31725  Biso   1.000  H
  H392     1.0000 0.17874  0.73585  0.52991  Biso   1.000  H
  H393     1.0000 0.98418  0.78248  0.23023  Biso   1.000  H
  H394     1.0000 0.84843  0.94690  0.26009  Biso   1.000  H
  H395     1.0000 0.74887  0.65199  0.05468  Biso   1.000  H
  H396     1.0000 0.55688  0.80210  0.31700  Biso   1.000  H
  H397     1.0000 0.78933  0.48270  0.69646  Biso   1.000  H
  H398     1.0000 0.73537  0.78537  0.56713  Biso   1.000  H
  H399     1.0000 0.55014  0.66317  0.80825  Biso   1.000  H
  H400     1.0000 0.34559  0.49237  0.79897  Biso   1.000  H
  H401     1.0000 0.24095  0.81283  0.01296  Biso   1.000  H
  H402     1.0000 0.04989  0.63812  0.78263  Biso   1.000  H
  H403     1.0000 0.75836  0.95272  0.69777  Biso   1.000  H
  H404     1.0000 0.81041  0.28815  0.54710  Biso   1.000  H
  H405     1.0000 0.98652  0.18722  0.84382  Biso   1.000  H
  H406     1.0000 0.24174  0.02430  0.86735  Biso   1.000  H
  H407     1.0000 0.30409  0.31760  0.00805  Biso   1.000  H
  H408     1.0000 0.49399  0.16321  0.75171  Biso   1.000  H
  H409     1.0000 0.28939  0.47085  0.20325  Biso   1.000  H
  H410     1.0000 0.21463  0.28028  0.49877  Biso   1.000  H
  H411     1.0000 0.50535  0.20792  0.35898  Biso   1.000  H
  H412     1.0000 0.85910  0.47252  0.30128  Biso   1.000  H
  H413     1.0000 0.70115  0.25872  0.00411  Biso   1.000  H
  H414     1.0000 0.99416  0.22666  0.18441  Biso   1.000  H
  H415     1.0000 0.19262  0.99333  0.27315  Biso   1.000  H
  H416     1.0000 0.32831  0.76646  0.52928  Biso   1.000  H
  H417     1.0000 0.99617  0.67038  0.32022  Biso   1.000  H
  H418     1.0000 0.73142  0.93033  0.34513  Biso   1.000  H
  H419     1.0000 0.84230  0.76277  0.07892  Biso   1.000  H
  H420     1.0000 0.49455  0.65352  0.26250  Biso   1.000  H
  H421     1.0000 0.74974  0.49216  0.85818  Biso   1.000  H
  H422     1.0000 0.78012  0.63627  0.55767  Biso   1.000  H
  H423     1.0000 0.54873  0.80701  0.76199  Biso   1.000  H
  H424     1.0000 0.18903  0.48964  0.76629  Biso   1.000  H
  H425     1.0000 0.35042  0.72395  0.02277  Biso   1.000  H
  H426     1.0000 0.06912  0.74206  0.87990  Biso   1.000  H
  H427     1.0000 0.80568  0.02313  0.84543  Biso   1.000  H
  H428     1.0000 0.76911  0.13534  0.52707  Biso   1.000  H
  H429     1.0000 0.04225  0.29001  0.75463  Biso   1.000  H
  H430     1.0000 0.35517  0.02907  0.76851  Biso   1.000  H
  H431     1.0000 0.20082  0.21796  0.00248  Biso   1.000  H
  H432     1.0000 0.49177  0.25833  0.85298  Biso   1.000  H
  H433     1.0000 0.29570  0.97966  0.70971  Biso   1.000  H
  H434     1.0000 0.74328  0.30773  0.07555  Biso   1.000  H
  H435     1.0000 0.03713  0.72744  0.38271  Biso   1.000  H
  H436     1.0000 0.84900  0.94127  0.81521  Biso   1.000  H
  H437     1.0000 0.26373  0.32866  0.56584  Biso   1.000  H
  H438     1.0000 0.54832  0.71195  0.20728  Biso   1.000  H
  H439     1.0000 0.25038  0.45200  0.70062  Biso   1.000  H
  H440     1.0000 0.80504  0.80549  0.99909  Biso   1.000  H
  H441     1.0000 0.56108  0.15519  0.30072  Biso   1.000  H
  H442     1.0000 0.68912  0.44239  0.80051  Biso   1.000  H
  H443     1.0000 0.28810  0.83109  0.58583  Biso   1.000  H
  H444     1.0000 0.04108  0.17490  0.25032  Biso   1.000  H
  H445     1.0000 0.70095  0.01480  0.31626  Biso   1.000  H
  H446     1.0000 0.29314  0.66112  0.06952  Biso   1.000  H
  H447     1.0000 0.00989  0.23562  0.68269  Biso   1.000  H
  H448     1.0000 0.25020  0.03067  0.20790  Biso   1.000  H
  H449     1.0000 0.83719  0.69710  0.50965  Biso   1.000  H
  H450     1.0000 0.55571  0.31313  0.80879  Biso   1.000  H
  H451     1.0000 0.79142  0.50571  0.36246  Biso   1.000  H
  H452     1.0000 0.24757  0.16555  0.07032  Biso   1.000  H
  H453     1.0000 0.47866  0.76005  0.71145  Biso   1.000  H
  H454     1.0000 0.34821  0.52125  0.25948  Biso   1.000  H
  H455     1.0000 0.70479  0.20117  0.49285  Biso   1.000  H
  H456     1.0000 0.01770  0.80170  0.82587  Biso   1.000  H
  H457     1.0000 0.67704  0.74501  0.50589  Biso   1.000  H
  H458     1.0000 0.48600  0.70979  0.86200  Biso   1.000  H
  H459     1.0000 0.84372  0.42916  0.75829  Biso   1.000  H
  H460     1.0000 0.19964  0.77100  0.09293  Biso   1.000  H
  H461     1.0000 0.99180  0.69407  0.73425  Biso   1.000  H
  H462     1.0000 0.29351  0.43744  0.86061  Biso   1.000  H
  H463     1.0000 0.86854  0.24453  0.48385  Biso   1.000  H
  H464     1.0000 0.05497  0.13654  0.79429  Biso   1.000  H
  H465     1.0000 0.69980  0.00165  0.75323  Biso   1.000  H
  H466     1.0000 0.35134  0.26123  0.07315  Biso   1.000  H
  H467     1.0000 0.56624  0.21136  0.70707  Biso   1.000  H
  H468     1.0000 0.21217  0.94803  0.81692  Biso   1.000  H
  H469     1.0000 0.36505  0.22031  0.56415  Biso   1.000  H
  H470     1.0000 0.57230  0.26342  0.20667  Biso   1.000  H
  H471     1.0000 0.18785  0.51087  0.30830  Biso   1.000  H
  H472     1.0000 0.79693  0.15233  0.01746  Biso   1.000  H
  H473     1.0000 0.03987  0.33160  0.28373  Biso   1.000  H
  H474     1.0000 0.75232  0.51414  0.20616  Biso   1.000  H
  H475     1.0000 0.22818  0.67663  0.59112  Biso   1.000  H
  H476     1.0000 0.05556  0.82448  0.27577  Biso   1.000  H
  H477     1.0000 0.30135  0.04164  0.36616  Biso   1.000  H
  H478     1.0000 0.69776  0.71052  0.00388  Biso   1.000  H
  H479     1.0000 0.48899  0.75607  0.36425  Biso   1.000  H
  H480     1.0000 0.78905  0.99501  0.20162  Biso   1.000  H
  N1       1.0000 0.71128  0.14394  0.50944  Biso   1.000  N
  N2       1.0000 0.52183  0.65837  0.21174  Biso   1.000  N
  N3       1.0000 0.19667  0.47364  0.70970  Biso   1.000  N
  N4       1.0000 0.20143  0.16685  0.03469  Biso   1.000  N
  N5       1.0000 0.01645  0.67443  0.37432  Biso   1.000  N
  N6       1.0000 0.69594  0.47152  0.85247  Biso   1.000  N
  N7       1.0000 0.83235  0.64550  0.53737  Biso   1.000  N
  N8       1.0000 0.01905  0.17890  0.19426  Biso   1.000  N
  N9       1.0000 0.35212  0.00096  0.71609  Biso   1.000  N
  N10      1.0000 0.34272  0.66749  0.04066  Biso   1.000  N
  N11      1.0000 0.53274  0.15720  0.35529  Biso   1.000  N
  N12      1.0000 0.84893  0.98298  0.85812  Biso   1.000  N
  N13      1.0000 0.33126  0.82008  0.55266  Biso   1.000  N
  N14      1.0000 0.51717  0.30942  0.85450  Biso   1.000  N
  N15      1.0000 0.84888  0.49387  0.35565  Biso   1.000  N
  N16      1.0000 0.84698  0.80799  0.03664  Biso   1.000  N
  N17      1.0000 0.02515  0.29063  0.69512  Biso   1.000  N
  N18      1.0000 0.34418  0.49531  0.20690  Biso   1.000  N
  N19      1.0000 0.21422  0.32906  0.53275  Biso   1.000  N
  N20      1.0000 0.04446  0.79660  0.87360  Biso   1.000  N
  N21      1.0000 0.69409  0.97593  0.35477  Biso   1.000  N
  N22      1.0000 0.70066  0.30624  0.03481  Biso   1.000  N
  N23      1.0000 0.51392  0.80901  0.71514  Biso   1.000  N
  N24      1.0000 0.19597  0.01125  0.21721  Biso   1.000  N
  N25      1.0000 0.84122  0.45768  0.70329  Biso   1.000  N
  N26      1.0000 0.68467  0.79038  0.53915  Biso   1.000  N
  N27      1.0000 0.52072  0.66090  0.85575  Biso   1.000  N
  N28      1.0000 0.34363  0.46844  0.85473  Biso   1.000  N
  N29      1.0000 0.19630  0.81568  0.05468  Biso   1.000  N
  N30      1.0000 0.01782  0.64413  0.73148  Biso   1.000  N
  N31      1.0000 0.70357  0.97781  0.70386  Biso   1.000  N
  N32      1.0000 0.86038  0.29333  0.51526  Biso   1.000  N
  N33      1.0000 0.01823  0.14221  0.84558  Biso   1.000  N
  N34      1.0000 0.20318  0.98379  0.86536  Biso   1.000  N
  N35      1.0000 0.35206  0.31395  0.03961  Biso   1.000  N
  N36      1.0000 0.53633  0.16324  0.70686  Biso   1.000  N
  N37      1.0000 0.19948  0.48358  0.35799  Biso   1.000  N
  N38      1.0000 0.35702  0.17059  0.53863  Biso   1.000  N
  N39      1.0000 0.52983  0.30602  0.20544  Biso   1.000  N
  N40      1.0000 0.70052  0.48218  0.20783  Biso   1.000  N
  N41      1.0000 0.85054  0.16067  0.04036  Biso   1.000  N
  N42      1.0000 0.01720  0.32380  0.34107  Biso   1.000  N
  N43      1.0000 0.34331  0.99896  0.36246  Biso   1.000  N
  N44      1.0000 0.18126  0.68037  0.55559  Biso   1.000  N
  N45      1.0000 0.01932  0.82502  0.22708  Biso   1.000  N
  N46      1.0000 0.84402  0.97565  0.21041  Biso   1.000  N
  N47      1.0000 0.69862  0.65831  0.02696  Biso   1.000  N
  N48      1.0000 0.52184  0.80359  0.36148  Biso   1.000  N
  O1       1.0000 0.36445  0.53235  0.02933  Biso   1.000  O
  O2       1.0000 0.03221  0.32478  0.56051  Biso   1.000  O
  O3       1.0000 0.55878  0.98483  0.37896  Biso   1.000  O
  O4       1.0000 0.86127  0.51443  0.53210  Biso   1.000  O
  O5       1.0000 0.51753  0.33352  0.99029  Biso   1.000  O
  O6       1.0000 0.06393  0.00468  0.19210  Biso   1.000  O
  O7       1.0000 0.17858  0.03342  0.04436  Biso   1.000  O
  O8       1.0000 0.51119  0.83045  0.58013  Biso   1.000  O
  O9       1.0000 0.98190  0.50302  0.37666  Biso   1.000  O
  O10      1.0000 0.68019  0.01220  0.52585  Biso   1.000  O
  O11      1.0000 0.02557  0.82204  0.00875  Biso   1.000  O
  O12      1.0000 0.47818  0.48226  0.18994  Biso   1.000  O
  O13      1.0000 0.67705  0.44182  0.03568  Biso   1.000  O
  O14      1.0000 0.00916  0.64888  0.50834  Biso   1.000  O
  O15      1.0000 0.48811  0.99073  0.69645  Biso   1.000  O
  O16      1.0000 0.18202  0.46096  0.53191  Biso   1.000  O
  O17      1.0000 0.51615  0.64084  0.07443  Biso   1.000  O
  O18      1.0000 0.98374  0.97089  0.88039  Biso   1.000  O
  O19      1.0000 0.86333  0.94240  0.02617  Biso   1.000  O
  O20      1.0000 0.52546  0.13936  0.49062  Biso   1.000  O
  O21      1.0000 0.06277  0.47261  0.68979  Biso   1.000  O
  O22      1.0000 0.36170  0.95302  0.54253  Biso   1.000  O
  O23      1.0000 0.03528  0.14578  0.06061  Biso   1.000  O
  O24      1.0000 0.56354  0.48256  0.87248  Biso   1.000  O
  O25      1.0000 0.97880  0.00156  0.18967  Biso   1.000  O
  O26      1.0000 0.17506  0.95073  0.04276  Biso   1.000  O
  O27      1.0000 0.01847  0.13777  0.98101  Biso   1.000  O
  O28      1.0000 0.47585  0.98105  0.37765  Biso   1.000  O
  O29      1.0000 0.67444  0.92956  0.54243  Biso   1.000  O
  O30      1.0000 0.54183  0.13301  0.57332  Biso   1.000  O
  O31      1.0000 0.56343  0.48140  0.18871  Biso   1.000  O
  O32      1.0000 0.36773  0.44905  0.03093  Biso   1.000  O
  O33      1.0000 0.52110  0.64267  0.99052  Biso   1.000  O
  O34      1.0000 0.06431  0.48474  0.38403  Biso   1.000  O
  O35      1.0000 0.86789  0.42999  0.52722  Biso   1.000  O
  O36      1.0000 0.00489  0.64047  0.59239  Biso   1.000  O
  O37      1.0000 0.06828  0.97410  0.87868  Biso   1.000  O
  O38      1.0000 0.86780  0.02431  0.03730  Biso   1.000  O
  O39      1.0000 0.02052  0.83362  0.09001  Biso   1.000  O
  O40      1.0000 0.56972  0.97803  0.68882  Biso   1.000  O
  O41      1.0000 0.37222  0.03605  0.53045  Biso   1.000  O
  O42      1.0000 0.51094  0.82442  0.49198  Biso   1.000  O
  O43      1.0000 0.47734  0.48357  0.87115  Biso   1.000  O
  O44      1.0000 0.67930  0.52294  0.02365  Biso   1.000  O
  O45      1.0000 0.53342  0.33007  0.07077  Biso   1.000  O
  O46      1.0000 0.97773  0.46810  0.68645  Biso   1.000  O
  O47      1.0000 0.17173  0.54498  0.52710  Biso   1.000  O
  O48      1.0000 0.03763  0.33324  0.47673  Biso   1.000  O
  O49      1.0000 0.02247  0.95934  0.19063  Biso   1.000  O
  O50      1.0000 0.17720  0.99253  0.99921  Biso   1.000  O
  O51      1.0000 0.98594  0.14501  0.02609  Biso   1.000  O
  O52      1.0000 0.52073  0.93898  0.37796  Biso   1.000  O
  O53      1.0000 0.67858  0.97791  0.57253  Biso   1.000  O
  O54      1.0000 0.49019  0.14288  0.54165  Biso   1.000  O
  O55      1.0000 0.52099  0.44133  0.18958  Biso   1.000  O
  O56      1.0000 0.36749  0.49184  0.98610  Biso   1.000  O
  O57      1.0000 0.55861  0.64565  0.03496  Biso   1.000  O
  O58      1.0000 0.01646  0.45633  0.37265  Biso   1.000  O
  O59      1.0000 0.86485  0.46880  0.57299  Biso   1.000  O
  O60      1.0000 0.04973  0.64699  0.55304  Biso   1.000  O
  O61      1.0000 0.02100  0.01440  0.87893  Biso   1.000  O
  O62      1.0000 0.86535  0.97815  0.07383  Biso   1.000  O
  O63      1.0000 0.06135  0.83059  0.05461  Biso   1.000  O
  O64      1.0000 0.53191  0.02635  0.69501  Biso   1.000  O
  O65      1.0000 0.36108  0.98729  0.49736  Biso   1.000  O
  O66      1.0000 0.55190  0.81875  0.53604  Biso   1.000  O
  O67      1.0000 0.51736  0.52504  0.87294  Biso   1.000  O
  O68      1.0000 0.67820  0.48834  0.07326  Biso   1.000  O
  O69      1.0000 0.48936  0.33034  0.04148  Biso   1.000  O
  O70      1.0000 0.01499  0.51173  0.69593  Biso   1.000  O
  O71      1.0000 0.18209  0.50013  0.49066  Biso   1.000  O
  O72      1.0000 0.99229  0.32450  0.51749  Biso   1.000  O
  O73      1.0000 0.02114  0.42832  0.68260  Biso   1.000  O
  O74      1.0000 0.67720  0.96440  0.49065  Biso   1.000  O
  O75      1.0000 0.47544  0.64236  0.02753  Biso   1.000  O
  O76      1.0000 0.51901  0.44233  0.86923  Biso   1.000  O
  O77      1.0000 0.17549  0.99067  0.08350  Biso   1.000  O
  O78      1.0000 0.96692  0.63972  0.55026  Biso   1.000  O
  O79      1.0000 0.52696  0.94240  0.69405  Biso   1.000  O
  O80      1.0000 0.86821  0.47940  0.49032  Biso   1.000  O
  O81      1.0000 0.06903  0.14497  0.01401  Biso   1.000  O
  O82      1.0000 0.03076  0.93185  0.88628  Biso   1.000  O
  O83      1.0000 0.36696  0.49337  0.07113  Biso   1.000  O
  O84      1.0000 0.57488  0.13055  0.52088  Biso   1.000  O
  O85      1.0000 0.02715  0.53691  0.38683  Biso   1.000  O
  O86      1.0000 0.36941  0.99561  0.58047  Biso   1.000  O
  O87      1.0000 0.57086  0.33203  0.01637  Biso   1.000  O
  O88      1.0000 0.51896  0.52120  0.19009  Biso   1.000  O
  O89      1.0000 0.86474  0.99292  0.99166  Biso   1.000  O
  O90      1.0000 0.07912  0.33172  0.51957  Biso   1.000  O
  O91      1.0000 0.51737  0.02263  0.38238  Biso   1.000  O
  O92      1.0000 0.18002  0.50183  0.57715  Biso   1.000  O
  O93      1.0000 0.97945  0.82563  0.05049  Biso   1.000  O
  O94      1.0000 0.02316  0.04437  0.18715  Biso   1.000  O
  O95      1.0000 0.67848  0.47537  0.98636  Biso   1.000  O
  O96      1.0000 0.46778  0.83252  0.53692  Biso   1.000  O
  O97      1.0000 0.49796  0.19171  0.53984  Biso   1.000  O
  O98      1.0000 0.51999  0.43758  0.23969  Biso   1.000  O
  O99      1.0000 0.23105  0.50335  0.49121  Biso   1.000  O
  O100     1.0000 0.98480  0.19357  0.01807  Biso   1.000  O
  O101     1.0000 0.01571  0.46369  0.32510  Biso   1.000  O
  O102     1.0000 0.72705  0.48566  0.07183  Biso   1.000  O
  O103     1.0000 0.04565  0.69503  0.55074  Biso   1.000  O
  O104     1.0000 0.02315  0.96562  0.23951  Biso   1.000  O
  O105     1.0000 0.31409  0.99361  0.49834  Biso   1.000  O
  O106     1.0000 0.56288  0.69381  0.03077  Biso   1.000  O
  O107     1.0000 0.52096  0.93910  0.32998  Biso   1.000  O
  O108     1.0000 0.81715  0.97554  0.07564  Biso   1.000  O
  O109     1.0000 0.54461  0.77128  0.53598  Biso   1.000  O
  O110     1.0000 0.51805  0.52874  0.82270  Biso   1.000  O
  O111     1.0000 0.81533  0.46228  0.56951  Biso   1.000  O
  O112     1.0000 0.06200  0.78105  0.05309  Biso   1.000  O
  O113     1.0000 0.01764  0.50394  0.74254  Biso   1.000  O
  O114     1.0000 0.31903  0.48589  0.98924  Biso   1.000  O
  O115     1.0000 0.99916  0.27660  0.51673  Biso   1.000  O
  O116     1.0000 0.02095  0.00844  0.83112  Biso   1.000  O
  O117     1.0000 0.72741  0.97542  0.57087  Biso   1.000  O
  O118     1.0000 0.48707  0.28297  0.04436  Biso   1.000  O
  O119     1.0000 0.53597  0.02517  0.74373  Biso   1.000  O
  O120     1.0000 0.22658  0.99393  0.99951  Biso   1.000  O
  O121     1.0000 0.06016  0.46558  0.73778  Biso   1.000  O
  O122     1.0000 0.72987  0.00642  0.52251  Biso   1.000  O
  O123     1.0000 0.52222  0.68977  0.07609  Biso   1.000  O
  O124     1.0000 0.56101  0.48969  0.82400  Biso   1.000  O
  O125     1.0000 0.22783  0.03189  0.04739  Biso   1.000  O
  O126     1.0000 0.00284  0.69694  0.51070  Biso   1.000  O
  O127     1.0000 0.48817  0.98407  0.74426  Biso   1.000  O
  O128     1.0000 0.81183  0.51056  0.53094  Biso   1.000  O
  O129     1.0000 0.03486  0.19460  0.05710  Biso   1.000  O
  O130     1.0000 0.98309  0.96282  0.83076  Biso   1.000  O
  O131     1.0000 0.31579  0.53090  0.02541  Biso   1.000  O
  O132     1.0000 0.53321  0.18681  0.48942  Biso   1.000  O
  O133     1.0000 0.98454  0.51627  0.32825  Biso   1.000  O
  O134     1.0000 0.31282  0.95835  0.54857  Biso   1.000  O
  O135     1.0000 0.50963  0.28475  0.99149  Biso   1.000  O
  O136     1.0000 0.47917  0.47748  0.23849  Biso   1.000  O
  O137     1.0000 0.81479  0.94318  0.02774  Biso   1.000  O
  O138     1.0000 0.03947  0.27673  0.55766  Biso   1.000  O
  O139     1.0000 0.55868  0.98434  0.33085  Biso   1.000  O
  O140     1.0000 0.23149  0.46254  0.53536  Biso   1.000  O
  O141     1.0000 0.01611  0.77335  0.00924  Biso   1.000  O
  O142     1.0000 0.06090  0.01174  0.24103  Biso   1.000  O
  O143     1.0000 0.72760  0.44267  0.03171  Biso   1.000  O
  O144     1.0000 0.50452  0.78231  0.57989  Biso   1.000  O
  O145     1.0000 0.56351  0.47887  0.23736  Biso   1.000  O
  O146     1.0000 0.21968  0.54828  0.53258  Biso   1.000  O
  O147     1.0000 0.54666  0.18378  0.57228  Biso   1.000  O
  O148     1.0000 0.06463  0.49132  0.33432  Biso   1.000  O
  O149     1.0000 0.72848  0.52653  0.02462  Biso   1.000  O
  O150     1.0000 0.01996  0.18549  0.97024  Biso   1.000  O
  O151     1.0000 0.97722  0.00256  0.23919  Biso   1.000  O
  O152     1.0000 0.32215  0.03969  0.53506  Biso   1.000  O
  O153     1.0000 0.00253  0.68879  0.59696  Biso   1.000  O
  O154     1.0000 0.47559  0.97953  0.32847  Biso   1.000  O
  O155     1.0000 0.81900  0.02609  0.04264  Biso   1.000  O
  O156     1.0000 0.51927  0.69088  0.99101  Biso   1.000  O
  O157     1.0000 0.47773  0.47917  0.82270  Biso   1.000  O
  O158     1.0000 0.81980  0.42658  0.52643  Biso   1.000  O
  O159     1.0000 0.50226  0.77495  0.49398  Biso   1.000  O
  O160     1.0000 0.97501  0.46262  0.73349  Biso   1.000  O
  O161     1.0000 0.31916  0.44725  0.03549  Biso   1.000  O
  O162     1.0000 0.01747  0.78463  0.09440  Biso   1.000  O
  O163     1.0000 0.06913  0.97268  0.82987  Biso   1.000  O
  O164     1.0000 0.72171  0.92431  0.53576  Biso   1.000  O
  O165     1.0000 0.03722  0.28447  0.47446  Biso   1.000  O
  O166     1.0000 0.57154  0.97810  0.73818  Biso   1.000  O
  O167     1.0000 0.22367  0.94867  0.03744  Biso   1.000  O
  O168     1.0000 0.54042  0.28186  0.07008  Biso   1.000  O
  O169     1.0000 0.01501  0.04759  0.23414  Biso   1.000  O
  O170     1.0000 0.22396  0.98796  0.08460  Biso   1.000  O
  O171     1.0000 0.06833  0.19419  0.00572  Biso   1.000  O
  O172     1.0000 0.51711  0.02382  0.33304  Biso   1.000  O
  O173     1.0000 0.72582  0.95936  0.48934  Biso   1.000  O
  O174     1.0000 0.57851  0.17855  0.52277  Biso   1.000  O
  O175     1.0000 0.52045  0.52226  0.23907  Biso   1.000  O
  O176     1.0000 0.31847  0.49542  0.07297  Biso   1.000  O
  O177     1.0000 0.47917  0.68950  0.03818  Biso   1.000  O
  O178     1.0000 0.03167  0.54461  0.33817  Biso   1.000  O
  O179     1.0000 0.82055  0.47290  0.48640  Biso   1.000  O
  O180     1.0000 0.96248  0.68781  0.55173  Biso   1.000  O
  O181     1.0000 0.03065  0.92749  0.83754  Biso   1.000  O
  O182     1.0000 0.81658  0.99273  0.99144  Biso   1.000  O
  O183     1.0000 0.97739  0.77748  0.05801  Biso   1.000  O
  O184     1.0000 0.52648  0.94088  0.74401  Biso   1.000  O
  O185     1.0000 0.32233  0.00244  0.58294  Biso   1.000  O
  O186     1.0000 0.46284  0.78487  0.53705  Biso   1.000  O
  O187     1.0000 0.52434  0.44399  0.82014  Biso   1.000  O
  O188     1.0000 0.72758  0.47533  0.98603  Biso   1.000  O
  O189     1.0000 0.56571  0.28232  0.01860  Biso   1.000  O
  O190     1.0000 0.01615  0.42339  0.73098  Biso   1.000  O
  O191     1.0000 0.22773  0.51257  0.57770  Biso   1.000  O
  O192     1.0000 0.08429  0.28153  0.52089  Biso   1.000  O
