data_image0
_cell_length_a       46.8178
_cell_length_b       46.5425
_cell_length_c       46.5726
_cell_angle_alpha    90
_cell_angle_beta     90
_cell_angle_gamma    90

_symmetry_space_group_name_H-M    "P 1"
_symmetry_int_tables_number       1

loop_
  _symmetry_equiv_pos_as_xyz
  'x, y, z'

loop_
  _atom_site_label
  _atom_site_occupancy
  _atom_site_fract_x
  _atom_site_fract_y
  _atom_site_fract_z
  _atom_site_thermal_displace_type
  _atom_site_B_iso_or_equiv
  _atom_site_type_symbol
  C1       1.0000 0.52325  0.98161  0.34138  Biso   1.000  C
  C2       1.0000 0.30518  0.55446  0.03019  Biso   1.000  C
  C3       1.0000 0.99222  0.30281  0.57193  Biso   1.000  C
  C4       1.0000 0.01794  0.00341  0.20689  Biso   1.000  C
  C5       1.0000 0.80282  0.53640  0.52812  Biso   1.000  C
  C6       1.0000 0.47134  0.31946  0.95968  Biso   1.000  C
  C7       1.0000 0.92086  0.51050  0.34529  Biso   1.000  C
  C8       1.0000 0.16191  0.05131  0.02843  Biso   1.000  C
  C9       1.0000 0.47292  0.82360  0.58414  Biso   1.000  C
  C10      1.0000 0.42577  0.48096  0.20920  Biso   1.000  C
  C11      1.0000 0.66063  0.04083  0.51541  Biso   1.000  C
  C12      1.0000 0.97282  0.81059  0.97210  Biso   1.000  C
  C13      1.0000 0.43648  0.01240  0.70949  Biso   1.000  C
  C14      1.0000 0.65838  0.43894  0.02811  Biso   1.000  C
  C15      1.0000 0.97555  0.67849  0.47252  Biso   1.000  C
  C16      1.0000 0.93160  0.99229  0.83600  Biso   1.000  C
  C17      1.0000 0.16398  0.44317  0.52250  Biso   1.000  C
  C18      1.0000 0.48235  0.67205  0.08459  Biso   1.000  C
  C19      1.0000 0.04162  0.48293  0.69909  Biso   1.000  C
  C20      1.0000 0.79355  0.94103  0.99401  Biso   1.000  C
  C21      1.0000 0.49900  0.17559  0.46254  Biso   1.000  C
  C22      1.0000 0.53981  0.51000  0.84011  Biso   1.000  C
  C23      1.0000 0.30232  0.94102  0.54025  Biso   1.000  C
  C24      1.0000 0.96741  0.17982  0.06643  Biso   1.000  C
  C25      1.0000 0.30900  0.04939  0.52254  Biso   1.000  C
  C26      1.0000 0.47885  0.30943  0.07019  Biso   1.000  C
  C27      1.0000 0.02750  0.49306  0.33592  Biso   1.000  C
  C28      1.0000 0.79102  0.05097  0.00925  Biso   1.000  C
  C29      1.0000 0.98746  0.31692  0.46267  Biso   1.000  C
  C30      1.0000 0.53258  0.48735  0.20189  Biso   1.000  C
  C31      1.0000 0.15920  0.55197  0.51723  Biso   1.000  C
  C32      1.0000 0.96511  0.81646  0.08041  Biso   1.000  C
  C33      1.0000 0.41468  0.99176  0.34220  Biso   1.000  C
  C34      1.0000 0.66308  0.54349  0.00526  Biso   1.000  C
  C35      1.0000 0.48636  0.80920  0.47870  Biso   1.000  C
  C36      1.0000 0.90623  0.00453  0.19340  Biso   1.000  C
  C37      1.0000 0.66485  0.93323  0.50313  Biso   1.000  C
  C38      1.0000 0.48377  0.68311  0.97741  Biso   1.000  C
  C39      1.0000 0.93267  0.48498  0.70389  Biso   1.000  C
  C40      1.0000 0.15506  0.94150  0.03479  Biso   1.000  C
  C41      1.0000 0.97580  0.66520  0.58227  Biso   1.000  C
  C42      1.0000 0.42976  0.50136  0.84608  Biso   1.000  C
  C43      1.0000 0.79849  0.42816  0.51184  Biso   1.000  C
  C44      1.0000 0.98744  0.16865  0.96378  Biso   1.000  C
  C45      1.0000 0.54217  0.00043  0.69997  Biso   1.000  C
  C46      1.0000 0.29884  0.44521  0.02405  Biso   1.000  C
  C47      1.0000 0.47334  0.17716  0.56516  Biso   1.000  C
  C48      1.0000 0.04306  0.98556  0.84102  Biso   1.000  C
  C49      1.0000 0.99105  0.04287  0.84074  Biso   1.000  C
  C50      1.0000 0.78870  0.98603  0.05975  Biso   1.000  C
  C51      1.0000 0.02405  0.82102  0.02863  Biso   1.000  C
  C52      1.0000 0.49541  0.06352  0.70361  Biso   1.000  C
  C53      1.0000 0.30271  0.98769  0.47706  Biso   1.000  C
  C54      1.0000 0.53817  0.81816  0.53961  Biso   1.000  C
  C55      1.0000 0.48441  0.56284  0.84625  Biso   1.000  C
  C56      1.0000 0.65851  0.50455  0.07354  Biso   1.000  C
  C57      1.0000 0.41940  0.31334  0.02003  Biso   1.000  C
  C58      1.0000 0.98737  0.53562  0.70709  Biso   1.000  C
  C59      1.0000 0.15999  0.49306  0.46564  Biso   1.000  C
  C60      1.0000 0.93479  0.30746  0.51657  Biso   1.000  C
  C61      1.0000 0.95742  0.95066  0.19978  Biso   1.000  C
  C62      1.0000 0.16532  0.99464  0.97654  Biso   1.000  C
  C63      1.0000 0.92171  0.17328  0.00668  Biso   1.000  C
  C64      1.0000 0.46490  0.93270  0.34966  Biso   1.000  C
  C65      1.0000 0.66470  0.98348  0.56215  Biso   1.000  C
  C66      1.0000 0.43146  0.17841  0.50441  Biso   1.000  C
  C67      1.0000 0.47868  0.42814  0.20501  Biso   1.000  C
  C68      1.0000 0.30265  0.50784  0.97209  Biso   1.000  C
  C69      1.0000 0.53553  0.67348  0.02931  Biso   1.000  C
  C70      1.0000 0.96788  0.44741  0.34045  Biso   1.000  C
  C71      1.0000 0.80326  0.47826  0.57772  Biso   1.000  C
  C72      1.0000 0.03151  0.67266  0.53124  Biso   1.000  C
  C73      1.0000 0.97945  0.55657  0.34191  Biso   1.000  C
  C74      1.0000 0.30245  0.00265  0.58341  Biso   1.000  C
  C75      1.0000 0.52925  0.31447  0.01574  Biso   1.000  C
  C76      1.0000 0.47577  0.53697  0.20505  Biso   1.000  C
  C77      1.0000 0.79702  0.00396  0.94938  Biso   1.000  C
  C78      1.0000 0.04261  0.30833  0.51536  Biso   1.000  C
  C79      1.0000 0.47387  0.04257  0.34160  Biso   1.000  C
  C80      1.0000 0.16515  0.50114  0.57267  Biso   1.000  C
  C81      1.0000 0.91477  0.81233  0.01890  Biso   1.000  C
  C82      1.0000 0.96239  0.05945  0.19778  Biso   1.000  C
  C83      1.0000 0.66536  0.48248  0.96698  Biso   1.000  C
  C84      1.0000 0.42761  0.81089  0.52330  Biso   1.000  C
  C85      1.0000 0.98788  0.42662  0.70315  Biso   1.000  C
  C86      1.0000 0.66479  0.98833  0.45736  Biso   1.000  C
  C87      1.0000 0.42803  0.68004  0.02550  Biso   1.000  C
  C88      1.0000 0.48508  0.45263  0.83951  Biso   1.000  C
  C89      1.0000 0.15221  0.99478  0.08829  Biso   1.000  C
  C90      1.0000 0.92247  0.66934  0.52640  Biso   1.000  C
  C91      1.0000 0.47947  0.95502  0.70415  Biso   1.000  C
  C92      1.0000 0.79405  0.48650  0.46738  Biso   1.000  C
  C93      1.0000 0.03173  0.17121  0.02185  Biso   1.000  C
  C94      1.0000 0.98818  0.93322  0.83974  Biso   1.000  C
  C95      1.0000 0.29953  0.49265  0.08024  Biso   1.000  C
  C96      1.0000 0.53883  0.17491  0.52707  Biso   1.000  C
  C97      1.0000 0.66182  0.07437  0.51698  Biso   1.000  C
  C98      1.0000 0.48065  0.66991  0.11678  Biso   1.000  C
  C99      1.0000 0.07437  0.48290  0.69879  Biso   1.000  C
  C100     1.0000 0.16265  0.08416  0.03047  Biso   1.000  C
  C101     1.0000 0.97219  0.67974  0.44068  Biso   1.000  C
  C102     1.0000 0.57173  0.50877  0.84217  Biso   1.000  C
  C103     1.0000 0.80081  0.56813  0.52573  Biso   1.000  C
  C104     1.0000 0.96421  0.18214  0.09683  Biso   1.000  C
  C105     1.0000 0.40403  0.01031  0.71099  Biso   1.000  C
  C106     1.0000 0.30448  0.58701  0.03001  Biso   1.000  C
  C107     1.0000 0.49911  0.17431  0.43105  Biso   1.000  C
  C108     1.0000 0.89968  0.00004  0.83288  Biso   1.000  C
  C109     1.0000 0.30079  0.90802  0.54164  Biso   1.000  C
  C110     1.0000 0.47107  0.32289  0.92829  Biso   1.000  C
  C111     1.0000 0.88847  0.51711  0.34680  Biso   1.000  C
  C112     1.0000 0.79366  0.90837  0.99449  Biso   1.000  C
  C113     1.0000 0.99293  0.30288  0.60438  Biso   1.000  C
  C114     1.0000 0.39443  0.48091  0.20954  Biso   1.000  C
  C115     1.0000 0.16422  0.41089  0.52219  Biso   1.000  C
  C116     1.0000 0.97617  0.80874  0.94029  Biso   1.000  C
  C117     1.0000 0.55622  0.98203  0.33958  Biso   1.000  C
  C118     1.0000 0.65698  0.40732  0.02871  Biso   1.000  C
  C119     1.0000 0.46569  0.82288  0.61611  Biso   1.000  C
  C120     1.0000 0.04941  0.00328  0.21071  Biso   1.000  C
  C121     1.0000 0.78634  0.98481  0.09113  Biso   1.000  C
  C122     1.0000 0.05630  0.81972  0.02538  Biso   1.000  C
  C123     1.0000 0.99496  0.07452  0.84089  Biso   1.000  C
  C124     1.0000 0.29728  0.98656  0.44536  Biso   1.000  C
  C125     1.0000 0.56984  0.81661  0.53976  Biso   1.000  C
  C126     1.0000 0.49387  0.09526  0.70054  Biso   1.000  C
  C127     1.0000 0.65830  0.50599  0.10573  Biso   1.000  C
  C128     1.0000 0.38882  0.31541  0.02077  Biso   1.000  C
  C129     1.0000 0.48393  0.59413  0.84672  Biso   1.000  C
  C130     1.0000 0.15712  0.49419  0.43250  Biso   1.000  C
  C131     1.0000 0.90284  0.30683  0.51755  Biso   1.000  C
  C132     1.0000 0.98943  0.56802  0.70980  Biso   1.000  C
  C133     1.0000 0.16611  0.99524  0.94457  Biso   1.000  C
  C134     1.0000 0.89102  0.17477  0.00126  Biso   1.000  C
  C135     1.0000 0.95317  0.91931  0.20089  Biso   1.000  C
  C136     1.0000 0.66418  0.99029  0.59281  Biso   1.000  C
  C137     1.0000 0.40013  0.17826  0.50710  Biso   1.000  C
  C138     1.0000 0.46422  0.89999  0.35346  Biso   1.000  C
  C139     1.0000 0.30311  0.50711  0.93931  Biso   1.000  C
  C140     1.0000 0.56633  0.67287  0.02624  Biso   1.000  C
  C141     1.0000 0.48361  0.39793  0.20223  Biso   1.000  C
  C142     1.0000 0.80569  0.48084  0.60865  Biso   1.000  C
  C143     1.0000 0.06360  0.67587  0.53181  Biso   1.000  C
  C144     1.0000 0.96847  0.41519  0.33851  Biso   1.000  C
  C145     1.0000 0.29845  0.48776  0.11252  Biso   1.000  C
  C146     1.0000 0.07485  0.30979  0.51383  Biso   1.000  C
  C147     1.0000 0.48005  0.07392  0.33875  Biso   1.000  C
  C148     1.0000 0.79143  0.48913  0.43506  Biso   1.000  C
  C149     1.0000 0.56133  0.31386  0.01454  Biso   1.000  C
  C150     1.0000 0.96384  0.09202  0.19779  Biso   1.000  C
  C151     1.0000 0.15011  0.99174  0.11934  Biso   1.000  C
  C152     1.0000 0.39470  0.81045  0.52666  Biso   1.000  C
  C153     1.0000 0.97646  0.58883  0.34374  Biso   1.000  C
  C154     1.0000 0.66151  0.98153  0.42582  Biso   1.000  C
  C155     1.0000 0.88246  0.80952  0.01979  Biso   1.000  C
  C156     1.0000 0.47669  0.56958  0.20756  Biso   1.000  C
  C157     1.0000 0.66508  0.47986  0.93471  Biso   1.000  C
  C158     1.0000 0.89068  0.66706  0.52756  Biso   1.000  C
  C159     1.0000 0.47626  0.92306  0.70689  Biso   1.000  C
  C160     1.0000 0.16568  0.50025  0.60529  Biso   1.000  C
  C161     1.0000 0.39634  0.68157  0.02431  Biso   1.000  C
  C162     1.0000 0.98615  0.90083  0.84127  Biso   1.000  C
  C163     1.0000 0.80003  0.00823  0.91850  Biso   1.000  C
  C164     1.0000 0.57058  0.17342  0.52715  Biso   1.000  C
  C165     1.0000 0.99134  0.39568  0.70290  Biso   1.000  C
  C166     1.0000 0.30417  0.00505  0.61592  Biso   1.000  C
  C167     1.0000 0.06355  0.17234  0.02701  Biso   1.000  C
  C168     1.0000 0.48203  0.42066  0.83685  Biso   1.000  C
  C169     1.0000 0.96917  0.81982  0.11247  Biso   1.000  C
  C170     1.0000 0.07490  0.99081  0.84493  Biso   1.000  C
  C171     1.0000 0.79129  0.08324  0.00821  Biso   1.000  C
  C172     1.0000 0.48731  0.80680  0.44666  Biso   1.000  C
  C173     1.0000 0.57385  0.99520  0.69741  Biso   1.000  C
  C174     1.0000 0.30750  0.08219  0.52562  Biso   1.000  C
  C175     1.0000 0.48446  0.30770  0.10243  Biso   1.000  C
  C176     1.0000 0.39851  0.49513  0.84761  Biso   1.000  C
  C177     1.0000 0.66056  0.57539  0.00053  Biso   1.000  C
  C178     1.0000 0.98143  0.31884  0.42990  Biso   1.000  C
  C179     1.0000 0.90074  0.49439  0.70240  Biso   1.000  C
  C180     1.0000 0.16045  0.58292  0.52659  Biso   1.000  C
  C181     1.0000 0.99862  0.16857  0.93498  Biso   1.000  C
  C182     1.0000 0.87491  0.00629  0.19205  Biso   1.000  C
  C183     1.0000 0.15217  0.91022  0.03814  Biso   1.000  C
  C184     1.0000 0.47143  0.17902  0.59820  Biso   1.000  C
  C185     1.0000 0.38192  0.98746  0.34215  Biso   1.000  C
  C186     1.0000 0.66626  0.90160  0.50630  Biso   1.000  C
  C187     1.0000 0.48356  0.68475  0.94570  Biso   1.000  C
  C188     1.0000 0.56331  0.49654  0.20163  Biso   1.000  C
  C189     1.0000 0.29681  0.41424  0.02855  Biso   1.000  C
  C190     1.0000 0.97646  0.66343  0.61435  Biso   1.000  C
  C191     1.0000 0.06007  0.48907  0.33614  Biso   1.000  C
  C192     1.0000 0.79937  0.39673  0.51151  Biso   1.000  C
  C193     1.0000 0.82806  0.00586  0.90501  Biso   1.000  C
  C194     1.0000 0.86752  0.83755  0.01374  Biso   1.000  C
  C195     1.0000 0.98503  0.88742  0.86944  Biso   1.000  C
  C196     1.0000 0.33106  0.00989  0.63296  Biso   1.000  C
  C197     1.0000 0.37972  0.83993  0.52985  Biso   1.000  C
  C198     1.0000 0.47365  0.90640  0.68038  Biso   1.000  C
  C199     1.0000 0.63960  0.48699  0.91802  Biso   1.000  C
  C200     1.0000 0.57776  0.34083  0.01846  Biso   1.000  C
  C201     1.0000 0.48376  0.40328  0.86255  Biso   1.000  C
  C202     1.0000 0.14013  0.49315  0.62046  Biso   1.000  C
  C203     1.0000 0.08682  0.33795  0.51618  Biso   1.000  C
  C204     1.0000 0.98705  0.38000  0.67604  Biso   1.000  C
  C205     1.0000 0.12314  0.99512  0.13378  Biso   1.000  C
  C206     1.0000 0.08072  0.14677  0.03215  Biso   1.000  C
  C207     1.0000 0.96218  0.10566  0.16962  Biso   1.000  C
  C208     1.0000 0.63294  0.97996  0.41231  Biso   1.000  C
  C209     1.0000 0.58558  0.14446  0.52176  Biso   1.000  C
  C210     1.0000 0.48171  0.09206  0.36452  Biso   1.000  C
  C211     1.0000 0.32563  0.48400  0.12799  Biso   1.000  C
  C212     1.0000 0.37957  0.65417  0.02561  Biso   1.000  C
  C213     1.0000 0.47625  0.58673  0.18140  Biso   1.000  C
  C214     1.0000 0.81783  0.49642  0.41959  Biso   1.000  C
  C215     1.0000 0.87550  0.64074  0.52099  Biso   1.000  C
  C216     1.0000 0.97421  0.60483  0.37023  Biso   1.000  C
  C217     1.0000 0.09194  0.99210  0.87240  Biso   1.000  C
  C218     1.0000 0.81960  0.09772  0.00763  Biso   1.000  C
  C219     1.0000 0.96330  0.84749  0.12659  Biso   1.000  C
  C220     1.0000 0.58837  0.98664  0.66909  Biso   1.000  C
  C221     1.0000 0.33464  0.09805  0.52581  Biso   1.000  C
  C222     1.0000 0.48289  0.83306  0.43136  Biso   1.000  C
  C223     1.0000 0.38264  0.50171  0.87415  Biso   1.000  C
  C224     1.0000 0.63358  0.59119  0.00802  Biso   1.000  C
  C225     1.0000 0.48252  0.33436  0.11892  Biso   1.000  C
  C226     1.0000 0.88473  0.49253  0.67455  Biso   1.000  C
  C227     1.0000 0.13338  0.59912  0.52595  Biso   1.000  C
  C228     1.0000 0.97647  0.34635  0.41488  Biso   1.000  C
  C229     1.0000 0.86076  0.00377  0.16306  Biso   1.000  C
  C230     1.0000 0.12593  0.89378  0.03497  Biso   1.000  C
  C231     1.0000 0.99896  0.14127  0.91995  Biso   1.000  C
  C232     1.0000 0.36840  0.98738  0.37162  Biso   1.000  C
  C233     1.0000 0.63961  0.88776  0.51408  Biso   1.000  C
  C234     1.0000 0.47756  0.15453  0.61609  Biso   1.000  C
  C235     1.0000 0.57918  0.49753  0.17455  Biso   1.000  C
  C236     1.0000 0.32536  0.39912  0.02879  Biso   1.000  C
  C237     1.0000 0.48565  0.65891  0.92697  Biso   1.000  C
  C238     1.0000 0.07529  0.48921  0.36361  Biso   1.000  C
  C239     1.0000 0.82775  0.38228  0.51225  Biso   1.000  C
  C240     1.0000 0.97634  0.63601  0.62947  Biso   1.000  C
  C241     1.0000 0.58767  0.50256  0.86892  Biso   1.000  C
  C242     1.0000 0.82773  0.58492  0.52370  Biso   1.000  C
  C243     1.0000 0.46649  0.85087  0.63089  Biso   1.000  C
  C244     1.0000 0.08932  0.48708  0.67055  Biso   1.000  C
  C245     1.0000 0.33128  0.60379  0.03183  Biso   1.000  C
  C246     1.0000 0.98088  0.83581  0.92420  Biso   1.000  C
  C247     1.0000 0.88317  0.00167  0.85922  Biso   1.000  C
  C248     1.0000 0.63681  0.09114  0.51529  Biso   1.000  C
  C249     1.0000 0.99058  0.33029  0.61912  Biso   1.000  C
  C250     1.0000 0.38621  0.01473  0.68394  Biso   1.000  C
  C251     1.0000 0.13573  0.09849  0.03297  Biso   1.000  C
  C252     1.0000 0.47570  0.35074  0.91328  Biso   1.000  C
  C253     1.0000 0.37819  0.48236  0.18211  Biso   1.000  C
  C254     1.0000 0.13630  0.39349  0.51971  Biso   1.000  C
  C255     1.0000 0.49248  0.14591  0.41608  Biso   1.000  C
  C256     1.0000 0.87029  0.51050  0.37225  Biso   1.000  C
  C257     1.0000 0.63038  0.39224  0.02448  Biso   1.000  C
  C258     1.0000 0.96449  0.15690  0.11457  Biso   1.000  C
  C259     1.0000 0.06789  0.99858  0.18389  Biso   1.000  C
  C260     1.0000 0.32842  0.89258  0.53673  Biso   1.000  C
  C261     1.0000 0.97298  0.65480  0.42180  Biso   1.000  C
  C262     1.0000 0.57447  0.98106  0.36586  Biso   1.000  C
  C263     1.0000 0.81915  0.89165  0.00250  Biso   1.000  C
  C264     1.0000 0.47997  0.64219  0.13128  Biso   1.000  C
  C265     1.0000 0.99955  0.09082  0.86760  Biso   1.000  C
  C266     1.0000 0.81147  0.99185  0.10942  Biso   1.000  C
  C267     1.0000 0.07278  0.84601  0.02521  Biso   1.000  C
  C268     1.0000 0.48880  0.10663  0.67177  Biso   1.000  C
  C269     1.0000 0.32195  0.98595  0.42720  Biso   1.000  C
  C270     1.0000 0.58848  0.84173  0.53559  Biso   1.000  C
  C271     1.0000 0.48545  0.60892  0.87424  Biso   1.000  C
  C272     1.0000 0.63216  0.50022  0.12180  Biso   1.000  C
  C273     1.0000 0.37529  0.34410  0.02409  Biso   1.000  C
  C274     1.0000 0.98464  0.58507  0.68197  Biso   1.000  C
  C275     1.0000 0.12839  0.49345  0.41725  Biso   1.000  C
  C276     1.0000 0.88374  0.33247  0.51508  Biso   1.000  C
  C277     1.0000 0.95590  0.90162  0.17426  Biso   1.000  C
  C278     1.0000 0.14123  0.99398  0.92557  Biso   1.000  C
  C279     1.0000 0.87474  0.14808  0.00546  Biso   1.000  C
  C280     1.0000 0.46948  0.88447  0.37970  Biso   1.000  C
  C281     1.0000 0.63888  0.98666  0.61255  Biso   1.000  C
  C282     1.0000 0.38505  0.15150  0.51503  Biso   1.000  C
  C283     1.0000 0.48215  0.38582  0.17386  Biso   1.000  C
  C284     1.0000 0.32955  0.50689  0.92316  Biso   1.000  C
  C285     1.0000 0.58196  0.64472  0.02368  Biso   1.000  C
  C286     1.0000 0.97082  0.39833  0.36477  Biso   1.000  C
  C287     1.0000 0.83278  0.48350  0.62392  Biso   1.000  C
  C288     1.0000 0.08111  0.64980  0.53119  Biso   1.000  C
  C289     1.0000 0.32623  0.86075  0.53669  Biso   1.000  C
  C290     1.0000 0.47881  0.34943  0.88204  Biso   1.000  C
  C291     1.0000 0.83890  0.51147  0.36957  Biso   1.000  C
  C292     1.0000 0.81675  0.86005  0.00296  Biso   1.000  C
  C293     1.0000 0.99378  0.32868  0.65056  Biso   1.000  C
  C294     1.0000 0.34670  0.48128  0.18216  Biso   1.000  C
  C295     1.0000 0.13898  0.36225  0.52278  Biso   1.000  C
  C296     1.0000 0.98351  0.83388  0.89278  Biso   1.000  C
  C297     1.0000 0.60571  0.98045  0.36243  Biso   1.000  C
  C298     1.0000 0.63009  0.36127  0.01947  Biso   1.000  C
  C299     1.0000 0.46844  0.85252  0.66208  Biso   1.000  C
  C300     1.0000 0.09958  0.99906  0.18562  Biso   1.000  C
  C301     1.0000 0.63733  0.12372  0.51799  Biso   1.000  C
  C302     1.0000 0.48114  0.64104  0.16287  Biso   1.000  C
  C303     1.0000 0.12015  0.48760  0.67117  Biso   1.000  C
  C304     1.0000 0.13560  0.12947  0.03366  Biso   1.000  C
  C305     1.0000 0.96754  0.65623  0.39130  Biso   1.000  C
  C306     1.0000 0.61936  0.50552  0.86695  Biso   1.000  C
  C307     1.0000 0.82534  0.61705  0.52432  Biso   1.000  C
  C308     1.0000 0.96095  0.15810  0.14572  Biso   1.000  C
  C309     1.0000 0.35439  0.00948  0.68521  Biso   1.000  C
  C310     1.0000 0.32713  0.63530  0.02760  Biso   1.000  C
  C311     1.0000 0.48929  0.14584  0.38431  Biso   1.000  C
  C312     1.0000 0.85154  0.00479  0.85430  Biso   1.000  C
  C313     1.0000 0.12957  0.49308  0.38619  Biso   1.000  C
  C314     1.0000 0.35359  0.15091  0.52096  Biso   1.000  C
  C315     1.0000 0.48298  0.35362  0.17158  Biso   1.000  C
  C316     1.0000 0.63259  0.50385  0.15348  Biso   1.000  C
  C317     1.0000 0.84333  0.15011  0.00480  Biso   1.000  C
  C318     1.0000 0.97332  0.36710  0.36368  Biso   1.000  C
  C319     1.0000 0.31717  0.98763  0.39604  Biso   1.000  C
  C320     1.0000 0.11293  0.65027  0.53308  Biso   1.000  C
  C321     1.0000 0.96099  0.87083  0.17838  Biso   1.000  C
  C322     1.0000 0.80860  0.99297  0.14015  Biso   1.000  C
  C323     1.0000 0.61068  0.64400  0.01257  Biso   1.000  C
  C324     1.0000 0.47459  0.85265  0.37879  Biso   1.000  C
  C325     1.0000 0.83207  0.48975  0.65545  Biso   1.000  C
  C326     1.0000 0.62031  0.83932  0.53319  Biso   1.000  C
  C327     1.0000 0.48330  0.64113  0.87407  Biso   1.000  C
  C328     1.0000 0.32867  0.50378  0.89188  Biso   1.000  C
  C329     1.0000 0.10397  0.84254  0.02643  Biso   1.000  C
  C330     1.0000 0.98187  0.61581  0.68273  Biso   1.000  C
  C331     1.0000 0.64007  0.99098  0.64414  Biso   1.000  C
  C332     1.0000 0.85228  0.33072  0.51739  Biso   1.000  C
  C333     1.0000 0.99880  0.12189  0.86655  Biso   1.000  C
  C334     1.0000 0.14426  0.99421  0.89413  Biso   1.000  C
  C335     1.0000 0.34483  0.34484  0.02481  Biso   1.000  C
  C336     1.0000 0.48601  0.13791  0.66871  Biso   1.000  C
  C337     1.0000 0.64080  0.49755  0.88680  Biso   1.000  C
  C338     1.0000 0.84513  0.63985  0.52323  Biso   1.000  C
  C339     1.0000 0.46996  0.87562  0.68192  Biso   1.000  C
  C340     1.0000 0.14201  0.48883  0.65104  Biso   1.000  C
  C341     1.0000 0.34868  0.65712  0.02389  Biso   1.000  C
  C342     1.0000 0.98461  0.85626  0.87100  Biso   1.000  C
  C343     1.0000 0.82835  0.00836  0.87358  Biso   1.000  C
  C344     1.0000 0.61676  0.14519  0.52067  Biso   1.000  C
  C345     1.0000 0.99236  0.34981  0.67330  Biso   1.000  C
  C346     1.0000 0.33151  0.00769  0.66424  Biso   1.000  C
  C347     1.0000 0.11228  0.15055  0.03162  Biso   1.000  C
  C348     1.0000 0.48161  0.37213  0.86166  Biso   1.000  C
  C349     1.0000 0.32488  0.48234  0.15961  Biso   1.000  C
  C350     1.0000 0.11826  0.33987  0.52041  Biso   1.000  C
  C351     1.0000 0.48536  0.12309  0.36355  Biso   1.000  C
  C352     1.0000 0.81622  0.50641  0.38993  Biso   1.000  C
  C353     1.0000 0.60856  0.34028  0.01648  Biso   1.000  C
  C354     1.0000 0.96009  0.13830  0.16950  Biso   1.000  C
  C355     1.0000 0.12294  0.99847  0.16551  Biso   1.000  C
  C356     1.0000 0.34772  0.83903  0.53278  Biso   1.000  C
  C357     1.0000 0.96847  0.63543  0.36924  Biso   1.000  C
  C358     1.0000 0.62974  0.97978  0.38117  Biso   1.000  C
  C359     1.0000 0.83718  0.83730  0.00834  Biso   1.000  C
  C360     1.0000 0.48046  0.61856  0.18359  Biso   1.000  C
  C361     1.0000 0.99986  0.14353  0.88807  Biso   1.000  C
  C362     1.0000 0.83006  0.99849  0.16194  Biso   1.000  C
  C363     1.0000 0.12637  0.86233  0.03212  Biso   1.000  C
  C364     1.0000 0.48116  0.15740  0.64640  Biso   1.000  C
  C365     1.0000 0.33690  0.98930  0.37296  Biso   1.000  C
  C366     1.0000 0.64208  0.85900  0.52416  Biso   1.000  C
  C367     1.0000 0.48358  0.66271  0.89609  Biso   1.000  C
  C368     1.0000 0.61165  0.50156  0.17539  Biso   1.000  C
  C369     1.0000 0.32452  0.36670  0.02619  Biso   1.000  C
  C370     1.0000 0.97819  0.63693  0.66181  Biso   1.000  C
  C371     1.0000 0.10719  0.49313  0.36434  Biso   1.000  C
  C372     1.0000 0.82912  0.35103  0.51572  Biso   1.000  C
  C373     1.0000 0.96408  0.84762  0.15814  Biso   1.000  C
  C374     1.0000 0.12298  0.99417  0.87239  Biso   1.000  C
  C375     1.0000 0.82069  0.12968  0.00574  Biso   1.000  C
  C376     1.0000 0.47920  0.83198  0.40031  Biso   1.000  C
  C377     1.0000 0.61982  0.99057  0.66722  Biso   1.000  C
  C378     1.0000 0.33268  0.12975  0.52497  Biso   1.000  C
  C379     1.0000 0.48322  0.33266  0.14993  Biso   1.000  C
  C380     1.0000 0.35096  0.50121  0.87109  Biso   1.000  C
  C381     1.0000 0.63262  0.62215  0.00590  Biso   1.000  C
  C382     1.0000 0.97518  0.34528  0.38439  Biso   1.000  C
  C383     1.0000 0.85379  0.49243  0.67679  Biso   1.000  C
  C384     1.0000 0.13627  0.63005  0.53033  Biso   1.000  C
  C385     1.0000 0.16154  0.14713  0.03542  Biso   1.000  C
  C386     1.0000 0.95964  0.18569  0.16133  Biso   1.000  C
  C387     1.0000 0.11349  0.00207  0.21236  Biso   1.000  C
  C388     1.0000 0.66443  0.13671  0.51806  Biso   1.000  C
  C389     1.0000 0.49197  0.17194  0.36717  Biso   1.000  C
  C390     1.0000 0.61861  0.97979  0.33428  Biso   1.000  C
  C391     1.0000 0.29960  0.64993  0.02444  Biso   1.000  C
  C392     1.0000 0.48265  0.66663  0.18076  Biso   1.000  C
  C393     1.0000 0.33004  0.47820  0.20858  Biso   1.000  C
  C394     1.0000 0.79758  0.63122  0.52514  Biso   1.000  C
  C395     1.0000 0.96571  0.68371  0.37792  Biso   1.000  C
  C396     1.0000 0.82432  0.51978  0.34429  Biso   1.000  C
  C397     1.0000 0.78936  0.84442  0.99626  Biso   1.000  C
  C398     1.0000 0.98176  0.80746  0.87741  Biso   1.000  C
  C399     1.0000 0.83835  0.00615  0.82674  Biso   1.000  C
  C400     1.0000 0.29916  0.84468  0.53816  Biso   1.000  C
  C401     1.0000 0.46743  0.82655  0.67886  Biso   1.000  C
  C402     1.0000 0.34024  0.00011  0.70981  Biso   1.000  C
  C403     1.0000 0.65690  0.34568  0.01764  Biso   1.000  C
  C404     1.0000 0.47872  0.32218  0.86506  Biso   1.000  C
  C405     1.0000 0.63571  0.50914  0.84064  Biso   1.000  C
  C406     1.0000 0.16667  0.34771  0.52702  Biso   1.000  C
  C407     1.0000 0.99849  0.30164  0.66631  Biso   1.000  C
  C408     1.0000 0.13610  0.48744  0.69875  Biso   1.000  C
  C409     1.0000 0.13955  0.99576  0.84615  Biso   1.000  C
  C410     1.0000 0.79427  0.14679  0.00512  Biso   1.000  C
  C411     1.0000 0.96531  0.82182  0.17470  Biso   1.000  C
  C412     1.0000 0.63630  0.00168  0.69203  Biso   1.000  C
  C413     1.0000 0.30539  0.14450  0.52704  Biso   1.000  C
  C414     1.0000 0.48217  0.80492  0.38503  Biso   1.000  C
  C415     1.0000 0.33591  0.49693  0.84435  Biso   1.000  C
  C416     1.0000 0.65839  0.63890  0.99657  Biso   1.000  C
  C417     1.0000 0.48740  0.30442  0.16463  Biso   1.000  C
  C418     1.0000 0.83839  0.49757  0.70319  Biso   1.000  C
  C419     1.0000 0.16217  0.64586  0.53203  Biso   1.000  C
  C420     1.0000 0.97427  0.31853  0.36713  Biso   1.000  C
  C421     1.0000 0.81368  0.99720  0.18771  Biso   1.000  C
  C422     1.0000 0.15251  0.84453  0.03553  Biso   1.000  C
  C423     1.0000 0.00272  0.17009  0.87327  Biso   1.000  C
  C424     1.0000 0.31926  0.98837  0.34665  Biso   1.000  C
  C425     1.0000 0.66842  0.84213  0.52415  Biso   1.000  C
  C426     1.0000 0.47910  0.18537  0.65987  Biso   1.000  C
  C427     1.0000 0.62660  0.50819  0.20289  Biso   1.000  C
  C428     1.0000 0.29732  0.35177  0.02698  Biso   1.000  C
  C429     1.0000 0.47917  0.68909  0.88213  Biso   1.000  C
  C430     1.0000 0.12313  0.49223  0.33770  Biso   1.000  C
  C431     1.0000 0.80385  0.33420  0.52025  Biso   1.000  C
  C432     1.0000 0.97766  0.66336  0.67777  Biso   1.000  C
  C433     1.0000 0.99912  0.13908  0.84007  Biso   1.000  C
  C434     1.0000 0.78094  0.98930  0.15478  Biso   1.000  C
  C435     1.0000 0.11887  0.81464  0.02640  Biso   1.000  C
  C436     1.0000 0.48808  0.15568  0.69434  Biso   1.000  C
  C437     1.0000 0.28918  0.98741  0.38280  Biso   1.000  C
  C438     1.0000 0.63438  0.81241  0.53660  Biso   1.000  C
  C439     1.0000 0.47983  0.65717  0.84733  Biso   1.000  C
  C440     1.0000 0.65965  0.51178  0.16883  Biso   1.000  C
  C441     1.0000 0.32850  0.31824  0.02439  Biso   1.000  C
  C442     1.0000 0.98260  0.63063  0.70946  Biso   1.000  C
  C443     1.0000 0.15656  0.49256  0.36955  Biso   1.000  C
  C444     1.0000 0.83978  0.30362  0.52297  Biso   1.000  C
  C445     1.0000 0.95736  0.85631  0.20561  Biso   1.000  C
  C446     1.0000 0.17225  0.99535  0.88035  Biso   1.000  C
  C447     1.0000 0.82781  0.17688  0.00128  Biso   1.000  C
  C448     1.0000 0.47340  0.83634  0.35269  Biso   1.000  C
  C449     1.0000 0.66691  0.00010  0.65637  Biso   1.000  C
  C450     1.0000 0.33672  0.17781  0.52107  Biso   1.000  C
  C451     1.0000 0.48537  0.33630  0.19715  Biso   1.000  C
  C452     1.0000 0.30185  0.50277  0.87664  Biso   1.000  C
  C453     1.0000 0.62550  0.67118  0.00450  Biso   1.000  C
  C454     1.0000 0.96923  0.35229  0.33698  Biso   1.000  C
  C455     1.0000 0.80454  0.49251  0.67054  Biso   1.000  C
  C456     1.0000 0.12734  0.67693  0.53599  Biso   1.000  C
  C457     1.0000 0.96755  0.65299  0.34349  Biso   1.000  C
  C458     1.0000 0.30521  0.00157  0.67973  Biso   1.000  C
  C459     1.0000 0.62406  0.31394  0.01035  Biso   1.000  C
  C460     1.0000 0.48443  0.63271  0.21180  Biso   1.000  C
  C461     1.0000 0.80257  0.01129  0.85618  Biso   1.000  C
  C462     1.0000 0.13675  0.31362  0.52136  Biso   1.000  C
  C463     1.0000 0.48652  0.13700  0.33505  Biso   1.000  C
  C464     1.0000 0.16886  0.49174  0.66720  Biso   1.000  C
  C465     1.0000 0.82044  0.81089  0.00711  Biso   1.000  C
  C466     1.0000 0.95871  0.15534  0.19474  Biso   1.000  C
  C467     1.0000 0.66837  0.49825  0.87292  Biso   1.000  C
  C468     1.0000 0.33208  0.81064  0.53323  Biso   1.000  C
  C469     1.0000 0.99874  0.33366  0.70190  Biso   1.000  C
  C470     1.0000 0.65485  0.97899  0.36220  Biso   1.000  C
  C471     1.0000 0.33269  0.68314  0.02205  Biso   1.000  C
  C472     1.0000 0.48118  0.35701  0.83378  Biso   1.000  C
  C473     1.0000 0.14939  0.99977  0.18242  Biso   1.000  C
  C474     1.0000 0.82945  0.66546  0.52647  Biso   1.000  C
  C475     1.0000 0.46972  0.86115  0.70903  Biso   1.000  C
  C476     1.0000 0.78893  0.50988  0.37387  Biso   1.000  C
  C477     1.0000 0.12687  0.17828  0.03234  Biso   1.000  C
  C478     1.0000 0.98340  0.83986  0.84507  Biso   1.000  C
  C479     1.0000 0.29833  0.48188  0.17574  Biso   1.000  C
  C480     1.0000 0.63306  0.17167  0.52212  Biso   1.000  C
  C481     1.0000 0.34802  0.78418  0.53228  Biso   1.000  C
  C482     1.0000 0.48217  0.37414  0.80684  Biso   1.000  C
  C483     1.0000 0.76211  0.49898  0.38624  Biso   1.000  C
  C484     1.0000 0.83656  0.78327  0.01194  Biso   1.000  C
  C485     1.0000 0.00253  0.34950  0.72922  Biso   1.000  C
  C486     1.0000 0.27092  0.48390  0.16020  Biso   1.000  C
  C487     1.0000 0.12262  0.28450  0.52054  Biso   1.000  C
  C488     1.0000 0.98458  0.85515  0.81624  Biso   1.000  C
  C489     1.0000 0.68324  0.97917  0.37632  Biso   1.000  C
  C490     1.0000 0.60710  0.28568  0.00385  Biso   1.000  C
  C491     1.0000 0.47059  0.87830  0.73731  Biso   1.000  C
  C492     1.0000 0.17647  0.99368  0.16783  Biso   1.000  C
  C493     1.0000 0.61884  0.20010  0.52704  Biso   1.000  C
  C494     1.0000 0.48706  0.61418  0.23691  Biso   1.000  C
  C495     1.0000 0.19534  0.50095  0.65319  Biso   1.000  C
  C496     1.0000 0.10883  0.20411  0.03179  Biso   1.000  C
  C497     1.0000 0.97076  0.63594  0.31685  Biso   1.000  C
  C498     1.0000 0.69459  0.49027  0.88856  Biso   1.000  C
  C499     1.0000 0.84371  0.69152  0.53263  Biso   1.000  C
  C500     1.0000 0.95896  0.14135  0.22389  Biso   1.000  C
  C501     1.0000 0.27769  0.00045  0.66405  Biso   1.000  C
  C502     1.0000 0.34807  0.71011  0.01842  Biso   1.000  C
  C503     1.0000 0.48206  0.12036  0.30885  Biso   1.000  C
  C504     1.0000 0.77468  0.01346  0.87034  Biso   1.000  C
  C505     1.0000 0.61887  0.51643  0.81505  Biso   1.000  C
  C506     1.0000 0.77073  0.61370  0.52294  Biso   1.000  C
  C507     1.0000 0.46720  0.79788  0.66416  Biso   1.000  C
  C508     1.0000 0.12241  0.48359  0.72634  Biso   1.000  C
  C509     1.0000 0.27385  0.63193  0.02462  Biso   1.000  C
  C510     1.0000 0.97778  0.78033  0.89305  Biso   1.000  C
  C511     1.0000 0.85544  0.00531  0.80100  Biso   1.000  C
  C512     1.0000 0.69112  0.11936  0.51692  Biso   1.000  C
  C513     1.0000 0.00006  0.27323  0.65084  Biso   1.000  C
  C514     1.0000 0.35930  0.99708  0.73570  Biso   1.000  C
  C515     1.0000 0.18872  0.13092  0.03387  Biso   1.000  C
  C516     1.0000 0.47543  0.29544  0.88095  Biso   1.000  C
  C517     1.0000 0.34768  0.47756  0.23589  Biso   1.000  C
  C518     1.0000 0.19442  0.36463  0.52949  Biso   1.000  C
  C519     1.0000 0.49781  0.19858  0.38221  Biso   1.000  C
  C520     1.0000 0.84319  0.53052  0.32032  Biso   1.000  C
  C521     1.0000 0.68452  0.36145  0.01901  Biso   1.000  C
  C522     1.0000 0.96080  0.21306  0.14442  Biso   1.000  C
  C523     1.0000 0.09719  0.00468  0.23838  Biso   1.000  C
  C524     1.0000 0.27250  0.86160  0.54256  Biso   1.000  C
  C525     1.0000 0.96348  0.71033  0.39638  Biso   1.000  C
  C526     1.0000 0.59969  0.97536  0.30909  Biso   1.000  C
  C527     1.0000 0.76442  0.86293  0.99011  Biso   1.000  C
  C528     1.0000 0.47900  0.69533  0.16542  Biso   1.000  C
  C529     1.0000 0.76628  0.13199  0.00751  Biso   1.000  C
  C530     1.0000 0.97084  0.79422  0.16054  Biso   1.000  C
  C531     1.0000 0.12323  0.99838  0.81840  Biso   1.000  C
  C532     1.0000 0.27815  0.12876  0.53247  Biso   1.000  C
  C533     1.0000 0.48987  0.77868  0.40058  Biso   1.000  C
  C534     1.0000 0.62294  0.00545  0.71974  Biso   1.000  C
  C535     1.0000 0.68453  0.62370  0.98760  Biso   1.000  C
  C536     1.0000 0.49063  0.27786  0.14753  Biso   1.000  C
  C537     1.0000 0.35244  0.48655  0.81980  Biso   1.000  C
  C538     1.0000 0.18919  0.62874  0.52974  Biso   1.000  C
  C539     1.0000 0.97951  0.29129  0.38187  Biso   1.000  C
  C540     1.0000 0.85489  0.50124  0.72969  Biso   1.000  C
  C541     1.0000 0.17820  0.85980  0.04334  Biso   1.000  C
  C542     1.0000 0.00589  0.19639  0.89004  Biso   1.000  C
  C543     1.0000 0.82659  0.00299  0.21603  Biso   1.000  C
  C544     1.0000 0.69589  0.85653  0.51482  Biso   1.000  C
  C545     1.0000 0.46985  0.20976  0.64130  Biso   1.000  C
  C546     1.0000 0.33322  0.98550  0.31701  Biso   1.000  C
  C547     1.0000 0.26919  0.36760  0.02837  Biso   1.000  C
  C548     1.0000 0.47524  0.71553  0.90153  Biso   1.000  C
  C549     1.0000 0.60990  0.50782  0.22915  Biso   1.000  C
  C550     1.0000 0.77520  0.34759  0.51880  Biso   1.000  C
  C551     1.0000 0.97599  0.69181  0.66277  Biso   1.000  C
  C552     1.0000 0.10831  0.49080  0.31028  Biso   1.000  C
  C553     1.0000 0.99268  0.12142  0.81343  Biso   1.000  C
  C554     1.0000 0.75582  0.98436  0.13766  Biso   1.000  C
  C555     1.0000 0.10209  0.78894  0.02099  Biso   1.000  C
  C556     1.0000 0.49510  0.14405  0.72277  Biso   1.000  C
  C557     1.0000 0.26372  0.98747  0.40176  Biso   1.000  C
  C558     1.0000 0.61655  0.78792  0.54607  Biso   1.000  C
  C559     1.0000 0.47882  0.64187  0.81986  Biso   1.000  C
  C560     1.0000 0.68578  0.51449  0.15334  Biso   1.000  C
  C561     1.0000 0.34244  0.28996  0.02151  Biso   1.000  C
  C562     1.0000 0.98672  0.61528  0.73649  Biso   1.000  C
  C563     1.0000 0.18369  0.49521  0.38559  Biso   1.000  C
  C564     1.0000 0.85807  0.27624  0.52662  Biso   1.000  C
  C565     1.0000 0.95247  0.87356  0.23113  Biso   1.000  C
  C566     1.0000 0.19852  0.99485  0.89966  Biso   1.000  C
  C567     1.0000 0.84609  0.20407  0.99541  Biso   1.000  C
  C568     1.0000 0.46864  0.85222  0.32549  Biso   1.000  C
  C569     1.0000 0.69225  0.00581  0.63897  Biso   1.000  C
  C570     1.0000 0.35189  0.20481  0.51396  Biso   1.000  C
  C571     1.0000 0.48858  0.34940  0.22628  Biso   1.000  C
  C572     1.0000 0.27476  0.50262  0.89202  Biso   1.000  C
  C573     1.0000 0.61113  0.69907  0.00992  Biso   1.000  C
  C574     1.0000 0.96109  0.36955  0.31047  Biso   1.000  C
  C575     1.0000 0.77743  0.48766  0.65488  Biso   1.000  C
  C576     1.0000 0.11012  0.70393  0.53827  Biso   1.000  C
  C577     1.0000 0.27159  0.48793  0.12879  Biso   1.000  C
  C578     1.0000 0.09154  0.28310  0.51689  Biso   1.000  C
  C579     1.0000 0.47964  0.08926  0.31009  Biso   1.000  C
  C580     1.0000 0.76306  0.49111  0.41740  Biso   1.000  C
  C581     1.0000 0.57668  0.28688  0.00558  Biso   1.000  C
  C582     1.0000 0.96193  0.10984  0.22534  Biso   1.000  C
  C583     1.0000 0.17773  0.98964  0.13653  Biso   1.000  C
  C584     1.0000 0.37903  0.78363  0.52758  Biso   1.000  C
  C585     1.0000 0.97556  0.60551  0.31664  Biso   1.000  C
  C586     1.0000 0.68674  0.97939  0.40664  Biso   1.000  C
  C587     1.0000 0.86750  0.78209  0.01892  Biso   1.000  C
  C588     1.0000 0.48199  0.58342  0.23546  Biso   1.000  C
  C589     1.0000 0.69269  0.47971  0.91834  Biso   1.000  C
  C590     1.0000 0.87389  0.69322  0.53425  Biso   1.000  C
  C591     1.0000 0.47281  0.90884  0.73601  Biso   1.000  C
  C592     1.0000 0.19301  0.50296  0.62140  Biso   1.000  C
  C593     1.0000 0.37961  0.70882  0.01917  Biso   1.000  C
  C594     1.0000 0.98501  0.88526  0.81392  Biso   1.000  C
  C595     1.0000 0.77362  0.01372  0.90036  Biso   1.000  C
  C596     1.0000 0.58712  0.20138  0.52926  Biso   1.000  C
  C597     1.0000 0.99953  0.38017  0.72813  Biso   1.000  C
  C598     1.0000 0.27634  0.00505  0.63324  Biso   1.000  C
  C599     1.0000 0.07730  0.20090  0.02811  Biso   1.000  C
  C600     1.0000 0.48059  0.40655  0.80858  Biso   1.000  C
  C601     1.0000 0.19577  0.99614  0.93133  Biso   1.000  C
  C602     1.0000 0.87650  0.20317  0.99594  Biso   1.000  C
  C603     1.0000 0.95068  0.90493  0.22918  Biso   1.000  C
  C604     1.0000 0.69119  0.00203  0.60657  Biso   1.000  C
  C605     1.0000 0.38354  0.20538  0.50681  Biso   1.000  C
  C606     1.0000 0.46388  0.88249  0.32501  Biso   1.000  C
  C607     1.0000 0.27627  0.50588  0.92320  Biso   1.000  C
  C608     1.0000 0.58233  0.69931  0.02123  Biso   1.000  C
  C609     1.0000 0.48765  0.38117  0.22853  Biso   1.000  C
  C610     1.0000 0.77764  0.48102  0.62415  Biso   1.000  C
  C611     1.0000 0.07827  0.70364  0.53371  Biso   1.000  C
  C612     1.0000 0.96203  0.40078  0.31047  Biso   1.000  C
  C613     1.0000 0.75848  0.98324  0.10533  Biso   1.000  C
  C614     1.0000 0.07114  0.79132  0.02346  Biso   1.000  C
  C615     1.0000 0.99177  0.09075  0.81469  Biso   1.000  C
  C616     1.0000 0.26818  0.98794  0.43266  Biso   1.000  C
  C617     1.0000 0.58459  0.79002  0.54687  Biso   1.000  C
  C618     1.0000 0.49677  0.11397  0.72620  Biso   1.000  C
  C619     1.0000 0.68473  0.51514  0.12238  Biso   1.000  C
  C620     1.0000 0.37328  0.28807  0.02043  Biso   1.000  C
  C621     1.0000 0.48118  0.61037  0.81875  Biso   1.000  C
  C622     1.0000 0.18323  0.49672  0.41638  Biso   1.000  C
  C623     1.0000 0.89073  0.27787  0.52146  Biso   1.000  C
  C624     1.0000 0.99010  0.58396  0.73761  Biso   1.000  C
  C625     1.0000 0.00503  0.19621  0.92039  Biso   1.000  C
  C626     1.0000 0.85801  0.00704  0.21797  Biso   1.000  C
  C627     1.0000 0.17824  0.89216  0.04380  Biso   1.000  C
  C628     1.0000 0.46824  0.20700  0.61106  Biso   1.000  C
  C629     1.0000 0.36450  0.98774  0.31566  Biso   1.000  C
  C630     1.0000 0.69462  0.88638  0.50554  Biso   1.000  C
  C631     1.0000 0.48000  0.71249  0.93258  Biso   1.000  C
  C632     1.0000 0.57880  0.50100  0.22845  Biso   1.000  C
  C633     1.0000 0.26936  0.39920  0.02862  Biso   1.000  C
  C634     1.0000 0.97630  0.69125  0.63182  Biso   1.000  C
  C635     1.0000 0.07675  0.49155  0.30908  Biso   1.000  C
  C636     1.0000 0.77317  0.37916  0.51256  Biso   1.000  C
  C637     1.0000 0.97543  0.79425  0.12988  Biso   1.000  C
  C638     1.0000 0.09091  0.99248  0.81834  Biso   1.000  C
  C639     1.0000 0.76462  0.10071  0.01028  Biso   1.000  C
  C640     1.0000 0.49247  0.77981  0.43193  Biso   1.000  C
  C641     1.0000 0.59097  0.00323  0.72309  Biso   1.000  C
  C642     1.0000 0.27993  0.09731  0.52869  Biso   1.000  C
  C643     1.0000 0.48967  0.27902  0.11520  Biso   1.000  C
  C644     1.0000 0.38366  0.48650  0.82133  Biso   1.000  C
  C645     1.0000 0.68589  0.59172  0.98919  Biso   1.000  C
  C646     1.0000 0.98472  0.29092  0.41307  Biso   1.000  C
  C647     1.0000 0.88660  0.50080  0.72946  Biso   1.000  C
  C648     1.0000 0.18855  0.59831  0.52665  Biso   1.000  C
  C649     1.0000 0.96788  0.70782  0.42780  Biso   1.000  C
  C650     1.0000 0.39015  0.00184  0.73656  Biso   1.000  C
  C651     1.0000 0.68474  0.39139  0.02579  Biso   1.000  C
  C652     1.0000 0.47780  0.69652  0.13344  Biso   1.000  C
  C653     1.0000 0.88563  0.00130  0.80306  Biso   1.000  C
  C654     1.0000 0.19176  0.39664  0.52881  Biso   1.000  C
  C655     1.0000 0.50354  0.20058  0.41457  Biso   1.000  C
  C656     1.0000 0.09075  0.48063  0.72608  Biso   1.000  C
  C657     1.0000 0.76585  0.89430  0.98919  Biso   1.000  C
  C658     1.0000 0.96221  0.21024  0.11210  Biso   1.000  C
  C659     1.0000 0.58720  0.51762  0.81771  Biso   1.000  C
  C660     1.0000 0.27359  0.89221  0.54613  Biso   1.000  C
  C661     1.0000 0.99668  0.27502  0.62000  Biso   1.000  C
  C662     1.0000 0.56774  0.97824  0.31086  Biso   1.000  C
  C663     1.0000 0.27658  0.60088  0.02423  Biso   1.000  C
  C664     1.0000 0.47110  0.29616  0.91178  Biso   1.000  C
  C665     1.0000 0.06515  0.00528  0.23765  Biso   1.000  C
  C666     1.0000 0.77278  0.58284  0.52492  Biso   1.000  C
  C667     1.0000 0.46752  0.79617  0.63239  Biso   1.000  C
  C668     1.0000 0.87371  0.53045  0.32022  Biso   1.000  C
  C669     1.0000 0.19050  0.09910  0.03161  Biso   1.000  C
  C670     1.0000 0.97565  0.78044  0.92435  Biso   1.000  C
  C671     1.0000 0.37916  0.47837  0.23681  Biso   1.000  C
  C672     1.0000 0.68916  0.08846  0.51950  Biso   1.000  C
  C673     1.0000 0.18759  0.99707  0.83410  Biso   1.000  C
  C674     1.0000 0.78261  0.19524  0.99655  Biso   1.000  C
  C675     1.0000 0.96201  0.81110  0.22111  Biso   1.000  C
  C676     1.0000 0.68344  0.01063  0.70255  Biso   1.000  C
  C677     1.0000 0.29116  0.19109  0.52609  Biso   1.000  C
  C678     1.0000 0.47931  0.78838  0.33901  Biso   1.000  C
  C679     1.0000 0.29076  0.49343  0.82812  Biso   1.000  C
  C680     1.0000 0.67051  0.68590  0.99097  Biso   1.000  C
  C681     1.0000 0.49335  0.29175  0.21085  Biso   1.000  C
  C682     1.0000 0.79192  0.49974  0.71786  Biso   1.000  C
  C683     1.0000 0.17442  0.69250  0.53896  Biso   1.000  C
  C684     1.0000 0.96888  0.30556  0.32013  Biso   1.000  C
  C685     1.0000 0.76568  0.98888  0.20303  Biso   1.000  C
  C686     1.0000 0.16831  0.79879  0.02903  Biso   1.000  C
  C687     1.0000 0.00364  0.18367  0.82533  Biso   1.000  C
  C688     1.0000 0.27221  0.99013  0.33722  Biso   1.000  C
  C689     1.0000 0.68086  0.79517  0.52998  Biso   1.000  C
  C690     1.0000 0.48218  0.20275  0.70735  Biso   1.000  C
  C691     1.0000 0.67230  0.51740  0.21708  Biso   1.000  C
  C692     1.0000 0.28172  0.30544  0.02615  Biso   1.000  C
  C693     1.0000 0.47311  0.70428  0.83720  Biso   1.000  C
  C694     1.0000 0.17036  0.48822  0.32212  Biso   1.000  C
  C695     1.0000 0.79249  0.28822  0.53011  Biso   1.000  C
  C696     1.0000 0.98394  0.67611  0.72487  Biso   1.000  C
  C697     1.0000 0.66246  0.97833  0.31412  Biso   1.000  C
  C698     1.0000 0.28519  0.69579  0.02325  Biso   1.000  C
  C699     1.0000 0.00332  0.28762  0.71524  Biso   1.000  C
  C700     1.0000 0.15875  0.00124  0.22953  Biso   1.000  C
  C701     1.0000 0.78236  0.67816  0.52636  Biso   1.000  C
  C702     1.0000 0.48008  0.31232  0.81640  Biso   1.000  C
  C703     1.0000 0.77818  0.52257  0.32939  Biso   1.000  C
  C704     1.0000 0.17229  0.19526  0.03242  Biso   1.000  C
  C705     1.0000 0.46591  0.81509  0.72680  Biso   1.000  C
  C706     1.0000 0.28327  0.47893  0.22204  Biso   1.000  C
  C707     1.0000 0.68281  0.18269  0.52219  Biso   1.000  C
  C708     1.0000 0.98664  0.79155  0.83218  Biso   1.000  C
  C709     1.0000 0.29502  0.99468  0.72749  Biso   1.000  C
  C710     1.0000 0.67170  0.30092  0.00826  Biso   1.000  C
  C711     1.0000 0.96387  0.70130  0.33109  Biso   1.000  C
  C712     1.0000 0.79349  0.01459  0.80902  Biso   1.000  C
  C713     1.0000 0.18258  0.30143  0.52551  Biso   1.000  C
  C714     1.0000 0.48489  0.67828  0.22755  Biso   1.000  C
  C715     1.0000 0.18532  0.48747  0.71282  Biso   1.000  C
  C716     1.0000 0.77527  0.79886  0.99577  Biso   1.000  C
  C717     1.0000 0.48901  0.18244  0.31860  Biso   1.000  C
  C718     1.0000 0.68280  0.50496  0.82772  Biso   1.000  C
  C719     1.0000 0.28404  0.79781  0.53638  Biso   1.000  C
  C720     1.0000 0.95971  0.20038  0.20916  Biso   1.000  C
  C721     1.0000 0.49467  0.79314  0.31176  Biso   1.000  C
  C722     1.0000 0.29790  0.50271  0.79900  Biso   1.000  C
  C723     1.0000 0.76700  0.29158  0.54819  Biso   1.000  C
  C724     1.0000 0.95045  0.78140  0.21728  Biso   1.000  C
  C725     1.0000 0.76375  0.51267  0.71188  Biso   1.000  C
  C726     1.0000 0.25575  0.30743  0.00613  Biso   1.000  C
  C727     1.0000 0.95350  0.27789  0.32416  Biso   1.000  C
  C728     1.0000 0.21463  0.01255  0.83914  Biso   1.000  C
  C729     1.0000 0.71047  0.79727  0.54052  Biso   1.000  C
  C730     1.0000 0.47248  0.29185  0.23474  Biso   1.000  C
  C731     1.0000 0.71001  0.99560  0.69746  Biso   1.000  C
  C732     1.0000 0.19701  0.80560  0.01664  Biso   1.000  C
  C733     1.0000 0.46609  0.20101  0.73413  Biso   1.000  C
  C734     1.0000 0.66850  0.50671  0.24607  Biso   1.000  C
  C735     1.0000 0.16983  0.71900  0.52232  Biso   1.000  C
  C736     1.0000 0.99011  0.21212  0.82957  Biso   1.000  C
  C737     1.0000 0.19669  0.47108  0.32881  Biso   1.000  C
  C738     1.0000 0.70078  0.68300  0.99848  Biso   1.000  C
  C739     1.0000 0.00681  0.67849  0.74664  Biso   1.000  C
  C740     1.0000 0.76929  0.96743  0.22560  Biso   1.000  C
  C741     1.0000 0.26275  0.18717  0.51289  Biso   1.000  C
  C742     1.0000 0.45472  0.70094  0.81174  Biso   1.000  C
  C743     1.0000 0.27243  0.97621  0.30826  Biso   1.000  C
  C744     1.0000 0.78838  0.22439  0.00801  Biso   1.000  C
  C745     1.0000 0.97855  0.72848  0.33511  Biso   1.000  C
  C746     1.0000 0.26820  0.97890  0.72479  Biso   1.000  C
  C747     1.0000 0.69871  0.30336  0.02452  Biso   1.000  C
  C748     1.0000 0.50046  0.70633  0.22509  Biso   1.000  C
  C749     1.0000 0.79576  0.99612  0.78352  Biso   1.000  C
  C750     1.0000 0.20645  0.30338  0.54534  Biso   1.000  C
  C751     1.0000 0.50448  0.17791  0.29201  Biso   1.000  C
  C752     1.0000 0.21531  0.47618  0.70898  Biso   1.000  C
  C753     1.0000 0.75318  0.80133  0.97206  Biso   1.000  C
  C754     1.0000 0.98236  0.19959  0.23127  Biso   1.000  C
  C755     1.0000 0.67571  0.49231  0.79839  Biso   1.000  C
  C756     1.0000 0.25910  0.80293  0.55474  Biso   1.000  C
  C757     1.0000 0.98419  0.26121  0.71343  Biso   1.000  C
  C758     1.0000 0.65589  0.99403  0.28815  Biso   1.000  C
  C759     1.0000 0.25820  0.69194  0.04176  Biso   1.000  C
  C760     1.0000 0.50384  0.31312  0.79524  Biso   1.000  C
  C761     1.0000 0.18609  0.01647  0.22540  Biso   1.000  C
  C762     1.0000 0.78687  0.70662  0.51346  Biso   1.000  C
  C763     1.0000 0.48495  0.81588  0.75197  Biso   1.000  C
  C764     1.0000 0.75051  0.53618  0.33493  Biso   1.000  C
  C765     1.0000 0.20005  0.19324  0.04821  Biso   1.000  C
  C766     1.0000 0.97249  0.79464  0.80456  Biso   1.000  C
  C767     1.0000 0.28853  0.49439  0.24939  Biso   1.000  C
  C768     1.0000 0.67995  0.21102  0.50962  Biso   1.000  C
  C769     1.0000 0.48828  0.73060  0.84030  Biso   1.000  C
  C770     1.0000 0.79531  0.48578  0.74670  Biso   1.000  C
  C771     1.0000 0.67115  0.76683  0.51988  Biso   1.000  C
  C772     1.0000 0.96198  0.70022  0.72588  Biso   1.000  C
  C773     1.0000 0.26171  0.48219  0.83219  Biso   1.000  C
  C774     1.0000 0.16343  0.76885  0.03835  Biso   1.000  C
  C775     1.0000 0.01799  0.17621  0.79878  Biso   1.000  C
  C776     1.0000 0.67991  0.02947  0.72700  Biso   1.000  C
  C777     1.0000 0.79535  0.26095  0.51468  Biso   1.000  C
  C778     1.0000 0.49856  0.23032  0.70326  Biso   1.000  C
  C779     1.0000 0.18514  0.97923  0.80836  Biso   1.000  C
  C780     1.0000 0.28448  0.28190  0.04621  Biso   1.000  C
  C781     1.0000 0.51367  0.26757  0.20869  Biso   1.000  C
  C782     1.0000 0.16894  0.50162  0.29341  Biso   1.000  C
  C783     1.0000 0.29751  0.21948  0.54027  Biso   1.000  C
  C784     1.0000 0.98230  0.31117  0.29236  Biso   1.000  C
  C785     1.0000 0.69759  0.53559  0.21301  Biso   1.000  C
  C786     1.0000 0.75496  0.19085  0.98207  Biso   1.000  C
  C787     1.0000 0.97574  0.81624  0.24855  Biso   1.000  C
  C788     1.0000 0.24625  0.00769  0.34349  Biso   1.000  C
  C789     1.0000 0.20124  0.68795  0.55593  Biso   1.000  C
  C790     1.0000 0.46493  0.75969  0.34295  Biso   1.000  C
  C791     1.0000 0.73854  0.00477  0.20013  Biso   1.000  C
  C792     1.0000 0.66206  0.71395  0.97800  Biso   1.000  C
  C793     1.0000 0.47584  0.21121  0.32197  Biso   1.000  C
  C794     1.0000 0.25539  0.46546  0.21646  Biso   1.000  C
  C795     1.0000 0.18357  0.27728  0.50566  Biso   1.000  C
  C796     1.0000 0.94205  0.22700  0.20784  Biso   1.000  C
  C797     1.0000 0.78264  0.51162  0.29987  Biso   1.000  C
  C798     1.0000 0.67049  0.27964  0.98282  Biso   1.000  C
  C799     1.0000 0.95027  0.69861  0.30253  Biso   1.000  C
  C800     1.0000 0.15539  0.98780  0.25714  Biso   1.000  C
  C801     1.0000 0.28463  0.77219  0.51800  Biso   1.000  C
  C802     1.0000 0.47309  0.67276  0.25632  Biso   1.000  C
  C803     1.0000 0.69087  0.96292  0.31498  Biso   1.000  C
  C804     1.0000 0.77427  0.77306  0.01441  Biso   1.000  C
  C805     1.0000 0.44737  0.78880  0.72344  Biso   1.000  C
  C806     1.0000 0.71335  0.51679  0.83180  Biso   1.000  C
  C807     1.0000 0.75521  0.67271  0.54268  Biso   1.000  C
  C808     1.0000 0.00082  0.76345  0.83941  Biso   1.000  C
  C809     1.0000 0.18088  0.50305  0.74056  Biso   1.000  C
  C810     1.0000 0.28496  0.72141  0.00256  Biso   1.000  C
  C811     1.0000 0.02387  0.29033  0.73937  Biso   1.000  C
  C812     1.0000 0.76889  0.03610  0.80916  Biso   1.000  C
  C813     1.0000 0.70916  0.17505  0.53895  Biso   1.000  C
  C814     1.0000 0.46029  0.28791  0.81621  Biso   1.000  C
  C815     1.0000 0.30141  0.00864  0.75555  Biso   1.000  C
  C816     1.0000 0.16704  0.22420  0.01890  Biso   1.000  C
  C817     1.0000 0.99360  0.23225  0.80842  Biso   1.000  C
  C818     1.0000 0.74805  0.96184  0.24632  Biso   1.000  C
  C819     1.0000 0.21933  0.78348  0.01587  Biso   1.000  C
  C820     1.0000 0.46795  0.22101  0.75466  Biso   1.000  C
  C821     1.0000 0.25067  0.98217  0.28763  Biso   1.000  C
  C822     1.0000 0.73024  0.77436  0.53975  Biso   1.000  C
  C823     1.0000 0.45422  0.72250  0.79090  Biso   1.000  C
  C824     1.0000 0.68797  0.51265  0.26848  Biso   1.000  C
  C825     1.0000 0.23339  0.28564  0.00853  Biso   1.000  C
  C826     1.0000 0.00848  0.70024  0.76863  Biso   1.000  C
  C827     1.0000 0.21884  0.46856  0.30902  Biso   1.000  C
  C828     1.0000 0.74770  0.26798  0.55019  Biso   1.000  C
  C829     1.0000 0.95316  0.76047  0.23913  Biso   1.000  C
  C830     1.0000 0.23732  0.01120  0.81965  Biso   1.000  C
  C831     1.0000 0.76907  0.24738  0.00506  Biso   1.000  C
  C832     1.0000 0.49648  0.76974  0.29109  Biso   1.000  C
  C833     1.0000 0.73181  0.99947  0.71755  Biso   1.000  C
  C834     1.0000 0.24163  0.20926  0.51404  Biso   1.000  C
  C835     1.0000 0.47337  0.26948  0.25533  Biso   1.000  C
  C836     1.0000 0.27625  0.49975  0.77760  Biso   1.000  C
  C837     1.0000 0.72064  0.70488  0.99355  Biso   1.000  C
  C838     1.0000 0.95188  0.25842  0.30172  Biso   1.000  C
  C839     1.0000 0.74214  0.51556  0.73205  Biso   1.000  C
  C840     1.0000 0.18930  0.74143  0.52487  Biso   1.000  C
  C841     1.0000 0.20741  0.97909  0.78788  Biso   1.000  C
  C842     1.0000 0.73493  0.21336  0.97974  Biso   1.000  C
  C843     1.0000 0.97615  0.79602  0.27254  Biso   1.000  C
  C844     1.0000 0.69999  0.02817  0.74865  Biso   1.000  C
  C845     1.0000 0.27761  0.24158  0.53967  Biso   1.000  C
  C846     1.0000 0.46908  0.73828  0.32151  Biso   1.000  C
  C847     1.0000 0.24170  0.47853  0.80951  Biso   1.000  C
  C848     1.0000 0.68173  0.73666  0.97547  Biso   1.000  C
  C849     1.0000 0.51540  0.24693  0.23143  Biso   1.000  C
  C850     1.0000 0.77364  0.48903  0.76654  Biso   1.000  C
  C851     1.0000 0.22160  0.70948  0.55644  Biso   1.000  C
  C852     1.0000 0.97847  0.29152  0.26966  Biso   1.000  C
  C853     1.0000 0.71837  0.99778  0.22122  Biso   1.000  C
  C854     1.0000 0.18594  0.74937  0.03701  Biso   1.000  C
  C855     1.0000 0.01888  0.19725  0.77766  Biso   1.000  C
  C856     1.0000 0.22422  0.01289  0.32268  Biso   1.000  C
  C857     1.0000 0.69040  0.74346  0.52271  Biso   1.000  C
  C858     1.0000 0.49833  0.25252  0.72453  Biso   1.000  C
  C859     1.0000 0.71686  0.54115  0.23576  Biso   1.000  C
  C860     1.0000 0.26289  0.26207  0.04763  Biso   1.000  C
  C861     1.0000 0.48518  0.75279  0.82034  Biso   1.000  C
  C862     1.0000 0.19192  0.49936  0.27490  Biso   1.000  C
  C863     1.0000 0.77352  0.24045  0.51548  Biso   1.000  C
  C864     1.0000 0.96355  0.72130  0.74913  Biso   1.000  C
  C865     1.0000 0.69695  0.49338  0.77511  Biso   1.000  C
  C866     1.0000 0.76601  0.72806  0.51836  Biso   1.000  C
  C867     1.0000 0.48566  0.79268  0.77055  Biso   1.000  C
  C868     1.0000 0.23439  0.47812  0.73229  Biso   1.000  C
  C869     1.0000 0.23732  0.71292  0.04345  Biso   1.000  C
  C870     1.0000 0.97269  0.77221  0.78438  Biso   1.000  C
  C871     1.0000 0.77416  0.99800  0.76120  Biso   1.000  C
  C872     1.0000 0.70111  0.23151  0.51311  Biso   1.000  C
  C873     1.0000 0.98706  0.23949  0.73558  Biso   1.000  C
  C874     1.0000 0.25051  0.97616  0.74864  Biso   1.000  C
  C875     1.0000 0.22056  0.21569  0.04775  Biso   1.000  C
  C876     1.0000 0.50392  0.29201  0.77222  Biso   1.000  C
  C877     1.0000 0.26648  0.49641  0.26917  Biso   1.000  C
  C878     1.0000 0.22914  0.28317  0.54614  Biso   1.000  C
  C879     1.0000 0.50672  0.20027  0.27274  Biso   1.000  C
  C880     1.0000 0.72965  0.53714  0.31370  Biso   1.000  C
  C881     1.0000 0.72174  0.28452  0.01766  Biso   1.000  C
  C882     1.0000 0.98355  0.22081  0.25284  Biso   1.000  C
  C883     1.0000 0.20789  0.01732  0.24613  Biso   1.000  C
  C884     1.0000 0.23462  0.78405  0.55521  Biso   1.000  C
  C885     1.0000 0.97974  0.75004  0.31522  Biso   1.000  C
  C886     1.0000 0.67461  0.99418  0.26634  Biso   1.000  C
  C887     1.0000 0.73329  0.77792  0.96815  Biso   1.000  C
  C888     1.0000 0.50258  0.72455  0.24840  Biso   1.000  C
  C889     1.0000 0.70886  0.96231  0.29191  Biso   1.000  C
  C890     1.0000 0.26073  0.73933  0.00329  Biso   1.000  C
  C891     1.0000 0.02239  0.26977  0.75990  Biso   1.000  C
  C892     1.0000 0.17710  0.99055  0.27856  Biso   1.000  C
  C893     1.0000 0.73362  0.69464  0.54162  Biso   1.000  C
  C894     1.0000 0.46276  0.26696  0.79611  Biso   1.000  C
  C895     1.0000 0.76232  0.51518  0.27890  Biso   1.000  C
  C896     1.0000 0.18638  0.24703  0.02114  Biso   1.000  C
  C897     1.0000 0.44944  0.76773  0.74426  Biso   1.000  C
  C898     1.0000 0.23473  0.46490  0.23849  Biso   1.000  C
  C899     1.0000 0.72956  0.19642  0.54255  Biso   1.000  C
  C900     1.0000 0.99868  0.74083  0.81892  Biso   1.000  C
  C901     1.0000 0.28143  0.00703  0.77774  Biso   1.000  C
  C902     1.0000 0.69504  0.26435  0.97604  Biso   1.000  C
  C903     1.0000 0.95012  0.71994  0.28216  Biso   1.000  C
  C904     1.0000 0.74725  0.03566  0.78837  Biso   1.000  C
  C905     1.0000 0.20748  0.25818  0.50695  Biso   1.000  C
  C906     1.0000 0.47617  0.69304  0.27810  Biso   1.000  C
  C907     1.0000 0.20059  0.50182  0.76268  Biso   1.000  C
  C908     1.0000 0.75370  0.75188  0.00964  Biso   1.000  C
  C909     1.0000 0.47911  0.23284  0.30221  Biso   1.000  C
  C910     1.0000 0.73287  0.51619  0.80826  Biso   1.000  C
  C911     1.0000 0.26135  0.75262  0.51980  Biso   1.000  C
  C912     1.0000 0.94168  0.24733  0.23037  Biso   1.000  C
  C913     1.0000 0.74752  0.50482  0.75925  Biso   1.000  C
  C914     1.0000 0.72004  0.74726  0.52949  Biso   1.000  C
  C915     1.0000 0.46692  0.75032  0.79521  Biso   1.000  C
  C916     1.0000 0.24870  0.48928  0.78258  Biso   1.000  C
  C917     1.0000 0.21352  0.75603  0.02635  Biso   1.000  C
  C918     1.0000 0.98611  0.72086  0.76980  Biso   1.000  C
  C919     1.0000 0.72678  0.01238  0.74456  Biso   1.000  C
  C920     1.0000 0.74972  0.24398  0.53337  Biso   1.000  C
  C921     1.0000 0.00765  0.22451  0.78272  Biso   1.000  C
  C922     1.0000 0.23247  0.99521  0.79475  Biso   1.000  C
  C923     1.0000 0.23741  0.26471  0.03035  Biso   1.000  C
  C924     1.0000 0.48327  0.24683  0.74996  Biso   1.000  C
  C925     1.0000 0.21663  0.48367  0.28331  Biso   1.000  C
  C926     1.0000 0.24936  0.23591  0.52802  Biso   1.000  C
  C927     1.0000 0.49521  0.24853  0.25382  Biso   1.000  C
  C928     1.0000 0.71307  0.52852  0.26410  Biso   1.000  C
  C929     1.0000 0.74260  0.24218  0.99134  Biso   1.000  C
  C930     1.0000 0.96322  0.26561  0.27473  Biso   1.000  C
  C931     1.0000 0.22700  0.00128  0.29425  Biso   1.000  C
  C932     1.0000 0.21646  0.73647  0.54100  Biso   1.000  C
  C933     1.0000 0.96296  0.76862  0.26712  Biso   1.000  C
  C934     1.0000 0.72166  0.97797  0.24409  Biso   1.000  C
  C935     1.0000 0.71107  0.73145  0.98355  Biso   1.000  C
  C936     1.0000 0.48423  0.74211  0.29603  Biso   1.000  C
  C937     1.0000 0.71871  0.26394  0.99416  Biso   1.000  C
  C938     1.0000 0.96516  0.74563  0.28872  Biso   1.000  C
  C939     1.0000 0.25639  0.99044  0.77413  Biso   1.000  C
  C940     1.0000 0.22938  0.25987  0.52685  Biso   1.000  C
  C941     1.0000 0.48902  0.71891  0.27463  Biso   1.000  C
  C942     1.0000 0.75156  0.01716  0.76371  Biso   1.000  C
  C943     1.0000 0.73324  0.75471  0.98681  Biso   1.000  C
  C944     1.0000 0.49271  0.22636  0.27681  Biso   1.000  C
  C945     1.0000 0.22655  0.48947  0.75958  Biso   1.000  C
  C946     1.0000 0.23914  0.75862  0.53960  Biso   1.000  C
  C947     1.0000 0.96176  0.24316  0.25231  Biso   1.000  C
  C948     1.0000 0.72439  0.50470  0.78100  Biso   1.000  C
  C949     1.0000 0.23892  0.73567  0.02379  Biso   1.000  C
  C950     1.0000 0.00577  0.24560  0.75919  Biso   1.000  C
  C951     1.0000 0.70088  0.97759  0.26695  Biso   1.000  C
  C952     1.0000 0.73946  0.72230  0.53021  Biso   1.000  C
  C953     1.0000 0.48480  0.26959  0.77482  Biso   1.000  C
  C954     1.0000 0.20385  0.00502  0.27297  Biso   1.000  C
  C955     1.0000 0.21364  0.24316  0.03382  Biso   1.000  C
  C956     1.0000 0.46858  0.76788  0.76882  Biso   1.000  C
  C957     1.0000 0.73574  0.52745  0.28525  Biso   1.000  C
  C958     1.0000 0.72502  0.22457  0.53214  Biso   1.000  C
  C959     1.0000 0.98575  0.74576  0.79076  Biso   1.000  C
  C960     1.0000 0.24128  0.48164  0.26369  Biso   1.000  C
  Cu1      1.0000 0.98533  0.48310  0.67703  Biso   1.000  Cu
  Cu2      1.0000 0.63562  0.98716  0.51025  Biso   1.000  Cu
  Cu3      1.0000 0.47869  0.64914  0.02709  Biso   1.000  Cu
  Cu4      1.0000 0.48650  0.50627  0.86609  Biso   1.000  Cu
  Cu5      1.0000 0.13120  0.99728  0.02917  Biso   1.000  Cu
  Cu6      1.0000 0.97874  0.64310  0.52401  Biso   1.000  Cu
  Cu7      1.0000 0.48792  0.00561  0.67700  Biso   1.000  Cu
  Cu8      1.0000 0.82532  0.48038  0.52083  Biso   1.000  Cu
  Cu9      1.0000 0.97629  0.14677  0.01697  Biso   1.000  Cu
  Cu10     1.0000 0.98690  0.98705  0.86733  Biso   1.000  Cu
  Cu11     1.0000 0.32951  0.49782  0.02694  Biso   1.000  Cu
  Cu12     1.0000 0.48682  0.14889  0.51611  Biso   1.000  Cu
  Cu13     1.0000 0.97589  0.49984  0.36789  Biso   1.000  Cu
  Cu14     1.0000 0.33085  0.99306  0.53059  Biso   1.000  Cu
  Cu15     1.0000 0.47430  0.34269  0.01862  Biso   1.000  Cu
  Cu16     1.0000 0.47837  0.48147  0.17792  Biso   1.000  Cu
  Cu17     1.0000 0.81957  0.99592  0.00575  Biso   1.000  Cu
  Cu18     1.0000 0.98829  0.33597  0.51813  Biso   1.000  Cu
  Cu19     1.0000 0.46976  0.98867  0.37161  Biso   1.000  Cu
  Cu20     1.0000 0.13409  0.49664  0.52055  Biso   1.000  Cu
  Cu21     1.0000 0.96605  0.84260  0.02355  Biso   1.000  Cu
  Cu22     1.0000 0.96388  0.00422  0.17222  Biso   1.000  Cu
  Cu23     1.0000 0.63301  0.49308  0.01807  Biso   1.000  Cu
  Cu24     1.0000 0.48138  0.84164  0.52863  Biso   1.000  Cu
  Cu25     1.0000 0.18538  0.99330  0.03423  Biso   1.000  Cu
  Cu26     1.0000 0.97769  0.20086  0.01277  Biso   1.000  Cu
  Cu27     1.0000 0.95955  0.00281  0.22561  Biso   1.000  Cu
  Cu28     1.0000 0.69066  0.98709  0.51002  Biso   1.000  Cu
  Cu29     1.0000 0.48482  0.20369  0.51235  Biso   1.000  Cu
  Cu30     1.0000 0.46720  0.98655  0.31759  Biso   1.000  Cu
  Cu31     1.0000 0.27517  0.50157  0.02448  Biso   1.000  Cu
  Cu32     1.0000 0.48368  0.70269  0.03447  Biso   1.000  Cu
  Cu33     1.0000 0.48111  0.48130  0.23202  Biso   1.000  Cu
  Cu34     1.0000 0.77179  0.48037  0.52444  Biso   1.000  Cu
  Cu35     1.0000 0.97428  0.69780  0.52952  Biso   1.000  Cu
  Cu36     1.0000 0.97283  0.50134  0.31523  Biso   1.000  Cu
  Cu37     1.0000 0.76648  0.99584  0.00336  Biso   1.000  Cu
  Cu38     1.0000 0.96999  0.78854  0.02608  Biso   1.000  Cu
  Cu39     1.0000 0.98910  0.98741  0.81209  Biso   1.000  Cu
  Cu40     1.0000 0.27673  0.99417  0.52991  Biso   1.000  Cu
  Cu41     1.0000 0.48256  0.78918  0.53451  Biso   1.000  Cu
  Cu42     1.0000 0.49113  0.00949  0.73043  Biso   1.000  Cu
  Cu43     1.0000 0.68850  0.49233  0.02113  Biso   1.000  Cu
  Cu44     1.0000 0.47545  0.28669  0.01033  Biso   1.000  Cu
  Cu45     1.0000 0.48356  0.50922  0.81221  Biso   1.000  Cu
  Cu46     1.0000 0.18698  0.49804  0.51632  Biso   1.000  Cu
  Cu47     1.0000 0.98791  0.28219  0.51423  Biso   1.000  Cu
  Cu48     1.0000 0.98910  0.48121  0.73144  Biso   1.000  Cu
  H1       1.0000 0.21472  0.78549  0.56745  Biso   1.000  H
  H2       1.0000 0.52072  0.29177  0.75622  Biso   1.000  H
  H3       1.0000 0.70896  0.54733  0.31924  Biso   1.000  H
  H4       1.0000 0.72209  0.77743  0.94801  Biso   1.000  H
  H5       1.0000 0.97517  0.21917  0.73339  Biso   1.000  H
  H6       1.0000 0.26878  0.51066  0.28766  Biso   1.000  H
  H7       1.0000 0.24809  0.28465  0.56110  Biso   1.000  H
  H8       1.0000 0.96185  0.77650  0.76298  Biso   1.000  H
  H9       1.0000 0.66683  0.00666  0.24664  Biso   1.000  H
  H10      1.0000 0.74000  0.28451  0.03274  Biso   1.000  H
  H11      1.0000 0.50063  0.79571  0.78875  Biso   1.000  H
  H12      1.0000 0.22787  0.02921  0.24437  Biso   1.000  H
  H13      1.0000 0.69780  0.25389  0.50567  Biso   1.000  H
  H14      1.0000 0.51808  0.74309  0.24595  Biso   1.000  H
  H15      1.0000 0.25720  0.46871  0.72832  Biso   1.000  H
  H16      1.0000 0.24126  0.21063  0.05781  Biso   1.000  H
  H17      1.0000 0.99373  0.76843  0.31906  Biso   1.000  H
  H18      1.0000 0.69163  0.48375  0.75440  Biso   1.000  H
  H19      1.0000 0.76882  0.74864  0.50860  Biso   1.000  H
  H20      1.0000 0.00101  0.22311  0.26728  Biso   1.000  H
  H21      1.0000 0.23127  0.96031  0.74638  Biso   1.000  H
  H22      1.0000 0.22040  0.71181  0.05932  Biso   1.000  H
  H23      1.0000 0.51837  0.19443  0.25183  Biso   1.000  H
  H24      1.0000 0.77874  0.98643  0.74141  Biso   1.000  H
  H25      1.0000 0.25822  0.02144  0.82656  Biso   1.000  H
  H26      1.0000 0.77614  0.26680  0.01639  Biso   1.000  H
  H27      1.0000 0.94408  0.73782  0.23356  Biso   1.000  H
  H28      1.0000 0.75301  0.98821  0.71349  Biso   1.000  H
  H29      1.0000 0.22063  0.20470  0.50556  Biso   1.000  H
  H30      1.0000 0.51187  0.77464  0.27304  Biso   1.000  H
  H31      1.0000 0.28187  0.50715  0.75610  Biso   1.000  H
  H32      1.0000 0.74259  0.70254  0.99942  Biso   1.000  H
  H33      1.0000 0.45635  0.26672  0.27077  Biso   1.000  H
  H34      1.0000 0.72208  0.52729  0.72581  Biso   1.000  H
  H35      1.0000 0.18707  0.76259  0.51469  Biso   1.000  H
  H36      1.0000 0.93573  0.24120  0.30161  Biso   1.000  H
  H37      1.0000 0.75410  0.94576  0.26311  Biso   1.000  H
  H38      1.0000 0.24127  0.78881  0.00785  Biso   1.000  H
  H39      1.0000 0.98705  0.25427  0.81219  Biso   1.000  H
  H40      1.0000 0.25060  0.97316  0.26583  Biso   1.000  H
  H41      1.0000 0.75284  0.78106  0.54520  Biso   1.000  H
  H42      1.0000 0.45457  0.21704  0.77364  Biso   1.000  H
  H43      1.0000 0.68071  0.50569  0.29026  Biso   1.000  H
  H44      1.0000 0.21460  0.29035  0.99417  Biso   1.000  H
  H45      1.0000 0.44303  0.71679  0.76996  Biso   1.000  H
  H46      1.0000 0.23738  0.45621  0.31588  Biso   1.000  H
  H47      1.0000 0.73016  0.27014  0.56441  Biso   1.000  H
  H48      1.0000 0.02729  0.70214  0.78301  Biso   1.000  H
  H49      1.0000 0.18952  0.50933  0.25303  Biso   1.000  H
  H50      1.0000 0.28240  0.26223  0.54928  Biso   1.000  H
  H51      1.0000 0.53076  0.22862  0.23045  Biso   1.000  H
  H52      1.0000 0.73741  0.55442  0.23369  Biso   1.000  H
  H53      1.0000 0.71364  0.20855  0.97060  Biso   1.000  H
  H54      1.0000 0.98690  0.29607  0.24775  Biso   1.000  H
  H55      1.0000 0.20802  0.02846  0.32780  Biso   1.000  H
  H56      1.0000 0.24251  0.70589  0.56835  Biso   1.000  H
  H57      1.0000 0.98437  0.80212  0.29401  Biso   1.000  H
  H58      1.0000 0.69785  0.00927  0.22198  Biso   1.000  H
  H59      1.0000 0.67286  0.75624  0.96578  Biso   1.000  H
  H60      1.0000 0.46045  0.71710  0.32502  Biso   1.000  H
  H61      1.0000 0.77356  0.48141  0.78860  Biso   1.000  H
  H62      1.0000 0.68554  0.72190  0.51500  Biso   1.000  H
  H63      1.0000 0.49505  0.77303  0.82545  Biso   1.000  H
  H64      1.0000 0.21966  0.46779  0.81383  Biso   1.000  H
  H65      1.0000 0.18250  0.72801  0.04395  Biso   1.000  H
  H66      1.0000 0.94618  0.73703  0.75251  Biso   1.000  H
  H67      1.0000 0.69588  0.03671  0.77022  Biso   1.000  H
  H68      1.0000 0.77576  0.21963  0.50366  Biso   1.000  H
  H69      1.0000 0.03099  0.19580  0.75801  Biso   1.000  H
  H70      1.0000 0.20282  0.96884  0.76739  Biso   1.000  H
  H71      1.0000 0.26514  0.24893  0.06727  Biso   1.000  H
  H72      1.0000 0.50648  0.27330  0.72202  Biso   1.000  H
  H73      1.0000 0.75556  0.52430  0.81161  Biso   1.000  H
  H74      1.0000 0.71272  0.69130  0.55179  Biso   1.000  H
  H75      1.0000 0.43479  0.74884  0.73743  Biso   1.000  H
  H76      1.0000 0.19385  0.51293  0.78296  Biso   1.000  H
  H77      1.0000 0.26144  0.75722  0.98869  Biso   1.000  H
  H78      1.0000 0.01278  0.72044  0.82449  Biso   1.000  H
  H79      1.0000 0.72639  0.04606  0.79151  Biso   1.000  H
  H80      1.0000 0.75025  0.19202  0.55434  Biso   1.000  H
  H81      1.0000 0.03859  0.27264  0.77639  Biso   1.000  H
  H82      1.0000 0.28964  0.01122  0.79912  Biso   1.000  H
  H83      1.0000 0.17958  0.26805  0.01505  Biso   1.000  H
  H84      1.0000 0.44924  0.24838  0.79577  Biso   1.000  H
  H85      1.0000 0.21266  0.45592  0.23503  Biso   1.000  H
  H86      1.0000 0.20594  0.24203  0.48961  Biso   1.000  H
  H87      1.0000 0.47201  0.25597  0.30715  Biso   1.000  H
  H88      1.0000 0.76497  0.50516  0.25724  Biso   1.000  H
  H89      1.0000 0.69008  0.25216  0.95610  Biso   1.000  H
  H90      1.0000 0.92826  0.26636  0.22701  Biso   1.000  H
  H91      1.0000 0.17293  0.97895  0.29825  Biso   1.000  H
  H92      1.0000 0.25600  0.73392  0.50704  Biso   1.000  H
  H93      1.0000 0.93282  0.71926  0.26533  Biso   1.000  H
  H94      1.0000 0.72892  0.94910  0.29342  Biso   1.000  H
  H95      1.0000 0.75115  0.73357  0.02333  Biso   1.000  H
  H96      1.0000 0.46340  0.68749  0.29743  Biso   1.000  H
  H97      1.0000 0.84727  0.00090  0.91759  Biso   1.000  H
  H98      1.0000 0.87849  0.85727  0.01202  Biso   1.000  H
  H99      1.0000 0.98779  0.90000  0.88892  Biso   1.000  H
  H100     1.0000 0.35278  0.01382  0.62212  Biso   1.000  H
  H101     1.0000 0.39106  0.86074  0.52726  Biso   1.000  H
  H102     1.0000 0.47231  0.91591  0.65734  Biso   1.000  H
  H103     1.0000 0.61842  0.48424  0.92631  Biso   1.000  H
  H104     1.0000 0.56858  0.36117  0.02487  Biso   1.000  H
  H105     1.0000 0.48384  0.41062  0.88474  Biso   1.000  H
  H106     1.0000 0.11819  0.49324  0.60927  Biso   1.000  H
  H107     1.0000 0.07561  0.35938  0.51374  Biso   1.000  H
  H108     1.0000 0.97735  0.39211  0.65740  Biso   1.000  H
  H109     1.0000 0.10236  0.99728  0.12039  Biso   1.000  H
  H110     1.0000 0.06863  0.12539  0.03284  Biso   1.000  H
  H111     1.0000 0.96351  0.09085  0.15120  Biso   1.000  H
  H112     1.0000 0.61345  0.97981  0.42673  Biso   1.000  H
  H113     1.0000 0.57310  0.12462  0.51840  Biso   1.000  H
  H114     1.0000 0.48477  0.08015  0.38527  Biso   1.000  H
  H115     1.0000 0.34760  0.48085  0.11726  Biso   1.000  H
  H116     1.0000 0.39006  0.63343  0.02603  Biso   1.000  H
  H117     1.0000 0.47400  0.57720  0.16016  Biso   1.000  H
  H118     1.0000 0.83893  0.49453  0.43031  Biso   1.000  H
  H119     1.0000 0.88658  0.61946  0.51783  Biso   1.000  H
  H120     1.0000 0.97623  0.59172  0.38848  Biso   1.000  H
  H121     1.0000 0.07860  0.99423  0.89133  Biso   1.000  H
  H122     1.0000 0.83945  0.08745  0.00858  Biso   1.000  H
  H123     1.0000 0.95650  0.86885  0.11745  Biso   1.000  H
  H124     1.0000 0.57427  0.97983  0.64972  Biso   1.000  H
  H125     1.0000 0.35734  0.08862  0.52616  Biso   1.000  H
  H126     1.0000 0.48160  0.85477  0.44268  Biso   1.000  H
  H127     1.0000 0.39345  0.50528  0.89484  Biso   1.000  H
  H128     1.0000 0.61428  0.58069  0.01688  Biso   1.000  H
  H129     1.0000 0.48164  0.35543  0.10810  Biso   1.000  H
  H130     1.0000 0.89530  0.48892  0.65480  Biso   1.000  H
  H131     1.0000 0.11418  0.58717  0.52388  Biso   1.000  H
  H132     1.0000 0.97698  0.36557  0.42877  Biso   1.000  H
  H133     1.0000 0.87267  0.00636  0.14227  Biso   1.000  H
  H134     1.0000 0.10515  0.90599  0.03498  Biso   1.000  H
  H135     1.0000 0.00084  0.12000  0.92909  Biso   1.000  H
  H136     1.0000 0.38134  0.98235  0.39152  Biso   1.000  H
  H137     1.0000 0.61808  0.89635  0.51022  Biso   1.000  H
  H138     1.0000 0.48023  0.13327  0.60646  Biso   1.000  H
  H139     1.0000 0.57069  0.49459  0.15329  Biso   1.000  H
  H140     1.0000 0.34564  0.41048  0.03003  Biso   1.000  H
  H141     1.0000 0.48448  0.63722  0.93559  Biso   1.000  H
  H142     1.0000 0.06358  0.49064  0.38322  Biso   1.000  H
  H143     1.0000 0.84621  0.39608  0.50900  Biso   1.000  H
  H144     1.0000 0.97737  0.61463  0.61866  Biso   1.000  H
  H145     1.0000 0.57687  0.49827  0.88944  Biso   1.000  H
  H146     1.0000 0.84928  0.57489  0.52338  Biso   1.000  H
  H147     1.0000 0.46592  0.87068  0.61828  Biso   1.000  H
  H148     1.0000 0.07890  0.48695  0.64878  Biso   1.000  H
  H149     1.0000 0.35340  0.59403  0.03166  Biso   1.000  H
  H150     1.0000 0.98326  0.85783  0.93410  Biso   1.000  H
  H151     1.0000 0.89428  0.00046  0.88117  Biso   1.000  H
  H152     1.0000 0.61616  0.08197  0.51331  Biso   1.000  H
  H153     1.0000 0.98406  0.35088  0.60816  Biso   1.000  H
  H154     1.0000 0.39679  0.02003  0.66464  Biso   1.000  H
  H155     1.0000 0.11582  0.08682  0.03586  Biso   1.000  H
  H156     1.0000 0.47658  0.37251  0.92514  Biso   1.000  H
  H157     1.0000 0.39019  0.48183  0.16107  Biso   1.000  H
  H158     1.0000 0.11500  0.40143  0.51273  Biso   1.000  H
  H159     1.0000 0.48810  0.12634  0.42770  Biso   1.000  H
  H160     1.0000 0.88064  0.50142  0.39274  Biso   1.000  H
  H161     1.0000 0.60997  0.40479  0.02674  Biso   1.000  H
  H162     1.0000 0.96856  0.13633  0.10380  Biso   1.000  H
  H163     1.0000 0.05624  0.99651  0.16320  Biso   1.000  H
  H164     1.0000 0.35055  0.90295  0.53202  Biso   1.000  H
  H165     1.0000 0.97801  0.63411  0.43218  Biso   1.000  H
  H166     1.0000 0.56759  0.98124  0.38926  Biso   1.000  H
  H167     1.0000 0.83905  0.90367  0.00646  Biso   1.000  H
  H168     1.0000 0.47704  0.62257  0.11839  Biso   1.000  H
  H169     1.0000 0.99960  0.08113  0.88829  Biso   1.000  H
  H170     1.0000 0.83396  0.99340  0.10270  Biso   1.000  H
  H171     1.0000 0.06179  0.86727  0.02553  Biso   1.000  H
  H172     1.0000 0.48434  0.09544  0.65200  Biso   1.000  H
  H173     1.0000 0.34486  0.98370  0.43510  Biso   1.000  H
  H174     1.0000 0.57962  0.86401  0.53227  Biso   1.000  H
  H175     1.0000 0.48522  0.59861  0.89494  Biso   1.000  H
  H176     1.0000 0.61202  0.49763  0.11014  Biso   1.000  H
  H177     1.0000 0.38509  0.36516  0.02601  Biso   1.000  H
  H178     1.0000 0.98782  0.57591  0.66095  Biso   1.000  H
  H179     1.0000 0.10849  0.49305  0.42836  Biso   1.000  H
  H180     1.0000 0.89326  0.35341  0.51087  Biso   1.000  H
  H181     1.0000 0.95355  0.91095  0.15256  Biso   1.000  H
  H182     1.0000 0.12049  0.98986  0.93531  Biso   1.000  H
  H183     1.0000 0.88673  0.12653  0.01083  Biso   1.000  H
  H184     1.0000 0.47034  0.89828  0.39939  Biso   1.000  H
  H185     1.0000 0.61872  0.98248  0.60096  Biso   1.000  H
  H186     1.0000 0.39444  0.13032  0.51272  Biso   1.000  H
  H187     1.0000 0.48203  0.39909  0.15454  Biso   1.000  H
  H188     1.0000 0.34985  0.50674  0.93501  Biso   1.000  H
  H189     1.0000 0.57152  0.62643  0.03315  Biso   1.000  H
  H190     1.0000 0.97354  0.41053  0.38386  Biso   1.000  H
  H191     1.0000 0.85257  0.47922  0.61081  Biso   1.000  H
  H192     1.0000 0.07057  0.62953  0.52777  Biso   1.000  H
  H193     1.0000 0.25105  0.85345  0.53835  Biso   1.000  H
  H194     1.0000 0.47229  0.27533  0.86878  Biso   1.000  H
  H195     1.0000 0.83301  0.53827  0.30055  Biso   1.000  H
  H196     1.0000 0.74459  0.85214  0.98302  Biso   1.000  H
  H197     1.0000 0.00627  0.25270  0.66115  Biso   1.000  H
  H198     1.0000 0.33685  0.47280  0.25631  Biso   1.000  H
  H199     1.0000 0.21410  0.35285  0.53067  Biso   1.000  H
  H200     1.0000 0.97438  0.75849  0.88054  Biso   1.000  H
  H201     1.0000 0.60895  0.97351  0.28668  Biso   1.000  H
  H202     1.0000 0.70556  0.34969  0.01213  Biso   1.000  H
  H203     1.0000 0.46908  0.77898  0.67919  Biso   1.000  H
  H204     1.0000 0.10920  0.00731  0.25924  Biso   1.000  H
  H205     1.0000 0.71257  0.12735  0.51597  Biso   1.000  H
  H206     1.0000 0.47943  0.71505  0.17795  Biso   1.000  H
  H207     1.0000 0.13396  0.47728  0.74536  Biso   1.000  H
  H208     1.0000 0.21057  0.14255  0.03381  Biso   1.000  H
  H209     1.0000 0.96197  0.73147  0.38680  Biso   1.000  H
  H210     1.0000 0.63113  0.52363  0.79694  Biso   1.000  H
  H211     1.0000 0.74905  0.62225  0.51636  Biso   1.000  H
  H212     1.0000 0.95623  0.23322  0.15560  Biso   1.000  H
  H213     1.0000 0.34982  0.98632  0.75526  Biso   1.000  H
  H214     1.0000 0.25247  0.63873  0.02342  Biso   1.000  H
  H215     1.0000 0.50175  0.21873  0.37167  Biso   1.000  H
  H216     1.0000 0.84730  0.01087  0.78132  Biso   1.000  H
  H217     1.0000 0.20398  0.49696  0.37538  Biso   1.000  H
  H218     1.0000 0.34075  0.22567  0.51299  Biso   1.000  H
  H219     1.0000 0.49138  0.33723  0.24544  Biso   1.000  H
  H220     1.0000 0.70744  0.51539  0.16186  Biso   1.000  H
  H221     1.0000 0.83301  0.22329  0.99106  Biso   1.000  H
  H222     1.0000 0.95513  0.35924  0.28924  Biso   1.000  H
  H223     1.0000 0.24197  0.98754  0.39358  Biso   1.000  H
  H224     1.0000 0.12191  0.72416  0.54201  Biso   1.000  H
  H225     1.0000 0.94983  0.86450  0.25204  Biso   1.000  H
  H226     1.0000 0.73569  0.98141  0.14782  Biso   1.000  H
  H227     1.0000 0.61879  0.72033  0.00431  Biso   1.000  H
  H228     1.0000 0.46705  0.84045  0.30334  Biso   1.000  H
  H229     1.0000 0.75609  0.48894  0.66553  Biso   1.000  H
  H230     1.0000 0.62684  0.76864  0.55437  Biso   1.000  H
  H231     1.0000 0.47673  0.65236  0.79872  Biso   1.000  H
  H232     1.0000 0.25352  0.50112  0.88266  Biso   1.000  H
  H233     1.0000 0.11226  0.76849  0.01584  Biso   1.000  H
  H234     1.0000 0.98461  0.62783  0.75697  Biso   1.000  H
  H235     1.0000 0.71312  0.01277  0.64691  Biso   1.000  H
  H236     1.0000 0.84692  0.25498  0.53467  Biso   1.000  H
  H237     1.0000 0.98741  0.13553  0.79406  Biso   1.000  H
  H238     1.0000 0.21956  0.99527  0.88971  Biso   1.000  H
  H239     1.0000 0.32961  0.27116  0.01959  Biso   1.000  H
  H240     1.0000 0.49855  0.15682  0.74348  Biso   1.000  H
  H241     1.0000 0.71538  0.49096  0.87970  Biso   1.000  H
  H242     1.0000 0.83186  0.71134  0.53867  Biso   1.000  H
  H243     1.0000 0.47021  0.87044  0.75962  Biso   1.000  H
  H244     1.0000 0.21550  0.50985  0.66442  Biso   1.000  H
  H245     1.0000 0.33715  0.73030  0.01566  Biso   1.000  H
  H246     1.0000 0.98443  0.84468  0.79426  Biso   1.000  H
  H247     1.0000 0.75397  0.01767  0.85931  Biso   1.000  H
  H248     1.0000 0.63202  0.21885  0.52741  Biso   1.000  H
  H249     1.0000 0.00538  0.33871  0.75075  Biso   1.000  H
  H250     1.0000 0.25819  0.99708  0.67444  Biso   1.000  H
  H251     1.0000 0.11738  0.22539  0.03654  Biso   1.000  H
  H252     1.0000 0.48450  0.36366  0.78542  Biso   1.000  H
  H253     1.0000 0.24983  0.48285  0.16897  Biso   1.000  H
  H254     1.0000 0.13577  0.26479  0.52699  Biso   1.000  H
  H255     1.0000 0.48223  0.13134  0.28877  Biso   1.000  H
  H256     1.0000 0.74081  0.49650  0.37672  Biso   1.000  H
  H257     1.0000 0.61764  0.26392  0.00223  Biso   1.000  H
  H258     1.0000 0.95978  0.15451  0.24291  Biso   1.000  H
  H259     1.0000 0.19817  0.99055  0.17751  Biso   1.000  H
  H260     1.0000 0.33613  0.76384  0.53439  Biso   1.000  H
  H261     1.0000 0.97152  0.64528  0.29652  Biso   1.000  H
  H262     1.0000 0.70408  0.98179  0.36593  Biso   1.000  H
  H263     1.0000 0.82590  0.76276  0.00812  Biso   1.000  H
  H264     1.0000 0.49180  0.62313  0.25836  Biso   1.000  H
  H265     1.0000 0.01023  0.21694  0.88013  Biso   1.000  H
  H266     1.0000 0.81287  0.00327  0.23609  Biso   1.000  H
  H267     1.0000 0.19756  0.84731  0.04661  Biso   1.000  H
  H268     1.0000 0.46542  0.23204  0.64918  Biso   1.000  H
  H269     1.0000 0.32315  0.98165  0.29570  Biso   1.000  H
  H270     1.0000 0.71571  0.84306  0.51661  Biso   1.000  H
  H271     1.0000 0.46819  0.73725  0.89279  Biso   1.000  H
  H272     1.0000 0.61865  0.51451  0.25101  Biso   1.000  H
  H273     1.0000 0.24875  0.35634  0.02719  Biso   1.000  H
  H274     1.0000 0.97371  0.71031  0.67642  Biso   1.000  H
  H275     1.0000 0.12240  0.48722  0.29247  Biso   1.000  H
  H276     1.0000 0.75616  0.33488  0.52159  Biso   1.000  H
  H277     1.0000 0.97314  0.77286  0.17090  Biso   1.000  H
  H278     1.0000 0.13293  0.00287  0.79813  Biso   1.000  H
  H279     1.0000 0.74716  0.14470  0.00988  Biso   1.000  H
  H280     1.0000 0.49426  0.75800  0.39011  Biso   1.000  H
  H281     1.0000 0.63601  0.01299  0.73818  Biso   1.000  H
  H282     1.0000 0.25775  0.14157  0.53769  Biso   1.000  H
  H283     1.0000 0.49434  0.25687  0.15731  Biso   1.000  H
  H284     1.0000 0.34366  0.47559  0.79982  Biso   1.000  H
  H285     1.0000 0.70184  0.63545  0.97915  Biso   1.000  H
  H286     1.0000 0.98086  0.27127  0.37102  Biso   1.000  H
  H287     1.0000 0.84130  0.50592  0.74822  Biso   1.000  H
  H288     1.0000 0.20942  0.63866  0.52616  Biso   1.000  H
  H289     1.0000 0.06313  0.21907  0.02777  Biso   1.000  H
  H290     1.0000 0.96422  0.10094  0.24684  Biso   1.000  H
  H291     1.0000 0.19814  0.98378  0.12648  Biso   1.000  H
  H292     1.0000 0.57598  0.22284  0.53160  Biso   1.000  H
  H293     1.0000 0.47927  0.07640  0.28969  Biso   1.000  H
  H294     1.0000 0.70922  0.97903  0.41476  Biso   1.000  H
  H295     1.0000 0.39246  0.72766  0.01400  Biso   1.000  H
  H296     1.0000 0.48417  0.57232  0.25578  Biso   1.000  H
  H297     1.0000 0.25026  0.49306  0.11825  Biso   1.000  H
  H298     1.0000 0.88418  0.71347  0.54073  Biso   1.000  H
  H299     1.0000 0.97946  0.59594  0.29525  Biso   1.000  H
  H300     1.0000 0.74226  0.48951  0.43024  Biso   1.000  H
  H301     1.0000 0.87781  0.76079  0.02107  Biso   1.000  H
  H302     1.0000 0.98771  0.89734  0.79376  Biso   1.000  H
  H303     1.0000 0.75271  0.01410  0.90947  Biso   1.000  H
  H304     1.0000 0.39004  0.76271  0.52479  Biso   1.000  H
  H305     1.0000 0.47221  0.91995  0.75727  Biso   1.000  H
  H306     1.0000 0.25513  0.00422  0.62137  Biso   1.000  H
  H307     1.0000 0.56540  0.26908  0.99700  Biso   1.000  H
  H308     1.0000 0.47837  0.41780  0.78694  Biso   1.000  H
  H309     1.0000 0.71206  0.47242  0.92851  Biso   1.000  H
  H310     1.0000 0.07777  0.26358  0.51776  Biso   1.000  H
  H311     1.0000 0.99871  0.39115  0.74822  Biso   1.000  H
  H312     1.0000 0.21304  0.50770  0.60835  Biso   1.000  H
  H313     1.0000 0.21536  0.99912  0.94428  Biso   1.000  H
  H314     1.0000 0.88931  0.22312  0.99482  Biso   1.000  H
  H315     1.0000 0.94703  0.91593  0.25002  Biso   1.000  H
  H316     1.0000 0.70795  0.00914  0.59383  Biso   1.000  H
  H317     1.0000 0.39430  0.22709  0.50266  Biso   1.000  H
  H318     1.0000 0.45996  0.89145  0.30403  Biso   1.000  H
  H319     1.0000 0.25603  0.50734  0.93499  Biso   1.000  H
  H320     1.0000 0.57322  0.72060  0.02724  Biso   1.000  H
  H321     1.0000 0.49137  0.39246  0.24892  Biso   1.000  H
  H322     1.0000 0.75627  0.47782  0.61491  Biso   1.000  H
  H323     1.0000 0.06598  0.72252  0.52930  Biso   1.000  H
  H324     1.0000 0.95966  0.41407  0.29000  Biso   1.000  H
  H325     1.0000 0.73892  0.97902  0.09226  Biso   1.000  H
  H326     1.0000 0.05649  0.77214  0.02371  Biso   1.000  H
  H327     1.0000 0.98624  0.07900  0.79400  Biso   1.000  H
  H328     1.0000 0.24937  0.99281  0.44590  Biso   1.000  H
  H329     1.0000 0.57379  0.76848  0.55265  Biso   1.000  H
  H330     1.0000 0.50217  0.10623  0.74825  Biso   1.000  H
  H331     1.0000 0.70335  0.52160  0.11155  Biso   1.000  H
  H332     1.0000 0.38305  0.26707  0.01849  Biso   1.000  H
  H333     1.0000 0.47706  0.60082  0.79772  Biso   1.000  H
  H334     1.0000 0.20357  0.50223  0.42734  Biso   1.000  H
  H335     1.0000 0.90134  0.25724  0.52361  Biso   1.000  H
  H336     1.0000 0.99327  0.57193  0.75794  Biso   1.000  H
  H337     1.0000 0.00751  0.21672  0.93392  Biso   1.000  H
  H338     1.0000 0.86700  0.01147  0.23952  Biso   1.000  H
  H339     1.0000 0.19941  0.90210  0.04848  Biso   1.000  H
  H340     1.0000 0.46273  0.22491  0.59599  Biso   1.000  H
  H341     1.0000 0.37466  0.99034  0.29391  Biso   1.000  H
  H342     1.0000 0.71404  0.89685  0.49731  Biso   1.000  H
  H343     1.0000 0.48136  0.73079  0.94643  Biso   1.000  H
  H344     1.0000 0.56941  0.50213  0.25010  Biso   1.000  H
  H345     1.0000 0.24791  0.41135  0.03174  Biso   1.000  H
  H346     1.0000 0.97566  0.71351  0.62124  Biso   1.000  H
  H347     1.0000 0.06579  0.48825  0.28838  Biso   1.000  H
  H348     1.0000 0.75185  0.38750  0.50807  Biso   1.000  H
  H349     1.0000 0.98015  0.77375  0.11960  Biso   1.000  H
  H350     1.0000 0.08163  0.99092  0.79583  Biso   1.000  H
  H351     1.0000 0.74402  0.08947  0.01299  Biso   1.000  H
  H352     1.0000 0.49364  0.76004  0.44524  Biso   1.000  H
  H353     1.0000 0.58290  0.01031  0.74394  Biso   1.000  H
  H354     1.0000 0.25944  0.08553  0.53181  Biso   1.000  H
  H355     1.0000 0.49297  0.25986  0.10254  Biso   1.000  H
  H356     1.0000 0.39579  0.47978  0.80278  Biso   1.000  H
  H357     1.0000 0.70346  0.57827  0.98086  Biso   1.000  H
  H358     1.0000 0.99350  0.27059  0.42255  Biso   1.000  H
  H359     1.0000 0.89954  0.50321  0.75039  Biso   1.000  H
  H360     1.0000 0.20864  0.58594  0.52407  Biso   1.000  H
  H361     1.0000 0.97016  0.72702  0.44058  Biso   1.000  H
  H362     1.0000 0.40219  0.99407  0.75744  Biso   1.000  H
  H363     1.0000 0.70566  0.40123  0.02779  Biso   1.000  H
  H364     1.0000 0.47761  0.71640  0.12041  Biso   1.000  H
  H365     1.0000 0.89738  0.00004  0.78392  Biso   1.000  H
  H366     1.0000 0.21173  0.40857  0.53218  Biso   1.000  H
  H367     1.0000 0.51273  0.22074  0.42320  Biso   1.000  H
  H368     1.0000 0.07882  0.47614  0.74495  Biso   1.000  H
  H369     1.0000 0.74501  0.90459  0.98434  Biso   1.000  H
  H370     1.0000 0.96077  0.22986  0.09888  Biso   1.000  H
  H371     1.0000 0.57425  0.52524  0.79964  Biso   1.000  H
  H372     1.0000 0.25530  0.90607  0.54910  Biso   1.000  H
  H373     1.0000 0.99742  0.25349  0.60916  Biso   1.000  H
  H374     1.0000 0.55305  0.97958  0.29221  Biso   1.000  H
  H375     1.0000 0.25668  0.58834  0.02468  Biso   1.000  H
  H376     1.0000 0.46654  0.27656  0.92320  Biso   1.000  H
  H377     1.0000 0.05662  0.00582  0.25874  Biso   1.000  H
  H378     1.0000 0.75315  0.56990  0.52383  Biso   1.000  H
  H379     1.0000 0.46994  0.77453  0.62243  Biso   1.000  H
  H380     1.0000 0.88397  0.53876  0.29983  Biso   1.000  H
  H381     1.0000 0.21142  0.08892  0.02837  Biso   1.000  H
  H382     1.0000 0.97166  0.75996  0.93592  Biso   1.000  H
  H383     1.0000 0.39006  0.47942  0.25810  Biso   1.000  H
  H384     1.0000 0.70945  0.07660  0.52309  Biso   1.000  H
  H385     1.0000 0.20037  0.45950  0.34954  Biso   1.000  H
  H386     1.0000 0.25728  0.16695  0.49848  Biso   1.000  H
  H387     1.0000 0.45420  0.30629  0.23174  Biso   1.000  H
  H388     1.0000 0.65093  0.49190  0.25114  Biso   1.000  H
  H389     1.0000 0.80740  0.22614  0.02348  Biso   1.000  H
  H390     1.0000 0.94270  0.27464  0.34552  Biso   1.000  H
  H391     1.0000 0.28824  0.95876  0.30464  Biso   1.000  H
  H392     1.0000 0.15170  0.72209  0.50642  Biso   1.000  H
  H393     1.0000 0.93942  0.77442  0.19830  Biso   1.000  H
  H394     1.0000 0.79058  0.95467  0.22749  Biso   1.000  H
  H395     1.0000 0.71242  0.66314  0.00579  Biso   1.000  H
  H396     1.0000 0.50482  0.81255  0.30701  Biso   1.000  H
  H397     1.0000 0.75878  0.52470  0.69011  Biso   1.000  H
  H398     1.0000 0.71718  0.81670  0.55094  Biso   1.000  H
  H399     1.0000 0.44141  0.68179  0.80428  Biso   1.000  H
  H400     1.0000 0.31957  0.51265  0.79582  Biso   1.000  H
  H401     1.0000 0.20269  0.82698  0.00881  Biso   1.000  H
  H402     1.0000 0.02270  0.66127  0.74728  Biso   1.000  H
  H403     1.0000 0.71281  0.97965  0.67991  Biso   1.000  H
  H404     1.0000 0.76452  0.31158  0.55985  Biso   1.000  H
  H405     1.0000 0.97746  0.21830  0.84849  Biso   1.000  H
  H406     1.0000 0.21702  0.02515  0.85913  Biso   1.000  H
  H407     1.0000 0.25166  0.32524  0.98972  Biso   1.000  H
  H408     1.0000 0.45101  0.18101  0.73931  Biso   1.000  H
  H409     1.0000 0.25199  0.45205  0.19846  Biso   1.000  H
  H410     1.0000 0.16544  0.27044  0.49016  Biso   1.000  H
  H411     1.0000 0.46541  0.21506  0.34207  Biso   1.000  H
  H412     1.0000 0.80188  0.49856  0.29628  Biso   1.000  H
  H413     1.0000 0.65259  0.28016  0.96687  Biso   1.000  H
  H414     1.0000 0.92617  0.22778  0.19078  Biso   1.000  H
  H415     1.0000 0.13625  0.97380  0.26046  Biso   1.000  H
  H416     1.0000 0.29912  0.76915  0.49852  Biso   1.000  H
  H417     1.0000 0.93726  0.67793  0.29695  Biso   1.000  H
  H418     1.0000 0.69389  0.94668  0.33195  Biso   1.000  H
  H419     1.0000 0.78680  0.77069  0.03511  Biso   1.000  H
  H420     1.0000 0.46075  0.65349  0.26255  Biso   1.000  H
  H421     1.0000 0.72068  0.52463  0.85152  Biso   1.000  H
  H422     1.0000 0.75085  0.65107  0.55391  Biso   1.000  H
  H423     1.0000 0.43510  0.78527  0.70302  Biso   1.000  H
  H424     1.0000 0.16155  0.51666  0.74542  Biso   1.000  H
  H425     1.0000 0.30289  0.72377  0.98647  Biso   1.000  H
  H426     1.0000 0.01080  0.75946  0.86004  Biso   1.000  H
  H427     1.0000 0.76856  0.05104  0.82823  Biso   1.000  H
  H428     1.0000 0.70979  0.15398  0.54811  Biso   1.000  H
  H429     1.0000 0.03713  0.30871  0.73833  Biso   1.000  H
  H430     1.0000 0.31976  0.02110  0.75735  Biso   1.000  H
  H431     1.0000 0.14653  0.22930  0.00790  Biso   1.000  H
  H432     1.0000 0.44242  0.28961  0.82977  Biso   1.000  H
  H433     1.0000 0.26168  0.96846  0.70564  Biso   1.000  H
  H434     1.0000 0.69931  0.31541  0.04362  Biso   1.000  H
  H435     1.0000 0.99030  0.73174  0.35548  Biso   1.000  H
  H436     1.0000 0.81396  0.98192  0.77983  Biso   1.000  H
  H437     1.0000 0.20757  0.32139  0.56144  Biso   1.000  H
  H438     1.0000 0.51394  0.71103  0.20607  Biso   1.000  H
  H439     1.0000 0.22094  0.46514  0.68913  Biso   1.000  H
  H440     1.0000 0.75354  0.81843  0.95734  Biso   1.000  H
  H441     1.0000 0.51617  0.15660  0.28862  Biso   1.000  H
  H442     1.0000 0.65467  0.48161  0.79634  Biso   1.000  H
  H443     1.0000 0.25679  0.82120  0.56881  Biso   1.000  H
  H444     1.0000 0.99997  0.18366  0.23207  Biso   1.000  H
  H445     1.0000 0.63787  0.00951  0.28862  Biso   1.000  H
  H446     1.0000 0.25588  0.67436  0.05626  Biso   1.000  H
  H447     1.0000 0.96862  0.25786  0.69562  Biso   1.000  H
  H448     1.0000 0.18993  0.02887  0.20480  Biso   1.000  H
  H449     1.0000 0.80549  0.70991  0.50022  Biso   1.000  H
  H450     1.0000 0.52040  0.32931  0.79747  Biso   1.000  H
  H451     1.0000 0.74473  0.54560  0.35559  Biso   1.000  H
  H452     1.0000 0.20487  0.17613  0.06478  Biso   1.000  H
  H453     1.0000 0.50132  0.83316  0.75380  Biso   1.000  H
  H454     1.0000 0.30897  0.50504  0.25494  Biso   1.000  H
  H455     1.0000 0.66015  0.21748  0.49669  Biso   1.000  H
  H456     1.0000 0.96095  0.81537  0.80208  Biso   1.000  H
  H457     1.0000 0.65050  0.76398  0.51118  Biso   1.000  H
  H458     1.0000 0.50255  0.73510  0.85858  Biso   1.000  H
  H459     1.0000 0.81433  0.47323  0.75493  Biso   1.000  H
  H460     1.0000 0.14388  0.76193  0.04754  Biso   1.000  H
  H461     1.0000 0.94423  0.69869  0.70962  Biso   1.000  H
  H462     1.0000 0.25631  0.47304  0.85384  Biso   1.000  H
  H463     1.0000 0.81412  0.25700  0.50147  Biso   1.000  H
  H464     1.0000 0.03010  0.15550  0.79597  Biso   1.000  H
  H465     1.0000 0.66151  0.04221  0.73166  Biso   1.000  H
  H466     1.0000 0.30341  0.27986  0.06166  Biso   1.000  H
  H467     1.0000 0.50888  0.23469  0.68255  Biso   1.000  H
  H468     1.0000 0.16496  0.96676  0.80497  Biso   1.000  H
  H469     1.0000 0.31671  0.22128  0.55466  Biso   1.000  H
  H470     1.0000 0.52759  0.26469  0.18988  Biso   1.000  H
  H471     1.0000 0.15114  0.51577  0.28699  Biso   1.000  H
  H472     1.0000 0.74820  0.16887  0.97374  Biso   1.000  H
  H473     1.0000 0.99198  0.33143  0.29033  Biso   1.000  H
  H474     1.0000 0.70190  0.54567  0.19173  Biso   1.000  H
  H475     1.0000 0.20680  0.66704  0.56725  Biso   1.000  H
  H476     1.0000 0.98659  0.83663  0.25272  Biso   1.000  H
  H477     1.0000 0.24238  0.01950  0.36381  Biso   1.000  H
  H478     1.0000 0.64046  0.71765  0.96922  Biso   1.000  H
  H479     1.0000 0.45151  0.75530  0.36283  Biso   1.000  H
  H480     1.0000 0.73204  0.01820  0.18174  Biso   1.000  H
  N1       1.0000 0.66137  0.16487  0.52165  Biso   1.000  N
  N2       1.0000 0.48399  0.65927  0.20713  Biso   1.000  N
  N3       1.0000 0.16376  0.48727  0.69469  Biso   1.000  N
  N4       1.0000 0.15514  0.17411  0.03428  Biso   1.000  N
  N5       1.0000 0.96475  0.68063  0.35008  Biso   1.000  N
  N6       1.0000 0.66288  0.50463  0.84651  Biso   1.000  N
  N7       1.0000 0.80215  0.65874  0.52551  Biso   1.000  N
  N8       1.0000 0.95937  0.18190  0.18891  Biso   1.000  N
  N9       1.0000 0.31250  0.99841  0.70680  Biso   1.000  N
  N10      1.0000 0.30519  0.67775  0.02251  Biso   1.000  N
  N11      1.0000 0.48935  0.16440  0.33951  Biso   1.000  N
  N12      1.0000 0.81117  0.01118  0.83027  Biso   1.000  N
  N13      1.0000 0.30399  0.81616  0.53519  Biso   1.000  N
  N14      1.0000 0.47937  0.33013  0.83826  Biso   1.000  N
  N15      1.0000 0.79688  0.51783  0.34860  Biso   1.000  N
  N16      1.0000 0.79381  0.81754  0.00018  Biso   1.000  N
  N17      1.0000 0.00005  0.30612  0.69485  Biso   1.000  N
  N18      1.0000 0.30217  0.47924  0.20229  Biso   1.000  N
  N19      1.0000 0.16283  0.32034  0.52545  Biso   1.000  N
  N20      1.0000 0.98442  0.81182  0.85091  Biso   1.000  N
  N21      1.0000 0.64652  0.97926  0.33565  Biso   1.000  N
  N22      1.0000 0.65139  0.31919  0.01181  Biso   1.000  N
  N23      1.0000 0.46815  0.83347  0.70626  Biso   1.000  N
  N24      1.0000 0.14103  0.00188  0.20883  Biso   1.000  N
  N25      1.0000 0.81119  0.49784  0.69803  Biso   1.000  N
  N26      1.0000 0.66165  0.81581  0.53131  Biso   1.000  N
  N27      1.0000 0.47688  0.68410  0.85517  Biso   1.000  N
  N28      1.0000 0.30845  0.49824  0.84946  Biso   1.000  N
  N29      1.0000 0.14669  0.81800  0.02953  Biso   1.000  N
  N30      1.0000 0.98120  0.65715  0.70440  Biso   1.000  N
  N31      1.0000 0.66357  0.00426  0.68392  Biso   1.000  N
  N32      1.0000 0.81167  0.30729  0.52537  Biso   1.000  N
  N33      1.0000 0.00245  0.16596  0.84608  Biso   1.000  N
  N34      1.0000 0.16710  0.99676  0.85247  Biso   1.000  N
  N35      1.0000 0.30170  0.32432  0.02491  Biso   1.000  N
  N36      1.0000 0.48323  0.18170  0.68752  Biso   1.000  N
  N37      1.0000 0.15078  0.49060  0.34203  Biso   1.000  N
  N38      1.0000 0.31061  0.17095  0.52465  Biso   1.000  N
  N39      1.0000 0.48868  0.30941  0.19088  Biso   1.000  N
  N40      1.0000 0.65396  0.51254  0.19700  Biso   1.000  N
  N41      1.0000 0.80045  0.17346  0.00073  Biso   1.000  N
  N42      1.0000 0.97144  0.32446  0.33997  Biso   1.000  N
  N43      1.0000 0.29293  0.98973  0.35470  Biso   1.000  N
  N44      1.0000 0.15532  0.67358  0.53564  Biso   1.000  N
  N45      1.0000 0.96143  0.82938  0.20171  Biso   1.000  N
  N46      1.0000 0.78619  0.99149  0.18341  Biso   1.000  N
  N47      1.0000 0.65253  0.66619  0.99703  Biso   1.000  N
  N48      1.0000 0.47741  0.80884  0.35836  Biso   1.000  N
  O1       1.0000 0.32753  0.53931  0.03361  Biso   1.000  O
  O2       1.0000 0.98755  0.32888  0.56171  Biso   1.000  O
  O3       1.0000 0.51153  0.98771  0.36544  Biso   1.000  O
  O4       1.0000 0.82622  0.52343  0.52339  Biso   1.000  O
  O5       1.0000 0.47111  0.34341  0.97481  Biso   1.000  O
  O6       1.0000 0.00572  0.00305  0.18243  Biso   1.000  O
  O7       1.0000 0.13644  0.04056  0.02719  Biso   1.000  O
  O8       1.0000 0.47674  0.84769  0.57084  Biso   1.000  O
  O9       1.0000 0.93537  0.50878  0.36835  Biso   1.000  O
  O10      1.0000 0.63631  0.02818  0.51594  Biso   1.000  O
  O11      1.0000 0.97291  0.83599  0.98178  Biso   1.000  O
  O12      1.0000 0.43547  0.48107  0.18382  Biso   1.000  O
  O13      1.0000 0.63379  0.45176  0.02503  Biso   1.000  O
  O14      1.0000 0.97779  0.65219  0.48357  Biso   1.000  O
  O15      1.0000 0.44633  0.01481  0.68516  Biso   1.000  O
  O16      1.0000 0.13940  0.45553  0.52443  Biso   1.000  O
  O17      1.0000 0.48066  0.64846  0.07115  Biso   1.000  O
  O18      1.0000 0.94294  0.99390  0.86177  Biso   1.000  O
  O19      1.0000 0.81651  0.95506  0.99911  Biso   1.000  O
  O20      1.0000 0.50022  0.15250  0.47722  Biso   1.000  O
  O21      1.0000 0.02721  0.48451  0.67616  Biso   1.000  O
  O22      1.0000 0.32696  0.95204  0.53741  Biso   1.000  O
  O23      1.0000 0.96627  0.15460  0.05616  Biso   1.000  O
  O24      1.0000 0.52909  0.50547  0.86380  Biso   1.000  O
  O25      1.0000 0.91988  0.00657  0.16998  Biso   1.000  O
  O26      1.0000 0.13154  0.95508  0.03177  Biso   1.000  O
  O27      1.0000 0.98608  0.14430  0.97613  Biso   1.000  O
  O28      1.0000 0.42831  0.99223  0.36585  Biso   1.000  O
  O29      1.0000 0.64012  0.94491  0.50514  Biso   1.000  O
  O30      1.0000 0.47423  0.15074  0.55418  Biso   1.000  O
  O31      1.0000 0.51923  0.48425  0.17798  Biso   1.000  O
  O32      1.0000 0.32533  0.45548  0.02244  Biso   1.000  O
  O33      1.0000 0.47897  0.65787  0.98592  Biso   1.000  O
  O34      1.0000 0.01604  0.49404  0.36036  Biso   1.000  O
  O35      1.0000 0.82224  0.43986  0.51284  Biso   1.000  O
  O36      1.0000 0.97806  0.64152  0.56791  Biso   1.000  O
  O37      1.0000 0.02750  0.98162  0.86482  Biso   1.000  O
  O38      1.0000 0.81513  0.03857  0.00671  Biso   1.000  O
  O39      1.0000 0.96235  0.83936  0.06503  Biso   1.000  O
  O40      1.0000 0.52705  0.00066  0.67779  Biso   1.000  O
  O41      1.0000 0.33323  0.03493  0.52510  Biso   1.000  O
  O42      1.0000 0.48668  0.83540  0.48807  Biso   1.000  O
  O43      1.0000 0.44552  0.50585  0.86855  Biso   1.000  O
  O44      1.0000 0.63898  0.53202  0.01027  Biso   1.000  O
  O45      1.0000 0.47292  0.33408  0.06057  Biso   1.000  O
  O46      1.0000 0.94401  0.48335  0.67938  Biso   1.000  O
  O47      1.0000 0.13529  0.53834  0.51803  Biso   1.000  O
  O48      1.0000 0.98991  0.34050  0.47684  Biso   1.000  O
  O49      1.0000 0.96040  0.96283  0.17423  Biso   1.000  O
  O50      1.0000 0.14075  0.99700  0.98921  Biso   1.000  O
  O51      1.0000 0.93453  0.14904  0.00756  Biso   1.000  O
  O52      1.0000 0.46737  0.94796  0.37207  Biso   1.000  O
  O53      1.0000 0.63963  0.98220  0.55110  Biso   1.000  O
  O54      1.0000 0.44554  0.15559  0.50342  Biso   1.000  O
  O55      1.0000 0.47675  0.44077  0.18129  Biso   1.000  O
  O56      1.0000 0.32687  0.50340  0.98563  Biso   1.000  O
  O57      1.0000 0.52204  0.65025  0.02750  Biso   1.000  O
  O58      1.0000 0.96993  0.45881  0.36467  Biso   1.000  O
  O59      1.0000 0.82668  0.47768  0.56272  Biso   1.000  O
  O60      1.0000 0.02091  0.64692  0.52822  Biso   1.000  O
  O61      1.0000 0.99117  0.03165  0.86498  Biso   1.000  O
  O62      1.0000 0.81266  0.99124  0.04889  Biso   1.000  O
  O63      1.0000 0.01025  0.84419  0.02761  Biso   1.000  O
  O64      1.0000 0.49428  0.04915  0.68019  Biso   1.000  O
  O65      1.0000 0.32723  0.99229  0.48804  Biso   1.000  O
  O66      1.0000 0.52513  0.84204  0.53541  Biso   1.000  O
  O67      1.0000 0.48706  0.54842  0.86981  Biso   1.000  O
  O68      1.0000 0.63363  0.50253  0.05993  Biso   1.000  O
  O69      1.0000 0.43353  0.33607  0.02037  Biso   1.000  O
  O70      1.0000 0.98416  0.52534  0.68125  Biso   1.000  O
  O71      1.0000 0.13660  0.49104  0.47925  Biso   1.000  O
  O72      1.0000 0.94681  0.33213  0.51871  Biso   1.000  O
  O73      1.0000 0.98910  0.43981  0.67921  Biso   1.000  O
  O74      1.0000 0.64099  0.99006  0.46988  Biso   1.000  O
  O75      1.0000 0.43792  0.65462  0.02590  Biso   1.000  O
  O76      1.0000 0.48612  0.46396  0.86400  Biso   1.000  O
  O77      1.0000 0.12937  0.99655  0.07315  Biso   1.000  O
  O78      1.0000 0.93653  0.64579  0.52159  Biso   1.000  O
  O79      1.0000 0.48135  0.96692  0.67916  Biso   1.000  O
  O80      1.0000 0.81968  0.48574  0.47821  Biso   1.000  O
  O81      1.0000 0.01850  0.14747  0.02186  Biso   1.000  O
  O82      1.0000 0.98291  0.94661  0.86320  Biso   1.000  O
  O83      1.0000 0.32441  0.49369  0.06865  Biso   1.000  O
  O84      1.0000 0.52654  0.15064  0.52906  Biso   1.000  O
  O85      1.0000 0.98117  0.54324  0.36573  Biso   1.000  O
  O86      1.0000 0.32664  0.00184  0.57146  Biso   1.000  O
  O87      1.0000 0.51685  0.33842  0.02003  Biso   1.000  O
  O88      1.0000 0.47781  0.52438  0.18106  Biso   1.000  O
  O89      1.0000 0.81945  0.99796  0.96378  Biso   1.000  O
  O90      1.0000 0.02932  0.33204  0.51682  Biso   1.000  O
  O91      1.0000 0.47362  0.03182  0.36649  Biso   1.000  O
  O92      1.0000 0.13955  0.49985  0.56240  Biso   1.000  O
  O93      1.0000 0.92567  0.83766  0.01769  Biso   1.000  O
  O94      1.0000 0.96143  0.04576  0.17482  Biso   1.000  O
  O95      1.0000 0.64030  0.48829  0.97660  Biso   1.000  O
  O96      1.0000 0.43996  0.83565  0.51970  Biso   1.000  O
  O97      1.0000 0.44418  0.20300  0.50205  Biso   1.000  O
  O98      1.0000 0.48044  0.43882  0.23015  Biso   1.000  O
  O99      1.0000 0.18467  0.49699  0.47546  Biso   1.000  O
  O100     1.0000 0.93452  0.19752  0.00730  Biso   1.000  O
  O101     1.0000 0.96779  0.46003  0.31552  Biso   1.000  O
  O102     1.0000 0.68387  0.50241  0.06239  Biso   1.000  O
  O103     1.0000 0.01616  0.69476  0.53428  Biso   1.000  O
  O104     1.0000 0.95868  0.96243  0.22368  Biso   1.000  O
  O105     1.0000 0.27976  0.98339  0.49109  Biso   1.000  O
  O106     1.0000 0.52506  0.69765  0.03498  Biso   1.000  O
  O107     1.0000 0.46180  0.94281  0.32435  Biso   1.000  O
  O108     1.0000 0.76515  0.98619  0.04555  Biso   1.000  O
  O109     1.0000 0.52440  0.79426  0.54372  Biso   1.000  O
  O110     1.0000 0.48268  0.55268  0.82049  Biso   1.000  O
  O111     1.0000 0.77880  0.47786  0.56664  Biso   1.000  O
  O112     1.0000 0.01184  0.79629  0.02986  Biso   1.000  O
  O113     1.0000 0.98912  0.52245  0.73079  Biso   1.000  O
  O114     1.0000 0.27757  0.50599  0.98322  Biso   1.000  O
  O115     1.0000 0.94644  0.28395  0.51167  Biso   1.000  O
  O116     1.0000 0.98947  0.03070  0.81637  Biso   1.000  O
  O117     1.0000 0.69013  0.98142  0.54975  Biso   1.000  O
  O118     1.0000 0.43130  0.28821  0.01671  Biso   1.000  O
  O119     1.0000 0.49411  0.05279  0.72833  Biso   1.000  O
  O120     1.0000 0.18931  0.99287  0.98889  Biso   1.000  O
  O121     1.0000 0.03131  0.47739  0.72416  Biso   1.000  O
  O122     1.0000 0.68497  0.02876  0.51901  Biso   1.000  O
  O123     1.0000 0.48194  0.69735  0.07399  Biso   1.000  O
  O124     1.0000 0.52792  0.51362  0.81554  Biso   1.000  O
  O125     1.0000 0.18583  0.03691  0.03144  Biso   1.000  O
  O126     1.0000 0.97718  0.70202  0.48621  Biso   1.000  O
  O127     1.0000 0.44974  0.01164  0.73301  Biso   1.000  O
  O128     1.0000 0.77833  0.52355  0.52983  Biso   1.000  O
  O129     1.0000 0.97297  0.20321  0.05264  Biso   1.000  O
  O130     1.0000 0.94651  0.99026  0.81292  Biso   1.000  O
  O131     1.0000 0.28012  0.54218  0.02710  Biso   1.000  O
  O132     1.0000 0.49508  0.20136  0.47124  Biso   1.000  O
  O133     1.0000 0.93191  0.50848  0.32093  Biso   1.000  O
  O134     1.0000 0.27767  0.95317  0.53980  Biso   1.000  O
  O135     1.0000 0.47242  0.29250  0.96876  Biso   1.000  O
  O136     1.0000 0.43977  0.48041  0.23272  Biso   1.000  O
  O137     1.0000 0.77029  0.95343  0.99140  Biso   1.000  O
  O138     1.0000 0.99397  0.28022  0.55682  Biso   1.000  O
  O139     1.0000 0.50846  0.97724  0.31830  Biso   1.000  O
  O140     1.0000 0.18805  0.45635  0.52270  Biso   1.000  O
  O141     1.0000 0.97048  0.78712  0.98478  Biso   1.000  O
  O142     1.0000 0.00232  0.00189  0.22773  Biso   1.000  O
  O143     1.0000 0.68344  0.44895  0.02917  Biso   1.000  O
  O144     1.0000 0.47312  0.79748  0.57281  Biso   1.000  O
  O145     1.0000 0.52285  0.48427  0.22644  Biso   1.000  O
  O146     1.0000 0.18369  0.53996  0.51384  Biso   1.000  O
  O147     1.0000 0.47626  0.20056  0.55225  Biso   1.000  O
  O148     1.0000 0.01381  0.49462  0.31247  Biso   1.000  O
  O149     1.0000 0.68775  0.53227  0.00890  Biso   1.000  O
  O150     1.0000 0.98142  0.19356  0.97374  Biso   1.000  O
  O151     1.0000 0.91701  0.00303  0.21865  Biso   1.000  O
  O152     1.0000 0.28374  0.03818  0.52230  Biso   1.000  O
  O153     1.0000 0.97152  0.68937  0.57171  Biso   1.000  O
  O154     1.0000 0.42471  0.99483  0.31678  Biso   1.000  O
  O155     1.0000 0.76614  0.03737  0.01053  Biso   1.000  O
  O156     1.0000 0.48803  0.70490  0.99296  Biso   1.000  O
  O157     1.0000 0.43878  0.50523  0.82065  Biso   1.000  O
  O158     1.0000 0.77393  0.43902  0.51508  Biso   1.000  O
  O159     1.0000 0.48620  0.78645  0.49195  Biso   1.000  O
  O160     1.0000 0.94549  0.48198  0.72934  Biso   1.000  O
  O161     1.0000 0.27558  0.46048  0.02374  Biso   1.000  O
  O162     1.0000 0.96527  0.79138  0.06832  Biso   1.000  O
  O163     1.0000 0.03174  0.98612  0.81552  Biso   1.000  O
  O164     1.0000 0.68895  0.94590  0.50266  Biso   1.000  O
  O165     1.0000 0.98909  0.29100  0.47326  Biso   1.000  O
  O166     1.0000 0.53316  0.00677  0.72477  Biso   1.000  O
  O167     1.0000 0.18018  0.95211  0.03734  Biso   1.000  O
  O168     1.0000 0.48249  0.28835  0.05360  Biso   1.000  O
  O169     1.0000 0.96002  0.04657  0.22124  Biso   1.000  O
  O170     1.0000 0.17825  0.99416  0.07820  Biso   1.000  O
  O171     1.0000 0.01940  0.19565  0.01710  Biso   1.000  O
  O172     1.0000 0.47342  0.02859  0.31854  Biso   1.000  O
  O173     1.0000 0.68977  0.99260  0.46799  Biso   1.000  O
  O174     1.0000 0.52557  0.20011  0.52374  Biso   1.000  O
  O175     1.0000 0.47531  0.52540  0.23008  Biso   1.000  O
  O176     1.0000 0.27630  0.49418  0.06707  Biso   1.000  O
  O177     1.0000 0.44142  0.70410  0.02942  Biso   1.000  O
  O178     1.0000 0.97755  0.54415  0.31758  Biso   1.000  O
  O179     1.0000 0.77171  0.48376  0.48274  Biso   1.000  O
  O180     1.0000 0.93221  0.69506  0.52868  Biso   1.000  O
  O181     1.0000 0.99194  0.94514  0.81449  Biso   1.000  O
  O182     1.0000 0.77121  0.00425  0.96016  Biso   1.000  O
  O183     1.0000 0.92856  0.78898  0.02088  Biso   1.000  O
  O184     1.0000 0.48619  0.96809  0.72811  Biso   1.000  O
  O185     1.0000 0.27755  0.00221  0.57058  Biso   1.000  O
  O186     1.0000 0.43975  0.78634  0.52691  Biso   1.000  O
  O187     1.0000 0.48683  0.46598  0.81552  Biso   1.000  O
  O188     1.0000 0.68820  0.47867  0.98128  Biso   1.000  O
  O189     1.0000 0.51860  0.29031  0.00995  Biso   1.000  O
  O190     1.0000 0.98508  0.43784  0.72838  Biso   1.000  O
  O191     1.0000 0.18845  0.50370  0.55885  Biso   1.000  O
  O192     1.0000 0.03099  0.28332  0.51304  Biso   1.000  O
