data_image0
_cell_length_a       46.8939
_cell_length_b       46.6906
_cell_length_c       46.6249
_cell_angle_alpha    90
_cell_angle_beta     90
_cell_angle_gamma    90

_symmetry_space_group_name_H-M    "P 1"
_symmetry_int_tables_number       1

loop_
  _symmetry_equiv_pos_as_xyz
  'x, y, z'

loop_
  _atom_site_label
  _atom_site_occupancy
  _atom_site_fract_x
  _atom_site_fract_y
  _atom_site_fract_z
  _atom_site_thermal_displace_type
  _atom_site_B_iso_or_equiv
  _atom_site_type_symbol
  C1       1.0000 0.56181  0.96821  0.31915  Biso   1.000  C
  C2       1.0000 0.34369  0.52814  0.00304  Biso   1.000  C
  C3       1.0000 0.01934  0.30548  0.56146  Biso   1.000  C
  C4       1.0000 0.05776  0.98715  0.19270  Biso   1.000  C
  C5       1.0000 0.83077  0.53323  0.50626  Biso   1.000  C
  C6       1.0000 0.51921  0.30732  0.93975  Biso   1.000  C
  C7       1.0000 0.96783  0.49129  0.32712  Biso   1.000  C
  C8       1.0000 0.20006  0.03283  0.01566  Biso   1.000  C
  C9       1.0000 0.51242  0.80112  0.56967  Biso   1.000  C
  C10      1.0000 0.46940  0.46681  0.18782  Biso   1.000  C
  C11      1.0000 0.70256  0.03142  0.49716  Biso   1.000  C
  C12      1.0000 0.01973  0.80930  0.95275  Biso   1.000  C
  C13      1.0000 0.46826  0.97847  0.68199  Biso   1.000  C
  C14      1.0000 0.70144  0.43717  0.00959  Biso   1.000  C
  C15      1.0000 0.00196  0.66071  0.45429  Biso   1.000  C
  C16      1.0000 0.96442  0.98474  0.81563  Biso   1.000  C
  C17      1.0000 0.20518  0.43296  0.52100  Biso   1.000  C
  C18      1.0000 0.51033  0.65744  0.06994  Biso   1.000  C
  C19      1.0000 0.07423  0.48011  0.69136  Biso   1.000  C
  C20      1.0000 0.83126  0.93216  0.98785  Biso   1.000  C
  C21      1.0000 0.52409  0.15640  0.44057  Biso   1.000  C
  C22      1.0000 0.57841  0.49541  0.82769  Biso   1.000  C
  C23      1.0000 0.33598  0.93329  0.50039  Biso   1.000  C
  C24      1.0000 0.01972  0.15986  0.06509  Biso   1.000  C
  C25      1.0000 0.33744  0.04237  0.51718  Biso   1.000  C
  C26      1.0000 0.52700  0.29407  0.04809  Biso   1.000  C
  C27      1.0000 0.07897  0.48562  0.32943  Biso   1.000  C
  C28      1.0000 0.82509  0.03854  0.00730  Biso   1.000  C
  C29      1.0000 0.01822  0.30447  0.45328  Biso   1.000  C
  C30      1.0000 0.57822  0.46988  0.18692  Biso   1.000  C
  C31      1.0000 0.19842  0.53956  0.50554  Biso   1.000  C
  C32      1.0000 0.01188  0.79972  0.06257  Biso   1.000  C
  C33      1.0000 0.45408  0.97438  0.32401  Biso   1.000  C
  C34      1.0000 0.70578  0.54511  0.00474  Biso   1.000  C
  C35      1.0000 0.50720  0.79977  0.46115  Biso   1.000  C
  C36      1.0000 0.94779  0.98026  0.18857  Biso   1.000  C
  C37      1.0000 0.69485  0.92115  0.49184  Biso   1.000  C
  C38      1.0000 0.52338  0.66392  0.96182  Biso   1.000  C
  C39      1.0000 0.96133  0.48562  0.68576  Biso   1.000  C
  C40      1.0000 0.19947  0.92338  0.01465  Biso   1.000  C
  C41      1.0000 0.01743  0.66059  0.56154  Biso   1.000  C
  C42      1.0000 0.47084  0.49200  0.83106  Biso   1.000  C
  C43      1.0000 0.83458  0.42504  0.50413  Biso   1.000  C
  C44      1.0000 0.01843  0.15622  0.95322  Biso   1.000  C
  C45      1.0000 0.57544  0.00287  0.67728  Biso   1.000  C
  C46      1.0000 0.34311  0.42280  0.02084  Biso   1.000  C
  C47      1.0000 0.51628  0.16238  0.54891  Biso   1.000  C
  C48      1.0000 0.07683  0.98773  0.82574  Biso   1.000  C
  C49      1.0000 0.02289  0.03715  0.81772  Biso   1.000  C
  C50      1.0000 0.82858  0.98475  0.05276  Biso   1.000  C
  C51      1.0000 0.06983  0.79598  0.01128  Biso   1.000  C
  C52      1.0000 0.50973  0.04412  0.68303  Biso   1.000  C
  C53      1.0000 0.33474  0.99830  0.45202  Biso   1.000  C
  C54      1.0000 0.56660  0.79560  0.50914  Biso   1.000  C
  C55      1.0000 0.52144  0.54688  0.82817  Biso   1.000  C
  C56      1.0000 0.70681  0.49386  0.06212  Biso   1.000  C
  C57      1.0000 0.47122  0.29912  0.00154  Biso   1.000  C
  C58      1.0000 0.01853  0.53349  0.68730  Biso   1.000  C
  C59      1.0000 0.20499  0.48444  0.45873  Biso   1.000  C
  C60      1.0000 0.96495  0.30120  0.50935  Biso   1.000  C
  C61      1.0000 0.00341  0.92926  0.19017  Biso   1.000  C
  C62      1.0000 0.19946  0.97838  0.95927  Biso   1.000  C
  C63      1.0000 0.96300  0.16043  0.01155  Biso   1.000  C
  C64      1.0000 0.50576  0.91300  0.32838  Biso   1.000  C
  C65      1.0000 0.70102  0.97943  0.55290  Biso   1.000  C
  C66      1.0000 0.46585  0.16338  0.49001  Biso   1.000  C
  C67      1.0000 0.52296  0.41344  0.18184  Biso   1.000  C
  C68      1.0000 0.34091  0.46478  0.95755  Biso   1.000  C
  C69      1.0000 0.57019  0.66664  0.02058  Biso   1.000  C
  C70      1.0000 0.02186  0.43032  0.32519  Biso   1.000  C
  C71      1.0000 0.83712  0.47724  0.55836  Biso   1.000  C
  C72      1.0000 0.06637  0.66207  0.50279  Biso   1.000  C
  C73      1.0000 0.02689  0.53845  0.32359  Biso   1.000  C
  C74      1.0000 0.33276  0.98084  0.56181  Biso   1.000  C
  C75      1.0000 0.58124  0.30280  0.99004  Biso   1.000  C
  C76      1.0000 0.52626  0.52250  0.19012  Biso   1.000  C
  C77      1.0000 0.82927  0.98852  0.94474  Biso   1.000  C
  C78      1.0000 0.07277  0.30937  0.50581  Biso   1.000  C
  C79      1.0000 0.51061  0.02241  0.32134  Biso   1.000  C
  C80      1.0000 0.20363  0.49295  0.56824  Biso   1.000  C
  C81      1.0000 0.96099  0.80783  0.00825  Biso   1.000  C
  C82      1.0000 0.99668  0.03877  0.18930  Biso   1.000  C
  C83      1.0000 0.70481  0.48459  0.95478  Biso   1.000  C
  C84      1.0000 0.45518  0.79931  0.51797  Biso   1.000  C
  C85      1.0000 0.01548  0.42752  0.69187  Biso   1.000  C
  C86      1.0000 0.69238  0.98123  0.44399  Biso   1.000  C
  C87      1.0000 0.46198  0.65911  0.01453  Biso   1.000  C
  C88      1.0000 0.52268  0.43919  0.82354  Biso   1.000  C
  C89      1.0000 0.19213  0.98244  0.07039  Biso   1.000  C
  C90      1.0000 0.95490  0.66367  0.51050  Biso   1.000  C
  C91      1.0000 0.53045  0.93899  0.68273  Biso   1.000  C
  C92      1.0000 0.83246  0.47927  0.45086  Biso   1.000  C
  C93      1.0000 0.07318  0.15621  0.00573  Biso   1.000  C
  C94      1.0000 0.02391  0.92957  0.81976  Biso   1.000  C
  C95      1.0000 0.33985  0.48774  0.06435  Biso   1.000  C
  C96      1.0000 0.57741  0.15900  0.49745  Biso   1.000  C
  C97      1.0000 0.70391  0.06322  0.49522  Biso   1.000  C
  C98      1.0000 0.50313  0.65256  0.10145  Biso   1.000  C
  C99      1.0000 0.10605  0.48734  0.69323  Biso   1.000  C
  C100     1.0000 0.20164  0.06523  0.02145  Biso   1.000  C
  C101     1.0000 0.00024  0.65931  0.42309  Biso   1.000  C
  C102     1.0000 0.61009  0.49584  0.82895  Biso   1.000  C
  C103     1.0000 0.82840  0.56512  0.50309  Biso   1.000  C
  C104     1.0000 0.01790  0.16141  0.09660  Biso   1.000  C
  C105     1.0000 0.43580  0.97679  0.68348  Biso   1.000  C
  C106     1.0000 0.33927  0.55887  0.00796  Biso   1.000  C
  C107     1.0000 0.51725  0.15574  0.40896  Biso   1.000  C
  C108     1.0000 0.93265  0.98900  0.81571  Biso   1.000  C
  C109     1.0000 0.33537  0.90080  0.49994  Biso   1.000  C
  C110     1.0000 0.51391  0.30945  0.90913  Biso   1.000  C
  C111     1.0000 0.93519  0.49257  0.32680  Biso   1.000  C
  C112     1.0000 0.83192  0.90059  0.98684  Biso   1.000  C
  C113     1.0000 0.02096  0.30525  0.59266  Biso   1.000  C
  C114     1.0000 0.43749  0.47246  0.18769  Biso   1.000  C
  C115     1.0000 0.20344  0.40048  0.52262  Biso   1.000  C
  C116     1.0000 0.02143  0.81005  0.92046  Biso   1.000  C
  C117     1.0000 0.59366  0.97067  0.32094  Biso   1.000  C
  C118     1.0000 0.70144  0.40404  0.00900  Biso   1.000  C
  C119     1.0000 0.51361  0.80371  0.60212  Biso   1.000  C
  C120     1.0000 0.08852  0.99400  0.19076  Biso   1.000  C
  C121     1.0000 0.82787  0.99117  0.08456  Biso   1.000  C
  C122     1.0000 0.10321  0.79526  0.01373  Biso   1.000  C
  C123     1.0000 0.02294  0.07029  0.81847  Biso   1.000  C
  C124     1.0000 0.33394  0.00321  0.42039  Biso   1.000  C
  C125     1.0000 0.59946  0.79473  0.50338  Biso   1.000  C
  C126     1.0000 0.51252  0.07588  0.68029  Biso   1.000  C
  C127     1.0000 0.70582  0.49074  0.09398  Biso   1.000  C
  C128     1.0000 0.44046  0.29657  0.01139  Biso   1.000  C
  C129     1.0000 0.52229  0.57854  0.82908  Biso   1.000  C
  C130     1.0000 0.20534  0.48989  0.42709  Biso   1.000  C
  C131     1.0000 0.93230  0.29870  0.50687  Biso   1.000  C
  C132     1.0000 0.01464  0.56587  0.68728  Biso   1.000  C
  C133     1.0000 0.20182  0.98379  0.92757  Biso   1.000  C
  C134     1.0000 0.93035  0.15984  0.01600  Biso   1.000  C
  C135     1.0000 0.00434  0.89613  0.18986  Biso   1.000  C
  C136     1.0000 0.70408  0.98311  0.58416  Biso   1.000  C
  C137     1.0000 0.43285  0.16283  0.49433  Biso   1.000  C
  C138     1.0000 0.50369  0.88184  0.32996  Biso   1.000  C
  C139     1.0000 0.33980  0.46369  0.92595  Biso   1.000  C
  C140     1.0000 0.60265  0.66770  0.02171  Biso   1.000  C
  C141     1.0000 0.52292  0.37976  0.17953  Biso   1.000  C
  C142     1.0000 0.83459  0.47857  0.59002  Biso   1.000  C
  C143     1.0000 0.09866  0.66423  0.50037  Biso   1.000  C
  C144     1.0000 0.02232  0.39711  0.32530  Biso   1.000  C
  C145     1.0000 0.34004  0.49172  0.09670  Biso   1.000  C
  C146     1.0000 0.10368  0.30866  0.51336  Biso   1.000  C
  C147     1.0000 0.50651  0.05481  0.31894  Biso   1.000  C
  C148     1.0000 0.83641  0.47700  0.42019  Biso   1.000  C
  C149     1.0000 0.61327  0.30522  0.99367  Biso   1.000  C
  C150     1.0000 0.99486  0.07048  0.18874  Biso   1.000  C
  C151     1.0000 0.18817  0.98935  0.10051  Biso   1.000  C
  C152     1.0000 0.42275  0.80109  0.51367  Biso   1.000  C
  C153     1.0000 0.02364  0.57090  0.32530  Biso   1.000  C
  C154     1.0000 0.69001  0.98855  0.41393  Biso   1.000  C
  C155     1.0000 0.92778  0.80905  0.00988  Biso   1.000  C
  C156     1.0000 0.53019  0.55412  0.18957  Biso   1.000  C
  C157     1.0000 0.70529  0.48127  0.92214  Biso   1.000  C
  C158     1.0000 0.92178  0.66268  0.50739  Biso   1.000  C
  C159     1.0000 0.53096  0.90813  0.68479  Biso   1.000  C
  C160     1.0000 0.20313  0.49154  0.59974  Biso   1.000  C
  C161     1.0000 0.43019  0.65832  0.01958  Biso   1.000  C
  C162     1.0000 0.02968  0.89870  0.82221  Biso   1.000  C
  C163     1.0000 0.83253  0.98780  0.91241  Biso   1.000  C
  C164     1.0000 0.61032  0.15843  0.49818  Biso   1.000  C
  C165     1.0000 0.02022  0.39661  0.69317  Biso   1.000  C
  C166     1.0000 0.33453  0.98011  0.59440  Biso   1.000  C
  C167     1.0000 0.10619  0.15798  0.00212  Biso   1.000  C
  C168     1.0000 0.51805  0.40716  0.82018  Biso   1.000  C
  C169     1.0000 0.01329  0.79973  0.09411  Biso   1.000  C
  C170     1.0000 0.10884  0.98755  0.82805  Biso   1.000  C
  C171     1.0000 0.82579  0.06941  0.01141  Biso   1.000  C
  C172     1.0000 0.49930  0.79621  0.42873  Biso   1.000  C
  C173     1.0000 0.60789  0.00235  0.67717  Biso   1.000  C
  C174     1.0000 0.33796  0.07277  0.52055  Biso   1.000  C
  C175     1.0000 0.52133  0.29128  0.07933  Biso   1.000  C
  C176     1.0000 0.43765  0.49107  0.83387  Biso   1.000  C
  C177     1.0000 0.70492  0.57724  0.00632  Biso   1.000  C
  C178     1.0000 0.01893  0.30481  0.42203  Biso   1.000  C
  C179     1.0000 0.92799  0.48721  0.68677  Biso   1.000  C
  C180     1.0000 0.19687  0.57020  0.49772  Biso   1.000  C
  C181     1.0000 0.01499  0.15758  0.92106  Biso   1.000  C
  C182     1.0000 0.91492  0.98355  0.18756  Biso   1.000  C
  C183     1.0000 0.19949  0.89070  0.01278  Biso   1.000  C
  C184     1.0000 0.51331  0.16525  0.58153  Biso   1.000  C
  C185     1.0000 0.42154  0.97647  0.32263  Biso   1.000  C
  C186     1.0000 0.69349  0.88936  0.48705  Biso   1.000  C
  C187     1.0000 0.52419  0.66795  0.93063  Biso   1.000  C
  C188     1.0000 0.61059  0.47729  0.18717  Biso   1.000  C
  C189     1.0000 0.34439  0.39019  0.02300  Biso   1.000  C
  C190     1.0000 0.01676  0.66318  0.59245  Biso   1.000  C
  C191     1.0000 0.11174  0.48898  0.33090  Biso   1.000  C
  C192     1.0000 0.83667  0.39286  0.49926  Biso   1.000  C
  C193     1.0000 0.86103  0.98660  0.89713  Biso   1.000  C
  C194     1.0000 0.91346  0.83628  0.00654  Biso   1.000  C
  C195     1.0000 0.02748  0.88349  0.85081  Biso   1.000  C
  C196     1.0000 0.36229  0.98042  0.60864  Biso   1.000  C
  C197     1.0000 0.40848  0.82917  0.51074  Biso   1.000  C
  C198     1.0000 0.52567  0.88749  0.65993  Biso   1.000  C
  C199     1.0000 0.67818  0.48287  0.90753  Biso   1.000  C
  C200     1.0000 0.62649  0.33288  0.99681  Biso   1.000  C
  C201     1.0000 0.52066  0.39050  0.84625  Biso   1.000  C
  C202     1.0000 0.17686  0.49168  0.61670  Biso   1.000  C
  C203     1.0000 0.12114  0.33470  0.51581  Biso   1.000  C
  C204     1.0000 0.02169  0.38146  0.66599  Biso   1.000  C
  C205     1.0000 0.15854  0.98977  0.11457  Biso   1.000  C
  C206     1.0000 0.12193  0.13224  0.01044  Biso   1.000  C
  C207     1.0000 0.99849  0.08541  0.16248  Biso   1.000  C
  C208     1.0000 0.66230  0.98470  0.39928  Biso   1.000  C
  C209     1.0000 0.62553  0.13072  0.50025  Biso   1.000  C
  C210     1.0000 0.50767  0.07297  0.34620  Biso   1.000  C
  C211     1.0000 0.36917  0.49161  0.11007  Biso   1.000  C
  C212     1.0000 0.41459  0.62882  0.01882  Biso   1.000  C
  C213     1.0000 0.52353  0.57117  0.16283  Biso   1.000  C
  C214     1.0000 0.86410  0.48463  0.40684  Biso   1.000  C
  C215     1.0000 0.90533  0.63545  0.50523  Biso   1.000  C
  C216     1.0000 0.01906  0.58665  0.35256  Biso   1.000  C
  C217     1.0000 0.12318  0.98665  0.85611  Biso   1.000  C
  C218     1.0000 0.85404  0.08453  0.01145  Biso   1.000  C
  C219     1.0000 0.00809  0.82596  0.11027  Biso   1.000  C
  C220     1.0000 0.62389  0.99692  0.65038  Biso   1.000  C
  C221     1.0000 0.36588  0.08688  0.51432  Biso   1.000  C
  C222     1.0000 0.50101  0.82104  0.41135  Biso   1.000  C
  C223     1.0000 0.42120  0.48672  0.86107  Biso   1.000  C
  C224     1.0000 0.67729  0.59293  0.00497  Biso   1.000  C
  C225     1.0000 0.52366  0.31646  0.09874  Biso   1.000  C
  C226     1.0000 0.91194  0.48604  0.65936  Biso   1.000  C
  C227     1.0000 0.16944  0.58593  0.49690  Biso   1.000  C
  C228     1.0000 0.02209  0.33096  0.40449  Biso   1.000  C
  C229     1.0000 0.90207  0.98540  0.15883  Biso   1.000  C
  C230     1.0000 0.17325  0.87367  0.01587  Biso   1.000  C
  C231     1.0000 0.01938  0.13221  0.90295  Biso   1.000  C
  C232     1.0000 0.40587  0.97845  0.34942  Biso   1.000  C
  C233     1.0000 0.66649  0.87351  0.49478  Biso   1.000  C
  C234     1.0000 0.51868  0.14033  0.59793  Biso   1.000  C
  C235     1.0000 0.62690  0.48128  0.16004  Biso   1.000  C
  C236     1.0000 0.37167  0.37583  0.01653  Biso   1.000  C
  C237     1.0000 0.52829  0.64322  0.91155  Biso   1.000  C
  C238     1.0000 0.12773  0.48740  0.35840  Biso   1.000  C
  C239     1.0000 0.86547  0.37841  0.50151  Biso   1.000  C
  C240     1.0000 0.01517  0.63562  0.60742  Biso   1.000  C
  C241     1.0000 0.62769  0.49515  0.85554  Biso   1.000  C
  C242     1.0000 0.85438  0.58320  0.50569  Biso   1.000  C
  C243     1.0000 0.51760  0.83241  0.61382  Biso   1.000  C
  C244     1.0000 0.12275  0.49027  0.66756  Biso   1.000  C
  C245     1.0000 0.36560  0.57598  0.01278  Biso   1.000  C
  C246     1.0000 0.02410  0.83490  0.90321  Biso   1.000  C
  C247     1.0000 0.91627  0.98195  0.84308  Biso   1.000  C
  C248     1.0000 0.67773  0.07912  0.50052  Biso   1.000  C
  C249     1.0000 0.02073  0.33193  0.61026  Biso   1.000  C
  C250     1.0000 0.41899  0.97829  0.65745  Biso   1.000  C
  C251     1.0000 0.17430  0.08121  0.02115  Biso   1.000  C
  C252     1.0000 0.51547  0.33788  0.89429  Biso   1.000  C
  C253     1.0000 0.42224  0.47714  0.16010  Biso   1.000  C
  C254     1.0000 0.17501  0.38409  0.52019  Biso   1.000  C
  C255     1.0000 0.51223  0.12800  0.39419  Biso   1.000  C
  C256     1.0000 0.91990  0.48978  0.35485  Biso   1.000  C
  C257     1.0000 0.67613  0.38675  0.00380  Biso   1.000  C
  C258     1.0000 0.01125  0.13605  0.11283  Biso   1.000  C
  C259     1.0000 0.10454  0.99228  0.16378  Biso   1.000  C
  C260     1.0000 0.36099  0.88348  0.50466  Biso   1.000  C
  C261     1.0000 0.00832  0.63426  0.40580  Biso   1.000  C
  C262     1.0000 0.60975  0.97387  0.34845  Biso   1.000  C
  C263     1.0000 0.86004  0.88673  0.99328  Biso   1.000  C
  C264     1.0000 0.51030  0.62429  0.11376  Biso   1.000  C
  C265     1.0000 0.02369  0.08495  0.84667  Biso   1.000  C
  C266     1.0000 0.85419  0.98785  0.10121  Biso   1.000  C
  C267     1.0000 0.11992  0.82298  0.01541  Biso   1.000  C
  C268     1.0000 0.51671  0.09017  0.65233  Biso   1.000  C
  C269     1.0000 0.35908  0.99339  0.40488  Biso   1.000  C
  C270     1.0000 0.61503  0.82115  0.50182  Biso   1.000  C
  C271     1.0000 0.52509  0.59369  0.85658  Biso   1.000  C
  C272     1.0000 0.67952  0.49084  0.11095  Biso   1.000  C
  C273     1.0000 0.42443  0.32301  0.01314  Biso   1.000  C
  C274     1.0000 0.01072  0.58284  0.66026  Biso   1.000  C
  C275     1.0000 0.17742  0.48957  0.41134  Biso   1.000  C
  C276     1.0000 0.91571  0.32523  0.50578  Biso   1.000  C
  C277     1.0000 0.00329  0.87952  0.16356  Biso   1.000  C
  C278     1.0000 0.17440  0.98571  0.91114  Biso   1.000  C
  C279     1.0000 0.91212  0.13275  0.01364  Biso   1.000  C
  C280     1.0000 0.50538  0.86781  0.35762  Biso   1.000  C
  C281     1.0000 0.67726  0.98695  0.60016  Biso   1.000  C
  C282     1.0000 0.41770  0.13713  0.50197  Biso   1.000  C
  C283     1.0000 0.52228  0.36553  0.15211  Biso   1.000  C
  C284     1.0000 0.36774  0.46798  0.91063  Biso   1.000  C
  C285     1.0000 0.61974  0.64270  0.01541  Biso   1.000  C
  C286     1.0000 0.02251  0.38135  0.35236  Biso   1.000  C
  C287     1.0000 0.86223  0.48311  0.60796  Biso   1.000  C
  C288     1.0000 0.11494  0.63702  0.49699  Biso   1.000  C
  C289     1.0000 0.35881  0.85262  0.50372  Biso   1.000  C
  C290     1.0000 0.51276  0.33661  0.86304  Biso   1.000  C
  C291     1.0000 0.88934  0.48906  0.35446  Biso   1.000  C
  C292     1.0000 0.86062  0.85616  0.99786  Biso   1.000  C
  C293     1.0000 0.02199  0.32902  0.64184  Biso   1.000  C
  C294     1.0000 0.39221  0.48379  0.16276  Biso   1.000  C
  C295     1.0000 0.17460  0.35276  0.52061  Biso   1.000  C
  C296     1.0000 0.02528  0.83186  0.87117  Biso   1.000  C
  C297     1.0000 0.64189  0.98093  0.34763  Biso   1.000  C
  C298     1.0000 0.67866  0.35600  0.00359  Biso   1.000  C
  C299     1.0000 0.52237  0.83458  0.64536  Biso   1.000  C
  C300     1.0000 0.13658  0.99426  0.16641  Biso   1.000  C
  C301     1.0000 0.67851  0.11058  0.49747  Biso   1.000  C
  C302     1.0000 0.51453  0.62485  0.14495  Biso   1.000  C
  C303     1.0000 0.15462  0.48991  0.66821  Biso   1.000  C
  C304     1.0000 0.17578  0.11220  0.01360  Biso   1.000  C
  C305     1.0000 0.00910  0.63740  0.37425  Biso   1.000  C
  C306     1.0000 0.65848  0.48929  0.85403  Biso   1.000  C
  C307     1.0000 0.85272  0.61400  0.50261  Biso   1.000  C
  C308     1.0000 0.00867  0.13702  0.14381  Biso   1.000  C
  C309     1.0000 0.38739  0.97918  0.65972  Biso   1.000  C
  C310     1.0000 0.36207  0.60672  0.01423  Biso   1.000  C
  C311     1.0000 0.51075  0.12710  0.36328  Biso   1.000  C
  C312     1.0000 0.88508  0.98783  0.84381  Biso   1.000  C
  C313     1.0000 0.17981  0.49168  0.37990  Biso   1.000  C
  C314     1.0000 0.38736  0.13955  0.50736  Biso   1.000  C
  C315     1.0000 0.52381  0.33494  0.15190  Biso   1.000  C
  C316     1.0000 0.68064  0.48931  0.14192  Biso   1.000  C
  C317     1.0000 0.87995  0.13456  0.01336  Biso   1.000  C
  C318     1.0000 0.01959  0.35028  0.35114  Biso   1.000  C
  C319     1.0000 0.35576  0.99142  0.37337  Biso   1.000  C
  C320     1.0000 0.14728  0.63876  0.49329  Biso   1.000  C
  C321     1.0000 0.00342  0.84876  0.16352  Biso   1.000  C
  C322     1.0000 0.85133  0.99213  0.13268  Biso   1.000  C
  C323     1.0000 0.65187  0.64488  0.01271  Biso   1.000  C
  C324     1.0000 0.50281  0.83628  0.35768  Biso   1.000  C
  C325     1.0000 0.85897  0.48070  0.63887  Biso   1.000  C
  C326     1.0000 0.64630  0.82124  0.49620  Biso   1.000  C
  C327     1.0000 0.52399  0.62507  0.85719  Biso   1.000  C
  C328     1.0000 0.36665  0.47624  0.88004  Biso   1.000  C
  C329     1.0000 0.15235  0.82212  0.01308  Biso   1.000  C
  C330     1.0000 0.01626  0.61280  0.66015  Biso   1.000  C
  C331     1.0000 0.67874  0.99255  0.63017  Biso   1.000  C
  C332     1.0000 0.88463  0.32420  0.50138  Biso   1.000  C
  C333     1.0000 0.02465  0.11601  0.84743  Biso   1.000  C
  C334     1.0000 0.17637  0.98710  0.87982  Biso   1.000  C
  C335     1.0000 0.39239  0.32234  0.01507  Biso   1.000  C
  C336     1.0000 0.51232  0.12156  0.65166  Biso   1.000  C
  C337     1.0000 0.67907  0.48303  0.87590  Biso   1.000  C
  C338     1.0000 0.87411  0.63595  0.50202  Biso   1.000  C
  C339     1.0000 0.52453  0.85764  0.66473  Biso   1.000  C
  C340     1.0000 0.17667  0.49041  0.64778  Biso   1.000  C
  C341     1.0000 0.38271  0.62920  0.01661  Biso   1.000  C
  C342     1.0000 0.02745  0.85169  0.84924  Biso   1.000  C
  C343     1.0000 0.86223  0.98908  0.86537  Biso   1.000  C
  C344     1.0000 0.65686  0.13191  0.49663  Biso   1.000  C
  C345     1.0000 0.02179  0.35053  0.66492  Biso   1.000  C
  C346     1.0000 0.36425  0.97952  0.64029  Biso   1.000  C
  C347     1.0000 0.15392  0.13427  0.01033  Biso   1.000  C
  C348     1.0000 0.51679  0.35857  0.84374  Biso   1.000  C
  C349     1.0000 0.37044  0.48944  0.14254  Biso   1.000  C
  C350     1.0000 0.15246  0.33250  0.51813  Biso   1.000  C
  C351     1.0000 0.50846  0.10371  0.34318  Biso   1.000  C
  C352     1.0000 0.86653  0.48643  0.37532  Biso   1.000  C
  C353     1.0000 0.65738  0.33377  0.00016  Biso   1.000  C
  C354     1.0000 0.00197  0.11686  0.16423  Biso   1.000  C
  C355     1.0000 0.15886  0.99305  0.14548  Biso   1.000  C
  C356     1.0000 0.37822  0.82909  0.50699  Biso   1.000  C
  C357     1.0000 0.01335  0.61735  0.35117  Biso   1.000  C
  C358     1.0000 0.66224  0.98653  0.36845  Biso   1.000  C
  C359     1.0000 0.88263  0.83568  0.00442  Biso   1.000  C
  C360     1.0000 0.52235  0.60298  0.16464  Biso   1.000  C
  C361     1.0000 0.02308  0.13567  0.87184  Biso   1.000  C
  C362     1.0000 0.86989  0.99106  0.15735  Biso   1.000  C
  C363     1.0000 0.17363  0.84335  0.01246  Biso   1.000  C
  C364     1.0000 0.51292  0.14156  0.62909  Biso   1.000  C
  C365     1.0000 0.37504  0.98440  0.35007  Biso   1.000  C
  C366     1.0000 0.66811  0.84234  0.49293  Biso   1.000  C
  C367     1.0000 0.52592  0.64519  0.87972  Biso   1.000  C
  C368     1.0000 0.65862  0.48564  0.16321  Biso   1.000  C
  C369     1.0000 0.37047  0.34413  0.01660  Biso   1.000  C
  C370     1.0000 0.01555  0.63468  0.63862  Biso   1.000  C
  C371     1.0000 0.15829  0.49185  0.35807  Biso   1.000  C
  C372     1.0000 0.86392  0.34688  0.49889  Biso   1.000  C
  C373     1.0000 0.00435  0.82545  0.14198  Biso   1.000  C
  C374     1.0000 0.15563  0.98852  0.85748  Biso   1.000  C
  C375     1.0000 0.85633  0.11553  0.01080  Biso   1.000  C
  C376     1.0000 0.50128  0.81595  0.37973  Biso   1.000  C
  C377     1.0000 0.65627  0.99772  0.65093  Biso   1.000  C
  C378     1.0000 0.36612  0.11863  0.51118  Biso   1.000  C
  C379     1.0000 0.52291  0.31370  0.12926  Biso   1.000  C
  C380     1.0000 0.38948  0.48234  0.85969  Biso   1.000  C
  C381     1.0000 0.67471  0.62410  0.00879  Biso   1.000  C
  C382     1.0000 0.01816  0.33008  0.37314  Biso   1.000  C
  C383     1.0000 0.88113  0.48061  0.66055  Biso   1.000  C
  C384     1.0000 0.17058  0.61737  0.49469  Biso   1.000  C
  C385     1.0000 0.20318  0.12646  0.00843  Biso   1.000  C
  C386     1.0000 0.01217  0.16357  0.15897  Biso   1.000  C
  C387     1.0000 0.15175  0.99918  0.19298  Biso   1.000  C
  C388     1.0000 0.70523  0.12643  0.49425  Biso   1.000  C
  C389     1.0000 0.51157  0.15246  0.34598  Biso   1.000  C
  C390     1.0000 0.65793  0.98548  0.32018  Biso   1.000  C
  C391     1.0000 0.33441  0.62168  0.01370  Biso   1.000  C
  C392     1.0000 0.51229  0.65029  0.16281  Biso   1.000  C
  C393     1.0000 0.37530  0.48328  0.19036  Biso   1.000  C
  C394     1.0000 0.82532  0.62883  0.49855  Biso   1.000  C
  C395     1.0000 0.00592  0.66425  0.35973  Biso   1.000  C
  C396     1.0000 0.87481  0.49194  0.32672  Biso   1.000  C
  C397     1.0000 0.83293  0.83951  0.99848  Biso   1.000  C
  C398     1.0000 0.02495  0.80493  0.85684  Biso   1.000  C
  C399     1.0000 0.86962  0.99244  0.81711  Biso   1.000  C
  C400     1.0000 0.33078  0.83904  0.50134  Biso   1.000  C
  C401     1.0000 0.52190  0.80927  0.66361  Biso   1.000  C
  C402     1.0000 0.37223  0.98062  0.68807  Biso   1.000  C
  C403     1.0000 0.70691  0.34124  0.00776  Biso   1.000  C
  C404     1.0000 0.50792  0.31008  0.84648  Biso   1.000  C
  C405     1.0000 0.67373  0.48452  0.82656  Biso   1.000  C
  C406     1.0000 0.20121  0.33693  0.52073  Biso   1.000  C
  C407     1.0000 0.02229  0.30163  0.65619  Biso   1.000  C
  C408     1.0000 0.17030  0.48772  0.69559  Biso   1.000  C
  C409     1.0000 0.17298  0.99061  0.83072  Biso   1.000  C
  C410     1.0000 0.83095  0.13212  0.00850  Biso   1.000  C
  C411     1.0000 0.00468  0.79831  0.15637  Biso   1.000  C
  C412     1.0000 0.67130  0.00434  0.67625  Biso   1.000  C
  C413     1.0000 0.33979  0.13491  0.51674  Biso   1.000  C
  C414     1.0000 0.49906  0.78738  0.36537  Biso   1.000  C
  C415     1.0000 0.37355  0.48477  0.83269  Biso   1.000  C
  C416     1.0000 0.70078  0.64045  0.01220  Biso   1.000  C
  C417     1.0000 0.51923  0.28650  0.14305  Biso   1.000  C
  C418     1.0000 0.86548  0.47410  0.68552  Biso   1.000  C
  C419     1.0000 0.19781  0.63323  0.49038  Biso   1.000  C
  C420     1.0000 0.01350  0.30329  0.35895  Biso   1.000  C
  C421     1.0000 0.85273  0.99619  0.18216  Biso   1.000  C
  C422     1.0000 0.20039  0.82803  0.00783  Biso   1.000  C
  C423     1.0000 0.02364  0.16310  0.85922  Biso   1.000  C
  C424     1.0000 0.35834  0.98894  0.32365  Biso   1.000  C
  C425     1.0000 0.69297  0.82684  0.48305  Biso   1.000  C
  C426     1.0000 0.50599  0.16809  0.64298  Biso   1.000  C
  C427     1.0000 0.67479  0.48748  0.18926  Biso   1.000  C
  C428     1.0000 0.34336  0.32753  0.02109  Biso   1.000  C
  C429     1.0000 0.52190  0.67289  0.86643  Biso   1.000  C
  C430     1.0000 0.17375  0.49448  0.33157  Biso   1.000  C
  C431     1.0000 0.83726  0.33159  0.49399  Biso   1.000  C
  C432     1.0000 0.01707  0.66051  0.65494  Biso   1.000  C
  C433     1.0000 0.02863  0.13432  0.82390  Biso   1.000  C
  C434     1.0000 0.82300  0.99793  0.14703  Biso   1.000  C
  C435     1.0000 0.16737  0.79444  0.01150  Biso   1.000  C
  C436     1.0000 0.50744  0.13808  0.67773  Biso   1.000  C
  C437     1.0000 0.32959  0.99761  0.35907  Biso   1.000  C
  C438     1.0000 0.65944  0.79422  0.48708  Biso   1.000  C
  C439     1.0000 0.52086  0.64097  0.83220  Biso   1.000  C
  C440     1.0000 0.70697  0.49103  0.15693  Biso   1.000  C
  C441     1.0000 0.37588  0.29511  0.01650  Biso   1.000  C
  C442     1.0000 0.01890  0.62872  0.68673  Biso   1.000  C
  C443     1.0000 0.20651  0.49780  0.36505  Biso   1.000  C
  C444     1.0000 0.86945  0.29691  0.49739  Biso   1.000  C
  C445     1.0000 0.00452  0.83317  0.19009  Biso   1.000  C
  C446     1.0000 0.20348  0.98875  0.86501  Biso   1.000  C
  C447     1.0000 0.86604  0.16323  0.01205  Biso   1.000  C
  C448     1.0000 0.50224  0.81938  0.33275  Biso   1.000  C
  C449     1.0000 0.70525  0.99298  0.64606  Biso   1.000  C
  C450     1.0000 0.37167  0.16610  0.50814  Biso   1.000  C
  C451     1.0000 0.52201  0.31815  0.17731  Biso   1.000  C
  C452     1.0000 0.33997  0.47430  0.86355  Biso   1.000  C
  C453     1.0000 0.66675  0.67154  0.01748  Biso   1.000  C
  C454     1.0000 0.01654  0.33470  0.32418  Biso   1.000  C
  C455     1.0000 0.83191  0.47285  0.65304  Biso   1.000  C
  C456     1.0000 0.16281  0.66548  0.49214  Biso   1.000  C
  C457     1.0000 0.01193  0.63388  0.32459  Biso   1.000  C
  C458     1.0000 0.33642  0.98222  0.65758  Biso   1.000  C
  C459     1.0000 0.67466  0.30888  0.00269  Biso   1.000  C
  C460     1.0000 0.52705  0.61768  0.19120  Biso   1.000  C
  C461     1.0000 0.83601  0.99197  0.84914  Biso   1.000  C
  C462     1.0000 0.16705  0.30442  0.51643  Biso   1.000  C
  C463     1.0000 0.50471  0.11798  0.31550  Biso   1.000  C
  C464     1.0000 0.20354  0.48652  0.66284  Biso   1.000  C
  C465     1.0000 0.86682  0.80986  0.00918  Biso   1.000  C
  C466     1.0000 0.00003  0.13256  0.19014  Biso   1.000  C
  C467     1.0000 0.70614  0.47735  0.85963  Biso   1.000  C
  C468     1.0000 0.36070  0.80363  0.50494  Biso   1.000  C
  C469     1.0000 0.02153  0.33413  0.69056  Biso   1.000  C
  C470     1.0000 0.68909  0.99275  0.35246  Biso   1.000  C
  C471     1.0000 0.36679  0.65512  0.01567  Biso   1.000  C
  C472     1.0000 0.51273  0.34442  0.81697  Biso   1.000  C
  C473     1.0000 0.18576  0.99802  0.16280  Biso   1.000  C
  C474     1.0000 0.85863  0.66198  0.49688  Biso   1.000  C
  C475     1.0000 0.52604  0.84537  0.69316  Biso   1.000  C
  C476     1.0000 0.84044  0.48560  0.35865  Biso   1.000  C
  C477     1.0000 0.16922  0.15957  0.00485  Biso   1.000  C
  C478     1.0000 0.02723  0.83469  0.82171  Biso   1.000  C
  C479     1.0000 0.34315  0.49267  0.15801  Biso   1.000  C
  C480     1.0000 0.67273  0.15895  0.49670  Biso   1.000  C
  C481     1.0000 0.37445  0.77536  0.51028  Biso   1.000  C
  C482     1.0000 0.51442  0.36012  0.78971  Biso   1.000  C
  C483     1.0000 0.81350  0.47690  0.37142  Biso   1.000  C
  C484     1.0000 0.88047  0.78178  0.01310  Biso   1.000  C
  C485     1.0000 0.01736  0.34929  0.71925  Biso   1.000  C
  C486     1.0000 0.31721  0.50062  0.14473  Biso   1.000  C
  C487     1.0000 0.14961  0.27869  0.51563  Biso   1.000  C
  C488     1.0000 0.03060  0.85127  0.79504  Biso   1.000  C
  C489     1.0000 0.71519  0.99955  0.36746  Biso   1.000  C
  C490     1.0000 0.65997  0.28087  0.00195  Biso   1.000  C
  C491     1.0000 0.52780  0.86554  0.71883  Biso   1.000  C
  C492     1.0000 0.21365  0.99791  0.14755  Biso   1.000  C
  C493     1.0000 0.65808  0.18648  0.49718  Biso   1.000  C
  C494     1.0000 0.53534  0.60319  0.21594  Biso   1.000  C
  C495     1.0000 0.23156  0.48557  0.64805  Biso   1.000  C
  C496     1.0000 0.15313  0.18591  0.00039  Biso   1.000  C
  C497     1.0000 0.01754  0.61783  0.29718  Biso   1.000  C
  C498     1.0000 0.73403  0.47292  0.87551  Biso   1.000  C
  C499     1.0000 0.87507  0.68983  0.50093  Biso   1.000  C
  C500     1.0000 0.99223  0.11661  0.21630  Biso   1.000  C
  C501     1.0000 0.30904  0.98062  0.64350  Biso   1.000  C
  C502     1.0000 0.37948  0.68413  0.01758  Biso   1.000  C
  C503     1.0000 0.49891  0.10036  0.28887  Biso   1.000  C
  C504     1.0000 0.80754  0.99458  0.86476  Biso   1.000  C
  C505     1.0000 0.65707  0.48712  0.80219  Biso   1.000  C
  C506     1.0000 0.79840  0.61076  0.49637  Biso   1.000  C
  C507     1.0000 0.51545  0.78109  0.65090  Biso   1.000  C
  C508     1.0000 0.15139  0.48581  0.72325  Biso   1.000  C
  C509     1.0000 0.30749  0.60452  0.01011  Biso   1.000  C
  C510     1.0000 0.02075  0.77858  0.87450  Biso   1.000  C
  C511     1.0000 0.88466  0.99697  0.79004  Biso   1.000  C
  C512     1.0000 0.73205  0.11050  0.48764  Biso   1.000  C
  C513     1.0000 0.02253  0.27486  0.64013  Biso   1.000  C
  C514     1.0000 0.38981  0.97946  0.71382  Biso   1.000  C
  C515     1.0000 0.23155  0.11188  0.01018  Biso   1.000  C
  C516     1.0000 0.50601  0.28197  0.86121  Biso   1.000  C
  C517     1.0000 0.38971  0.47633  0.21674  Biso   1.000  C
  C518     1.0000 0.22877  0.35241  0.52403  Biso   1.000  C
  C519     1.0000 0.51404  0.18001  0.36065  Biso   1.000  C
  C520     1.0000 0.88952  0.49738  0.29962  Biso   1.000  C
  C521     1.0000 0.73275  0.35966  0.01189  Biso   1.000  C
  C522     1.0000 0.01908  0.18994  0.14321  Biso   1.000  C
  C523     1.0000 0.13550  0.00302  0.21901  Biso   1.000  C
  C524     1.0000 0.30511  0.85673  0.49862  Biso   1.000  C
  C525     1.0000 0.99982  0.69068  0.37799  Biso   1.000  C
  C526     1.0000 0.64119  0.98283  0.29313  Biso   1.000  C
  C527     1.0000 0.80482  0.85286  0.99279  Biso   1.000  C
  C528     1.0000 0.50439  0.67769  0.15027  Biso   1.000  C
  C529     1.0000 0.80130  0.11763  0.01045  Biso   1.000  C
  C530     1.0000 0.00870  0.77172  0.13957  Biso   1.000  C
  C531     1.0000 0.15822  0.99166  0.80298  Biso   1.000  C
  C532     1.0000 0.31327  0.12008  0.52638  Biso   1.000  C
  C533     1.0000 0.49932  0.76267  0.38372  Biso   1.000  C
  C534     1.0000 0.65629  0.01025  0.70476  Biso   1.000  C
  C535     1.0000 0.72970  0.62552  0.01404  Biso   1.000  C
  C536     1.0000 0.51609  0.25926  0.12538  Biso   1.000  C
  C537     1.0000 0.39010  0.48696  0.80485  Biso   1.000  C
  C538     1.0000 0.22465  0.61550  0.48687  Biso   1.000  C
  C539     1.0000 0.01166  0.27694  0.37612  Biso   1.000  C
  C540     1.0000 0.88013  0.47613  0.71322  Biso   1.000  C
  C541     1.0000 0.22775  0.84476  0.00472  Biso   1.000  C
  C542     1.0000 0.01882  0.18888  0.87655  Biso   1.000  C
  C543     1.0000 0.86467  0.99398  0.21150  Biso   1.000  C
  C544     1.0000 0.71912  0.84330  0.47312  Biso   1.000  C
  C545     1.0000 0.49965  0.19248  0.62674  Biso   1.000  C
  C546     1.0000 0.37370  0.98289  0.29615  Biso   1.000  C
  C547     1.0000 0.31674  0.34329  0.02887  Biso   1.000  C
  C548     1.0000 0.51918  0.69987  0.88412  Biso   1.000  C
  C549     1.0000 0.65773  0.48541  0.21620  Biso   1.000  C
  C550     1.0000 0.80869  0.34623  0.49173  Biso   1.000  C
  C551     1.0000 0.01754  0.68787  0.64050  Biso   1.000  C
  C552     1.0000 0.15976  0.49307  0.30294  Biso   1.000  C
  C553     1.0000 0.02688  0.12005  0.79621  Biso   1.000  C
  C554     1.0000 0.79773  0.00023  0.12909  Biso   1.000  C
  C555     1.0000 0.14925  0.76805  0.01076  Biso   1.000  C
  C556     1.0000 0.50484  0.12389  0.70567  Biso   1.000  C
  C557     1.0000 0.30641  0.01105  0.37565  Biso   1.000  C
  C558     1.0000 0.64354  0.76708  0.48721  Biso   1.000  C
  C559     1.0000 0.52001  0.62603  0.80293  Biso   1.000  C
  C560     1.0000 0.73507  0.49182  0.14020  Biso   1.000  C
  C561     1.0000 0.39197  0.26889  0.01388  Biso   1.000  C
  C562     1.0000 0.01845  0.61354  0.71352  Biso   1.000  C
  C563     1.0000 0.23242  0.50108  0.38222  Biso   1.000  C
  C564     1.0000 0.88572  0.26963  0.49943  Biso   1.000  C
  C565     1.0000 0.00602  0.85036  0.21687  Biso   1.000  C
  C566     1.0000 0.23115  0.98574  0.88089  Biso   1.000  C
  C567     1.0000 0.88382  0.18857  0.01399  Biso   1.000  C
  C568     1.0000 0.49784  0.83337  0.30556  Biso   1.000  C
  C569     1.0000 0.73374  0.98909  0.63128  Biso   1.000  C
  C570     1.0000 0.38779  0.19239  0.50140  Biso   1.000  C
  C571     1.0000 0.52373  0.33132  0.20558  Biso   1.000  C
  C572     1.0000 0.31213  0.46589  0.87870  Biso   1.000  C
  C573     1.0000 0.65014  0.69599  0.02789  Biso   1.000  C
  C574     1.0000 0.01899  0.35151  0.29680  Biso   1.000  C
  C575     1.0000 0.80599  0.46781  0.63571  Biso   1.000  C
  C576     1.0000 0.14603  0.69181  0.49519  Biso   1.000  C
  C577     1.0000 0.31412  0.49692  0.11367  Biso   1.000  C
  C578     1.0000 0.11797  0.28003  0.51261  Biso   1.000  C
  C579     1.0000 0.50102  0.06960  0.29160  Biso   1.000  C
  C580     1.0000 0.81115  0.47322  0.40253  Biso   1.000  C
  C581     1.0000 0.62936  0.27863  0.99551  Biso   1.000  C
  C582     1.0000 0.98934  0.08537  0.21532  Biso   1.000  C
  C583     1.0000 0.21480  0.99423  0.11739  Biso   1.000  C
  C584     1.0000 0.40607  0.77369  0.51406  Biso   1.000  C
  C585     1.0000 0.02189  0.58661  0.29850  Biso   1.000  C
  C586     1.0000 0.71604  0.99595  0.39867  Biso   1.000  C
  C587     1.0000 0.91069  0.78173  0.01531  Biso   1.000  C
  C588     1.0000 0.53742  0.57114  0.21572  Biso   1.000  C
  C589     1.0000 0.73414  0.47591  0.90667  Biso   1.000  C
  C590     1.0000 0.90663  0.69015  0.50711  Biso   1.000  C
  C591     1.0000 0.53359  0.89638  0.71368  Biso   1.000  C
  C592     1.0000 0.23057  0.48739  0.61619  Biso   1.000  C
  C593     1.0000 0.41110  0.68494  0.01933  Biso   1.000  C
  C594     1.0000 0.03274  0.88209  0.79650  Biso   1.000  C
  C595     1.0000 0.80608  0.99328  0.89594  Biso   1.000  C
  C596     1.0000 0.62709  0.18598  0.49412  Biso   1.000  C
  C597     1.0000 0.01844  0.38123  0.71925  Biso   1.000  C
  C598     1.0000 0.30835  0.97960  0.61202  Biso   1.000  C
  C599     1.0000 0.12150  0.18498  0.99861  Biso   1.000  C
  C600     1.0000 0.51414  0.39146  0.79183  Biso   1.000  C
  C601     1.0000 0.22961  0.98202  0.91239  Biso   1.000  C
  C602     1.0000 0.91533  0.18734  0.01890  Biso   1.000  C
  C603     1.0000 0.00687  0.88135  0.21690  Biso   1.000  C
  C604     1.0000 0.73117  0.98380  0.59955  Biso   1.000  C
  C605     1.0000 0.41860  0.19085  0.49360  Biso   1.000  C
  C606     1.0000 0.49858  0.86531  0.30401  Biso   1.000  C
  C607     1.0000 0.31233  0.46178  0.90966  Biso   1.000  C
  C608     1.0000 0.61824  0.69337  0.02885  Biso   1.000  C
  C609     1.0000 0.52373  0.36320  0.20606  Biso   1.000  C
  C610     1.0000 0.80743  0.47068  0.60349  Biso   1.000  C
  C611     1.0000 0.11398  0.69062  0.49968  Biso   1.000  C
  C612     1.0000 0.01958  0.38239  0.29784  Biso   1.000  C
  C613     1.0000 0.79997  0.99818  0.09798  Biso   1.000  C
  C614     1.0000 0.11781  0.76765  0.01185  Biso   1.000  C
  C615     1.0000 0.02351  0.08807  0.79267  Biso   1.000  C
  C616     1.0000 0.30742  0.01209  0.40696  Biso   1.000  C
  C617     1.0000 0.61304  0.76768  0.49603  Biso   1.000  C
  C618     1.0000 0.50614  0.09256  0.70734  Biso   1.000  C
  C619     1.0000 0.73353  0.49095  0.10879  Biso   1.000  C
  C620     1.0000 0.42368  0.26976  0.01217  Biso   1.000  C
  C621     1.0000 0.52035  0.59367  0.80173  Biso   1.000  C
  C622     1.0000 0.23217  0.49636  0.41329  Biso   1.000  C
  C623     1.0000 0.91796  0.27095  0.50392  Biso   1.000  C
  C624     1.0000 0.01786  0.58308  0.71348  Biso   1.000  C
  C625     1.0000 0.01561  0.18745  0.90770  Biso   1.000  C
  C626     1.0000 0.89670  0.98720  0.21254  Biso   1.000  C
  C627     1.0000 0.22719  0.87627  0.00639  Biso   1.000  C
  C628     1.0000 0.50168  0.19173  0.59496  Biso   1.000  C
  C629     1.0000 0.40566  0.97689  0.29585  Biso   1.000  C
  C630     1.0000 0.72023  0.87506  0.47708  Biso   1.000  C
  C631     1.0000 0.51897  0.69631  0.91693  Biso   1.000  C
  C632     1.0000 0.62744  0.48013  0.21483  Biso   1.000  C
  C633     1.0000 0.31755  0.37394  0.03149  Biso   1.000  C
  C634     1.0000 0.01714  0.68987  0.61013  Biso   1.000  C
  C635     1.0000 0.12862  0.49440  0.30454  Biso   1.000  C
  C636     1.0000 0.80921  0.37765  0.49644  Biso   1.000  C
  C637     1.0000 0.01688  0.77308  0.10906  Biso   1.000  C
  C638     1.0000 0.12664  0.98887  0.80264  Biso   1.000  C
  C639     1.0000 0.79970  0.08671  0.00982  Biso   1.000  C
  C640     1.0000 0.49730  0.76679  0.41531  Biso   1.000  C
  C641     1.0000 0.62376  0.00954  0.70395  Biso   1.000  C
  C642     1.0000 0.31188  0.08935  0.52605  Biso   1.000  C
  C643     1.0000 0.51753  0.26283  0.09248  Biso   1.000  C
  C644     1.0000 0.42184  0.49141  0.80686  Biso   1.000  C
  C645     1.0000 0.73223  0.59340  0.01121  Biso   1.000  C
  C646     1.0000 0.01268  0.27820  0.40720  Biso   1.000  C
  C647     1.0000 0.91273  0.48282  0.71395  Biso   1.000  C
  C648     1.0000 0.22530  0.58509  0.49448  Biso   1.000  C
  C649     1.0000 0.99805  0.68749  0.40943  Biso   1.000  C
  C650     1.0000 0.42031  0.97511  0.71131  Biso   1.000  C
  C651     1.0000 0.72995  0.39091  0.01307  Biso   1.000  C
  C652     1.0000 0.49786  0.67760  0.12000  Biso   1.000  C
  C653     1.0000 0.91690  0.99753  0.79024  Biso   1.000  C
  C654     1.0000 0.23065  0.38342  0.52297  Biso   1.000  C
  C655     1.0000 0.51681  0.18154  0.39215  Biso   1.000  C
  C656     1.0000 0.12009  0.48484  0.72103  Biso   1.000  C
  C657     1.0000 0.80489  0.88404  0.98658  Biso   1.000  C
  C658     1.0000 0.02206  0.18908  0.11152  Biso   1.000  C
  C659     1.0000 0.62629  0.49312  0.80226  Biso   1.000  C
  C660     1.0000 0.30739  0.88818  0.49638  Biso   1.000  C
  C661     1.0000 0.02082  0.27727  0.60783  Biso   1.000  C
  C662     1.0000 0.61114  0.97343  0.29340  Biso   1.000  C
  C663     1.0000 0.30985  0.57235  0.00883  Biso   1.000  C
  C664     1.0000 0.50887  0.28270  0.89312  Biso   1.000  C
  C665     1.0000 0.10382  0.99929  0.21819  Biso   1.000  C
  C666     1.0000 0.80068  0.57908  0.49812  Biso   1.000  C
  C667     1.0000 0.51207  0.77860  0.61997  Biso   1.000  C
  C668     1.0000 0.92069  0.49612  0.29926  Biso   1.000  C
  C669     1.0000 0.23105  0.08035  0.01697  Biso   1.000  C
  C670     1.0000 0.01959  0.78212  0.90576  Biso   1.000  C
  C671     1.0000 0.42042  0.47030  0.21472  Biso   1.000  C
  C672     1.0000 0.73012  0.07887  0.49044  Biso   1.000  C
  C673     1.0000 0.22052  0.99080  0.81822  Biso   1.000  C
  C674     1.0000 0.82016  0.17963  0.00948  Biso   1.000  C
  C675     1.0000 0.00262  0.78438  0.20259  Biso   1.000  C
  C676     1.0000 0.71739  0.00168  0.69180  Biso   1.000  C
  C677     1.0000 0.32273  0.18043  0.51267  Biso   1.000  C
  C678     1.0000 0.50585  0.77193  0.32022  Biso   1.000  C
  C679     1.0000 0.32603  0.48267  0.81825  Biso   1.000  C
  C680     1.0000 0.71106  0.68821  0.01716  Biso   1.000  C
  C681     1.0000 0.51692  0.26991  0.18853  Biso   1.000  C
  C682     1.0000 0.82021  0.46429  0.70019  Biso   1.000  C
  C683     1.0000 0.21115  0.67864  0.48333  Biso   1.000  C
  C684     1.0000 0.01193  0.28775  0.31173  Biso   1.000  C
  C685     1.0000 0.80395  0.00784  0.19118  Biso   1.000  C
  C686     1.0000 0.21362  0.78099  0.00764  Biso   1.000  C
  C687     1.0000 0.02783  0.18083  0.81360  Biso   1.000  C
  C688     1.0000 0.31116  0.00228  0.31332  Biso   1.000  C
  C689     1.0000 0.70564  0.78021  0.47402  Biso   1.000  C
  C690     1.0000 0.50345  0.18486  0.68945  Biso   1.000  C
  C691     1.0000 0.72075  0.49127  0.20334  Biso   1.000  C
  C692     1.0000 0.32589  0.28415  0.01808  Biso   1.000  C
  C693     1.0000 0.52377  0.68927  0.82108  Biso   1.000  C
  C694     1.0000 0.21979  0.49928  0.31713  Biso   1.000  C
  C695     1.0000 0.82437  0.28459  0.48787  Biso   1.000  C
  C696     1.0000 0.02396  0.67488  0.70156  Biso   1.000  C
  C697     1.0000 0.70330  0.99873  0.30661  Biso   1.000  C
  C698     1.0000 0.32085  0.66964  0.01076  Biso   1.000  C
  C699     1.0000 0.02482  0.28748  0.70240  Biso   1.000  C
  C700     1.0000 0.19863  0.00153  0.20978  Biso   1.000  C
  C701     1.0000 0.81318  0.67426  0.48558  Biso   1.000  C
  C702     1.0000 0.50959  0.29693  0.79902  Biso   1.000  C
  C703     1.0000 0.82748  0.49193  0.31252  Biso   1.000  C
  C704     1.0000 0.21800  0.17383  0.00475  Biso   1.000  C
  C705     1.0000 0.52540  0.79806  0.71125  Biso   1.000  C
  C706     1.0000 0.32642  0.48907  0.20394  Biso   1.000  C
  C707     1.0000 0.72051  0.17161  0.49406  Biso   1.000  C
  C708     1.0000 0.02301  0.78865  0.80927  Biso   1.000  C
  C709     1.0000 0.32737  0.98532  0.70709  Biso   1.000  C
  C710     1.0000 0.72175  0.29614  0.00528  Biso   1.000  C
  C711     1.0000 0.00452  0.68065  0.31362  Biso   1.000  C
  C712     1.0000 0.82394  0.99584  0.80150  Biso   1.000  C
  C713     1.0000 0.21307  0.28907  0.51766  Biso   1.000  C
  C714     1.0000 0.51811  0.66093  0.20967  Biso   1.000  C
  C715     1.0000 0.21673  0.48333  0.71067  Biso   1.000  C
  C716     1.0000 0.81891  0.79512  0.01071  Biso   1.000  C
  C717     1.0000 0.50578  0.16287  0.29725  Biso   1.000  C
  C718     1.0000 0.71821  0.47377  0.81147  Biso   1.000  C
  C719     1.0000 0.31360  0.79234  0.49467  Biso   1.000  C
  C720     1.0000 0.00474  0.17933  0.20483  Biso   1.000  C
  C721     1.0000 0.52779  0.77348  0.29790  Biso   1.000  C
  C722     1.0000 0.32809  0.50300  0.79420  Biso   1.000  C
  C723     1.0000 0.79818  0.28663  0.50577  Biso   1.000  C
  C724     1.0000 0.98405  0.75847  0.19931  Biso   1.000  C
  C725     1.0000 0.79170  0.47982  0.69761  Biso   1.000  C
  C726     1.0000 0.29816  0.29103  0.00274  Biso   1.000  C
  C727     1.0000 0.99077  0.26372  0.31432  Biso   1.000  C
  C728     1.0000 0.24658  0.00841  0.82421  Biso   1.000  C
  C729     1.0000 0.73599  0.78335  0.48246  Biso   1.000  C
  C730     1.0000 0.50091  0.27367  0.21500  Biso   1.000  C
  C731     1.0000 0.73943  0.97895  0.69119  Biso   1.000  C
  C732     1.0000 0.24086  0.78285  0.99139  Biso   1.000  C
  C733     1.0000 0.48529  0.18345  0.71637  Biso   1.000  C
  C734     1.0000 0.72028  0.47426  0.22856  Biso   1.000  C
  C735     1.0000 0.20286  0.70458  0.46895  Biso   1.000  C
  C736     1.0000 0.01022  0.20699  0.81699  Biso   1.000  C
  C737     1.0000 0.24609  0.48274  0.31921  Biso   1.000  C
  C738     1.0000 0.73610  0.68887  0.03589  Biso   1.000  C
  C739     1.0000 0.04311  0.67114  0.72604  Biso   1.000  C
  C740     1.0000 0.77304  0.99748  0.18806  Biso   1.000  C
  C741     1.0000 0.29270  0.17400  0.50508  Biso   1.000  C
  C742     1.0000 0.54409  0.68676  0.79507  Biso   1.000  C
  C743     1.0000 0.28114  0.99452  0.32039  Biso   1.000  C
  C744     1.0000 0.82429  0.20766  0.02528  Biso   1.000  C
  C745     1.0000 0.01531  0.70808  0.31976  Biso   1.000  C
  C746     1.0000 0.30336  0.00574  0.70571  Biso   1.000  C
  C747     1.0000 0.74542  0.29583  0.02692  Biso   1.000  C
  C748     1.0000 0.52654  0.69098  0.20537  Biso   1.000  C
  C749     1.0000 0.82563  0.97704  0.77587  Biso   1.000  C
  C750     1.0000 0.23713  0.28879  0.53936  Biso   1.000  C
  C751     1.0000 0.51742  0.15559  0.26813  Biso   1.000  C
  C752     1.0000 0.24180  0.46392  0.70950  Biso   1.000  C
  C753     1.0000 0.79645  0.79238  0.98921  Biso   1.000  C
  C754     1.0000 0.01334  0.17394  0.23387  Biso   1.000  C
  C755     1.0000 0.71299  0.45209  0.78631  Biso   1.000  C
  C756     1.0000 0.28326  0.79526  0.50429  Biso   1.000  C
  C757     1.0000 0.01138  0.25959  0.70143  Biso   1.000  C
  C758     1.0000 0.69429  0.01717  0.28358  Biso   1.000  C
  C759     1.0000 0.29376  0.66816  0.02581  Biso   1.000  C
  C760     1.0000 0.53129  0.29535  0.77586  Biso   1.000  C
  C761     1.0000 0.22365  0.02192  0.20655  Biso   1.000  C
  C762     1.0000 0.82001  0.69921  0.46700  Biso   1.000  C
  C763     1.0000 0.51123  0.80523  0.73982  Biso   1.000  C
  C764     1.0000 0.79941  0.50668  0.31737  Biso   1.000  C
  C765     1.0000 0.23931  0.17479  0.02685  Biso   1.000  C
  C766     1.0000 0.01098  0.79229  0.77951  Biso   1.000  C
  C767     1.0000 0.33349  0.50073  0.23245  Biso   1.000  C
  C768     1.0000 0.71528  0.19742  0.47771  Biso   1.000  C
  C769     1.0000 0.50513  0.71478  0.82290  Biso   1.000  C
  C770     1.0000 0.82583  0.44751  0.72655  Biso   1.000  C
  C771     1.0000 0.69896  0.75317  0.45914  Biso   1.000  C
  C772     1.0000 0.00533  0.69976  0.70191  Biso   1.000  C
  C773     1.0000 0.30170  0.46088  0.81969  Biso   1.000  C
  C774     1.0000 0.21017  0.75442  0.02626  Biso   1.000  C
  C775     1.0000 0.04758  0.17970  0.78822  Biso   1.000  C
  C776     1.0000 0.71766  0.02367  0.71472  Biso   1.000  C
  C777     1.0000 0.83049  0.25696  0.47477  Biso   1.000  C
  C778     1.0000 0.52078  0.21111  0.68508  Biso   1.000  C
  C779     1.0000 0.21980  0.97813  0.78963  Biso   1.000  C
  C780     1.0000 0.32841  0.25483  0.02912  Biso   1.000  C
  C781     1.0000 0.53128  0.24106  0.18298  Biso   1.000  C
  C782     1.0000 0.21581  0.51664  0.29017  Biso   1.000  C
  C783     1.0000 0.32931  0.20976  0.52305  Biso   1.000  C
  C784     1.0000 0.02787  0.29262  0.28308  Biso   1.000  C
  C785     1.0000 0.74568  0.51017  0.20050  Biso   1.000  C
  C786     1.0000 0.79385  0.17858  0.99266  Biso   1.000  C
  C787     1.0000 0.02034  0.78818  0.22896  Biso   1.000  C
  C788     1.0000 0.31621  0.01372  0.28565  Biso   1.000  C
  C789     1.0000 0.24023  0.67559  0.49682  Biso   1.000  C
  C790     1.0000 0.48910  0.74466  0.32149  Biso   1.000  C
  C791     1.0000 0.80724  0.02710  0.21646  Biso   1.000  C
  C792     1.0000 0.70574  0.71382  0.99875  Biso   1.000  C
  C793     1.0000 0.49379  0.19207  0.29997  Biso   1.000  C
  C794     1.0000 0.29589  0.47632  0.20075  Biso   1.000  C
  C795     1.0000 0.21161  0.26315  0.49704  Biso   1.000  C
  C796     1.0000 0.99679  0.20945  0.19719  Biso   1.000  C
  C797     1.0000 0.83318  0.47996  0.28306  Biso   1.000  C
  C798     1.0000 0.72169  0.27430  0.98284  Biso   1.000  C
  C799     1.0000 0.99328  0.67345  0.28495  Biso   1.000  C
  C800     1.0000 0.19613  0.98227  0.23471  Biso   1.000  C
  C801     1.0000 0.32064  0.76660  0.47744  Biso   1.000  C
  C802     1.0000 0.51027  0.65454  0.23961  Biso   1.000  C
  C803     1.0000 0.73418  0.98840  0.30341  Biso   1.000  C
  C804     1.0000 0.81726  0.77769  0.03750  Biso   1.000  C
  C805     1.0000 0.54094  0.77064  0.70743  Biso   1.000  C
  C806     1.0000 0.74729  0.48687  0.81241  Biso   1.000  C
  C807     1.0000 0.78252  0.66910  0.49295  Biso   1.000  C
  C808     1.0000 0.03496  0.75883  0.81669  Biso   1.000  C
  C809     1.0000 0.21404  0.50213  0.73757  Biso   1.000  C
  C810     1.0000 0.32491  0.69485  0.99283  Biso   1.000  C
  C811     1.0000 0.04066  0.29146  0.73017  Biso   1.000  C
  C812     1.0000 0.80048  0.01622  0.80371  Biso   1.000  C
  C813     1.0000 0.75031  0.16810  0.50511  Biso   1.000  C
  C814     1.0000 0.48523  0.27692  0.79778  Biso   1.000  C
  C815     1.0000 0.33180  0.97208  0.73574  Biso   1.000  C
  C816     1.0000 0.21767  0.19489  0.98260  Biso   1.000  C
  C817     1.0000 0.01182  0.22803  0.79607  Biso   1.000  C
  C818     1.0000 0.75080  0.00328  0.20878  Biso   1.000  C
  C819     1.0000 0.26096  0.76175  0.99174  Biso   1.000  C
  C820     1.0000 0.48646  0.20606  0.73673  Biso   1.000  C
  C821     1.0000 0.25947  0.99553  0.29963  Biso   1.000  C
  C822     1.0000 0.75549  0.76133  0.48081  Biso   1.000  C
  C823     1.0000 0.54420  0.70827  0.77397  Biso   1.000  C
  C824     1.0000 0.74079  0.47829  0.24967  Biso   1.000  C
  C825     1.0000 0.27669  0.26949  0.99866  Biso   1.000  C
  C826     1.0000 0.04478  0.69390  0.74836  Biso   1.000  C
  C827     1.0000 0.26522  0.48503  0.29619  Biso   1.000  C
  C828     1.0000 0.77764  0.26475  0.50604  Biso   1.000  C
  C829     1.0000 0.98406  0.73873  0.22157  Biso   1.000  C
  C830     1.0000 0.26901  0.01155  0.80453  Biso   1.000  C
  C831     1.0000 0.80638  0.23104  0.02245  Biso   1.000  C
  C832     1.0000 0.53192  0.75229  0.27724  Biso   1.000  C
  C833     1.0000 0.76067  0.97895  0.71230  Biso   1.000  C
  C834     1.0000 0.27143  0.19442  0.50584  Biso   1.000  C
  C835     1.0000 0.49890  0.25298  0.23497  Biso   1.000  C
  C836     1.0000 0.30645  0.50059  0.77279  Biso   1.000  C
  C837     1.0000 0.75479  0.71198  0.03545  Biso   1.000  C
  C838     1.0000 0.98928  0.24382  0.29227  Biso   1.000  C
  C839     1.0000 0.77130  0.48014  0.72016  Biso   1.000  C
  C840     1.0000 0.22289  0.72766  0.47030  Biso   1.000  C
  C841     1.0000 0.24402  0.98179  0.76978  Biso   1.000  C
  C842     1.0000 0.77354  0.20057  0.99368  Biso   1.000  C
  C843     1.0000 0.01791  0.76692  0.25022  Biso   1.000  C
  C844     1.0000 0.73954  0.02456  0.73399  Biso   1.000  C
  C845     1.0000 0.30638  0.23015  0.52318  Biso   1.000  C
  C846     1.0000 0.49270  0.72371  0.30002  Biso   1.000  C
  C847     1.0000 0.28097  0.46249  0.79841  Biso   1.000  C
  C848     1.0000 0.72632  0.73616  0.99770  Biso   1.000  C
  C849     1.0000 0.52831  0.22026  0.20390  Biso   1.000  C
  C850     1.0000 0.80467  0.44832  0.74803  Biso   1.000  C
  C851     1.0000 0.25901  0.69988  0.49703  Biso   1.000  C
  C852     1.0000 0.02406  0.27287  0.26163  Biso   1.000  C
  C853     1.0000 0.78549  0.03000  0.23722  Biso   1.000  C
  C854     1.0000 0.23169  0.73403  0.02586  Biso   1.000  C
  C855     1.0000 0.04543  0.19885  0.76634  Biso   1.000  C
  C856     1.0000 0.29351  0.01408  0.26544  Biso   1.000  C
  C857     1.0000 0.71917  0.73066  0.45704  Biso   1.000  C
  C858     1.0000 0.52051  0.23283  0.70587  Biso   1.000  C
  C859     1.0000 0.76697  0.51292  0.22174  Biso   1.000  C
  C860     1.0000 0.30626  0.23539  0.02442  Biso   1.000  C
  C861     1.0000 0.50549  0.73472  0.80034  Biso   1.000  C
  C862     1.0000 0.23621  0.51663  0.26714  Biso   1.000  C
  C863     1.0000 0.81022  0.23507  0.47671  Biso   1.000  C
  C864     1.0000 0.00660  0.72040  0.72244  Biso   1.000  C
  C865     1.0000 0.73413  0.44966  0.76591  Biso   1.000  C
  C866     1.0000 0.79679  0.71515  0.45912  Biso   1.000  C
  C867     1.0000 0.51004  0.78377  0.75947  Biso   1.000  C
  C868     1.0000 0.26216  0.46348  0.73206  Biso   1.000  C
  C869     1.0000 0.27357  0.68967  0.02568  Biso   1.000  C
  C870     1.0000 0.01172  0.76889  0.76105  Biso   1.000  C
  C871     1.0000 0.80495  0.97918  0.75492  Biso   1.000  C
  C872     1.0000 0.73664  0.21832  0.47728  Biso   1.000  C
  C873     1.0000 0.01280  0.23879  0.72144  Biso   1.000  C
  C874     1.0000 0.28588  0.01198  0.72974  Biso   1.000  C
  C875     1.0000 0.25845  0.19703  0.02916  Biso   1.000  C
  C876     1.0000 0.52938  0.27321  0.75499  Biso   1.000  C
  C877     1.0000 0.31168  0.50626  0.25338  Biso   1.000  C
  C878     1.0000 0.25740  0.26640  0.53797  Biso   1.000  C
  C879     1.0000 0.51861  0.17647  0.24615  Biso   1.000  C
  C880     1.0000 0.77747  0.50540  0.29667  Biso   1.000  C
  C881     1.0000 0.76338  0.27183  0.02725  Biso   1.000  C
  C882     1.0000 0.01151  0.19657  0.25485  Biso   1.000  C
  C883     1.0000 0.24424  0.02207  0.22805  Biso   1.000  C
  C884     1.0000 0.26322  0.77338  0.49896  Biso   1.000  C
  C885     1.0000 0.01469  0.72722  0.29728  Biso   1.000  C
  C886     1.0000 0.71290  0.02566  0.26080  Biso   1.000  C
  C887     1.0000 0.77466  0.77277  0.99292  Biso   1.000  C
  C888     1.0000 0.52640  0.70963  0.23052  Biso   1.000  C
  C889     1.0000 0.75141  0.99778  0.28071  Biso   1.000  C
  C890     1.0000 0.30406  0.71650  0.99387  Biso   1.000  C
  C891     1.0000 0.03965  0.27188  0.75313  Biso   1.000  C
  C892     1.0000 0.21947  0.98247  0.25306  Biso   1.000  C
  C893     1.0000 0.76038  0.68566  0.48293  Biso   1.000  C
  C894     1.0000 0.48481  0.25651  0.77515  Biso   1.000  C
  C895     1.0000 0.81263  0.48350  0.26139  Biso   1.000  C
  C896     1.0000 0.23899  0.21730  0.98378  Biso   1.000  C
  C897     1.0000 0.53904  0.75070  0.72997  Biso   1.000  C
  C898     1.0000 0.27456  0.48149  0.22284  Biso   1.000  C
  C899     1.0000 0.77011  0.18932  0.50220  Biso   1.000  C
  C900     1.0000 0.03611  0.73735  0.79566  Biso   1.000  C
  C901     1.0000 0.31501  0.98305  0.75930  Biso   1.000  C
  C902     1.0000 0.74191  0.25205  0.98413  Biso   1.000  C
  C903     1.0000 0.99186  0.69462  0.26477  Biso   1.000  C
  C904     1.0000 0.78032  0.01839  0.78155  Biso   1.000  C
  C905     1.0000 0.23368  0.24275  0.49652  Biso   1.000  C
  C906     1.0000 0.50746  0.67530  0.26164  Biso   1.000  C
  C907     1.0000 0.23565  0.49966  0.75989  Biso   1.000  C
  C908     1.0000 0.79301  0.75967  0.03992  Biso   1.000  C
  C909     1.0000 0.49602  0.21125  0.27797  Biso   1.000  C
  C910     1.0000 0.76813  0.48182  0.79107  Biso   1.000  C
  C911     1.0000 0.29959  0.74606  0.47204  Biso   1.000  C
  C912     1.0000 0.99929  0.23077  0.21708  Biso   1.000  C
  C913     1.0000 0.77913  0.46286  0.74328  Biso   1.000  C
  C914     1.0000 0.74754  0.73514  0.46666  Biso   1.000  C
  C915     1.0000 0.52456  0.73289  0.77708  Biso   1.000  C
  C916     1.0000 0.28408  0.48110  0.77627  Biso   1.000  C
  C917     1.0000 0.25675  0.73777  0.00893  Biso   1.000  C
  C918     1.0000 0.02550  0.71830  0.74569  Biso   1.000  C
  C919     1.0000 0.76112  0.00218  0.73192  Biso   1.000  C
  C920     1.0000 0.78391  0.23847  0.49127  Biso   1.000  C
  C921     1.0000 0.02824  0.22289  0.77057  Biso   1.000  C
  C922     1.0000 0.26822  0.99740  0.77768  Biso   1.000  C
  C923     1.0000 0.28133  0.24208  0.00936  Biso   1.000  C
  C924     1.0000 0.50540  0.23034  0.73224  Biso   1.000  C
  C925     1.0000 0.26052  0.50051  0.27123  Biso   1.000  C
  C926     1.0000 0.27917  0.22258  0.51370  Biso   1.000  C
  C927     1.0000 0.51430  0.22737  0.23038  Biso   1.000  C
  C928     1.0000 0.76314  0.49773  0.24706  Biso   1.000  C
  C929     1.0000 0.78085  0.22682  0.00711  Biso   1.000  C
  C930     1.0000 0.00572  0.24791  0.26793  Biso   1.000  C
  C931     1.0000 0.26580  0.00600  0.27208  Biso   1.000  C
  C932     1.0000 0.25044  0.72416  0.48201  Biso   1.000  C
  C933     1.0000 0.00088  0.74234  0.24631  Biso   1.000  C
  C934     1.0000 0.75842  0.01986  0.23404  Biso   1.000  C
  C935     1.0000 0.74984  0.73390  0.01696  Biso   1.000  C
  C936     1.0000 0.51349  0.72693  0.27826  Biso   1.000  C
  C937     1.0000 0.76157  0.25018  0.00626  Biso   1.000  C
  C938     1.0000 0.00267  0.72184  0.27109  Biso   1.000  C
  C939     1.0000 0.29116  0.99991  0.75625  Biso   1.000  C
  C940     1.0000 0.25694  0.24506  0.51527  Biso   1.000  C
  C941     1.0000 0.51403  0.70336  0.25672  Biso   1.000  C
  C942     1.0000 0.78286  0.99943  0.75734  Biso   1.000  C
  C943     1.0000 0.77328  0.75595  0.01695  Biso   1.000  C
  C944     1.0000 0.50620  0.20379  0.24985  Biso   1.000  C
  C945     1.0000 0.26033  0.48267  0.75514  Biso   1.000  C
  C946     1.0000 0.27017  0.74929  0.48209  Biso   1.000  C
  C947     1.0000 0.00554  0.22465  0.24618  Biso   1.000  C
  C948     1.0000 0.76070  0.46338  0.76785  Biso   1.000  C
  C949     1.0000 0.27874  0.71477  0.01008  Biso   1.000  C
  C950     1.0000 0.02539  0.24436  0.74789  Biso   1.000  C
  C951     1.0000 0.74163  0.01789  0.26159  Biso   1.000  C
  C952     1.0000 0.76801  0.71010  0.46677  Biso   1.000  C
  C953     1.0000 0.50626  0.25509  0.75278  Biso   1.000  C
  C954     1.0000 0.24188  0.00397  0.25113  Biso   1.000  C
  C955     1.0000 0.26062  0.21684  0.00566  Biso   1.000  C
  C956     1.0000 0.52550  0.75720  0.75627  Biso   1.000  C
  C957     1.0000 0.78613  0.49768  0.26950  Biso   1.000  C
  C958     1.0000 0.76298  0.21485  0.49086  Biso   1.000  C
  C959     1.0000 0.02405  0.74227  0.76809  Biso   1.000  C
  C960     1.0000 0.28265  0.49805  0.24736  Biso   1.000  C
  Cu1      1.0000 0.01743  0.47898  0.66026  Biso   1.000  Cu
  Cu2      1.0000 0.67171  0.97828  0.50058  Biso   1.000  Cu
  Cu3      1.0000 0.51783  0.63519  0.01416  Biso   1.000  Cu
  Cu4      1.0000 0.52541  0.49109  0.85435  Biso   1.000  Cu
  Cu5      1.0000 0.16951  0.97582  0.01477  Biso   1.000  Cu
  Cu6      1.0000 0.01066  0.63554  0.50913  Biso   1.000  Cu
  Cu7      1.0000 0.52085  0.99064  0.65305  Biso   1.000  Cu
  Cu8      1.0000 0.86218  0.48149  0.50601  Biso   1.000  Cu
  Cu9      1.0000 0.01755  0.13026  0.00967  Biso   1.000  Cu
  Cu10     1.0000 0.01848  0.98478  0.84575  Biso   1.000  Cu
  Cu11     1.0000 0.36953  0.47587  0.00986  Biso   1.000  Cu
  Cu12     1.0000 0.52076  0.13389  0.49293  Biso   1.000  Cu
  Cu13     1.0000 0.02298  0.48711  0.35256  Biso   1.000  Cu
  Cu14     1.0000 0.36257  0.98861  0.50772  Biso   1.000  Cu
  Cu15     1.0000 0.52558  0.32691  0.99676  Biso   1.000  Cu
  Cu16     1.0000 0.52331  0.46832  0.16004  Biso   1.000  Cu
  Cu17     1.0000 0.85700  0.98682  0.99978  Biso   1.000  Cu
  Cu18     1.0000 0.01810  0.33144  0.50750  Biso   1.000  Cu
  Cu19     1.0000 0.50945  0.97055  0.35013  Biso   1.000  Cu
  Cu20     1.0000 0.17602  0.48269  0.51460  Biso   1.000  Cu
  Cu21     1.0000 0.01574  0.82998  0.00990  Biso   1.000  Cu
  Cu22     1.0000 0.00586  0.98332  0.16439  Biso   1.000  Cu
  Cu23     1.0000 0.67683  0.49063  0.00995  Biso   1.000  Cu
  Cu24     1.0000 0.51243  0.82519  0.51323  Biso   1.000  Cu
  Cu25     1.0000 0.22540  0.97761  0.01606  Biso   1.000  Cu
  Cu26     1.0000 0.01736  0.18515  0.00812  Biso   1.000  Cu
  Cu27     1.0000 0.00203  0.98504  0.21889  Biso   1.000  Cu
  Cu28     1.0000 0.72494  0.97301  0.49612  Biso   1.000  Cu
  Cu29     1.0000 0.52312  0.18664  0.49358  Biso   1.000  Cu
  Cu30     1.0000 0.50708  0.96730  0.29662  Biso   1.000  Cu
  Cu31     1.0000 0.31582  0.47410  0.01057  Biso   1.000  Cu
  Cu32     1.0000 0.51488  0.68858  0.01940  Biso   1.000  Cu
  Cu33     1.0000 0.52486  0.46570  0.21292  Biso   1.000  Cu
  Cu34     1.0000 0.80636  0.47791  0.50472  Biso   1.000  Cu
  Cu35     1.0000 0.01244  0.68920  0.50736  Biso   1.000  Cu
  Cu36     1.0000 0.02454  0.48355  0.29907  Biso   1.000  Cu
  Cu37     1.0000 0.80312  0.98461  0.99685  Biso   1.000  Cu
  Cu38     1.0000 0.01309  0.77848  0.00864  Biso   1.000  Cu
  Cu39     1.0000 0.02488  0.98343  0.79259  Biso   1.000  Cu
  Cu40     1.0000 0.30839  0.98690  0.50818  Biso   1.000  Cu
  Cu41     1.0000 0.51016  0.77083  0.51567  Biso   1.000  Cu
  Cu42     1.0000 0.52087  0.99338  0.70923  Biso   1.000  Cu
  Cu43     1.0000 0.73071  0.49057  0.00923  Biso   1.000  Cu
  Cu44     1.0000 0.52553  0.27256  0.98989  Biso   1.000  Cu
  Cu45     1.0000 0.52475  0.49492  0.80008  Biso   1.000  Cu
  Cu46     1.0000 0.23031  0.48815  0.51310  Biso   1.000  Cu
  Cu47     1.0000 0.01965  0.27878  0.50706  Biso   1.000  Cu
  Cu48     1.0000 0.01659  0.48074  0.71414  Biso   1.000  Cu
  H1       1.0000 0.24113  0.77362  0.50863  Biso   1.000  H
  H2       1.0000 0.54890  0.27122  0.74055  Biso   1.000  H
  H3       1.0000 0.75582  0.51423  0.30282  Biso   1.000  H
  H4       1.0000 0.75970  0.76593  0.97517  Biso   1.000  H
  H5       1.0000 0.00220  0.21626  0.71620  Biso   1.000  H
  H6       1.0000 0.31869  0.51938  0.27346  Biso   1.000  H
  H7       1.0000 0.27533  0.26647  0.55315  Biso   1.000  H
  H8       1.0000 0.00694  0.77195  0.73897  Biso   1.000  H
  H9       1.0000 0.70301  0.03493  0.24306  Biso   1.000  H
  H10      1.0000 0.78028  0.27082  0.04324  Biso   1.000  H
  H11      1.0000 0.50257  0.78916  0.78265  Biso   1.000  H
  H12      1.0000 0.26124  0.03857  0.22672  Biso   1.000  H
  H13      1.0000 0.73374  0.23702  0.46300  Biso   1.000  H
  H14      1.0000 0.53580  0.73153  0.22781  Biso   1.000  H
  H15      1.0000 0.27952  0.44719  0.73192  Biso   1.000  H
  H16      1.0000 0.26973  0.19960  0.05018  Biso   1.000  H
  H17      1.0000 0.02478  0.74839  0.30237  Biso   1.000  H
  H18      1.0000 0.72895  0.43314  0.74906  Biso   1.000  H
  H19      1.0000 0.80012  0.73373  0.44691  Biso   1.000  H
  H20      1.0000 0.01443  0.19023  0.27795  Biso   1.000  H
  H21      1.0000 0.26707  0.02542  0.72444  Biso   1.000  H
  H22      1.0000 0.25373  0.68483  0.04054  Biso   1.000  H
  H23      1.0000 0.52633  0.16847  0.22557  Biso   1.000  H
  H24      1.0000 0.80638  0.96323  0.73705  Biso   1.000  H
  H25      1.0000 0.28742  0.02684  0.80958  Biso   1.000  H
  H26      1.0000 0.81459  0.25268  0.02958  Biso   1.000  H
  H27      1.0000 0.97045  0.71980  0.21986  Biso   1.000  H
  H28      1.0000 0.77261  0.95951  0.71199  Biso   1.000  H
  H29      1.0000 0.24908  0.18780  0.50297  Biso   1.000  H
  H30      1.0000 0.54993  0.75452  0.26189  Biso   1.000  H
  H31      1.0000 0.30993  0.51347  0.75338  Biso   1.000  H
  H32      1.0000 0.77352  0.71046  0.04793  Biso   1.000  H
  H33      1.0000 0.48496  0.25620  0.25384  Biso   1.000  H
  H34      1.0000 0.75050  0.49142  0.71838  Biso   1.000  H
  H35      1.0000 0.21620  0.74798  0.45934  Biso   1.000  H
  H36      1.0000 0.97354  0.22605  0.29595  Biso   1.000  H
  H37      1.0000 0.72907  0.99549  0.20700  Biso   1.000  H
  H38      1.0000 0.28043  0.76409  0.97850  Biso   1.000  H
  H39      1.0000 0.99794  0.24629  0.79797  Biso   1.000  H
  H40      1.0000 0.23640  0.99183  0.30554  Biso   1.000  H
  H41      1.0000 0.77753  0.76567  0.49305  Biso   1.000  H
  H42      1.0000 0.47357  0.20310  0.75570  Biso   1.000  H
  H43      1.0000 0.74088  0.46400  0.26889  Biso   1.000  H
  H44      1.0000 0.25600  0.27423  0.98750  Biso   1.000  H
  H45      1.0000 0.56037  0.70678  0.75638  Biso   1.000  H
  H46      1.0000 0.28585  0.47277  0.29904  Biso   1.000  H
  H47      1.0000 0.75773  0.26775  0.51839  Biso   1.000  H
  H48      1.0000 0.06090  0.69375  0.76548  Biso   1.000  H
  H49      1.0000 0.23522  0.52970  0.24897  Biso   1.000  H
  H50      1.0000 0.31185  0.25194  0.53158  Biso   1.000  H
  H51      1.0000 0.53955  0.20043  0.19860  Biso   1.000  H
  H52      1.0000 0.78467  0.52740  0.22148  Biso   1.000  H
  H53      1.0000 0.75215  0.19545  0.98478  Biso   1.000  H
  H54      1.0000 0.03438  0.27524  0.24016  Biso   1.000  H
  H55      1.0000 0.29889  0.02455  0.24487  Biso   1.000  H
  H56      1.0000 0.28066  0.69985  0.50694  Biso   1.000  H
  H57      1.0000 0.02792  0.77341  0.26985  Biso   1.000  H
  H58      1.0000 0.79327  0.03799  0.25779  Biso   1.000  H
  H59      1.0000 0.72227  0.75551  0.98620  Biso   1.000  H
  H60      1.0000 0.47898  0.70580  0.30110  Biso   1.000  H
  H61      1.0000 0.80760  0.43357  0.76662  Biso   1.000  H
  H62      1.0000 0.71362  0.71132  0.44364  Biso   1.000  H
  H63      1.0000 0.49058  0.75251  0.80226  Biso   1.000  H
  H64      1.0000 0.26157  0.44879  0.79873  Biso   1.000  H
  H65      1.0000 0.22849  0.71469  0.04071  Biso   1.000  H
  H66      1.0000 0.99063  0.73789  0.72454  Biso   1.000  H
  H67      1.0000 0.74172  0.04292  0.74918  Biso   1.000  H
  H68      1.0000 0.81629  0.21451  0.46679  Biso   1.000  H
  H69      1.0000 0.05946  0.19653  0.74690  Biso   1.000  H
  H70      1.0000 0.24487  0.96765  0.74980  Biso   1.000  H
  H71      1.0000 0.30854  0.21339  0.03232  Biso   1.000  H
  H72      1.0000 0.52684  0.25451  0.69782  Biso   1.000  H
  H73      1.0000 0.78953  0.49286  0.79141  Biso   1.000  H
  H74      1.0000 0.73823  0.68189  0.48843  Biso   1.000  H
  H75      1.0000 0.54850  0.72887  0.72477  Biso   1.000  H
  H76      1.0000 0.23495  0.51538  0.77690  Biso   1.000  H
  H77      1.0000 0.30653  0.73621  0.98269  Biso   1.000  H
  H78      1.0000 0.04629  0.71753  0.80164  Biso   1.000  H
  H79      1.0000 0.76204  0.03283  0.78439  Biso   1.000  H
  H80      1.0000 0.78977  0.18472  0.51256  Biso   1.000  H
  H81      1.0000 0.05067  0.27805  0.77224  Biso   1.000  H
  H82      1.0000 0.31839  0.97428  0.78086  Biso   1.000  H
  H83      1.0000 0.23906  0.23329  0.96631  Biso   1.000  H
  H84      1.0000 0.46529  0.24267  0.77659  Biso   1.000  H
  H85      1.0000 0.25425  0.47088  0.22140  Biso   1.000  H
  H86      1.0000 0.23339  0.22634  0.47980  Biso   1.000  H
  H87      1.0000 0.49127  0.23380  0.28278  Biso   1.000  H
  H88      1.0000 0.81651  0.47358  0.23899  Biso   1.000  H
  H89      1.0000 0.74447  0.23715  0.96680  Biso   1.000  H
  H90      1.0000 0.99623  0.25234  0.21047  Biso   1.000  H
  H91      1.0000 0.21903  0.96758  0.27146  Biso   1.000  H
  H92      1.0000 0.30412  0.72701  0.45845  Biso   1.000  H
  H93      1.0000 0.98221  0.68564  0.24440  Biso   1.000  H
  H94      1.0000 0.77356  0.98985  0.27836  Biso   1.000  H
  H95      1.0000 0.78985  0.74932  0.06012  Biso   1.000  H
  H96      1.0000 0.50232  0.66793  0.28257  Biso   1.000  H
  H97      1.0000 0.88222  0.98137  0.90852  Biso   1.000  H
  H98      1.0000 0.92490  0.85674  0.00254  Biso   1.000  H
  H99      1.0000 0.02519  0.89457  0.87125  Biso   1.000  H
  H100     1.0000 0.38206  0.98297  0.59299  Biso   1.000  H
  H101     1.0000 0.42256  0.84740  0.50621  Biso   1.000  H
  H102     1.0000 0.52485  0.89349  0.63744  Biso   1.000  H
  H103     1.0000 0.65730  0.48700  0.91737  Biso   1.000  H
  H104     1.0000 0.61460  0.35440  0.99626  Biso   1.000  H
  H105     1.0000 0.52261  0.40044  0.86798  Biso   1.000  H
  H106     1.0000 0.15519  0.49342  0.60642  Biso   1.000  H
  H107     1.0000 0.11114  0.35523  0.51727  Biso   1.000  H
  H108     1.0000 0.02051  0.39427  0.64683  Biso   1.000  H
  H109     1.0000 0.13819  0.98997  0.10331  Biso   1.000  H
  H110     1.0000 0.11132  0.11143  0.01648  Biso   1.000  H
  H111     1.0000 0.99985  0.07549  0.13966  Biso   1.000  H
  H112     1.0000 0.64139  0.97852  0.41022  Biso   1.000  H
  H113     1.0000 0.61431  0.10884  0.50146  Biso   1.000  H
  H114     1.0000 0.51079  0.06449  0.36794  Biso   1.000  H
  H115     1.0000 0.38976  0.48912  0.09706  Biso   1.000  H
  H116     1.0000 0.42696  0.60826  0.02028  Biso   1.000  H
  H117     1.0000 0.51573  0.56219  0.14323  Biso   1.000  H
  H118     1.0000 0.88430  0.48171  0.41930  Biso   1.000  H
  H119     1.0000 0.91649  0.61443  0.50766  Biso   1.000  H
  H120     1.0000 0.02004  0.57564  0.37383  Biso   1.000  H
  H121     1.0000 0.11041  0.98487  0.87600  Biso   1.000  H
  H122     1.0000 0.87392  0.07225  0.01247  Biso   1.000  H
  H123     1.0000 0.01281  0.84790  0.10038  Biso   1.000  H
  H124     1.0000 0.61428  0.98959  0.62973  Biso   1.000  H
  H125     1.0000 0.38664  0.07552  0.50854  Biso   1.000  H
  H126     1.0000 0.50175  0.84369  0.41903  Biso   1.000  H
  H127     1.0000 0.43271  0.49008  0.88132  Biso   1.000  H
  H128     1.0000 0.65917  0.58004  0.00060  Biso   1.000  H
  H129     1.0000 0.52550  0.33753  0.09003  Biso   1.000  H
  H130     1.0000 0.92325  0.48876  0.63977  Biso   1.000  H
  H131     1.0000 0.14824  0.57604  0.49872  Biso   1.000  H
  H132     1.0000 0.02073  0.35210  0.41624  Biso   1.000  H
  H133     1.0000 0.91403  0.98282  0.13722  Biso   1.000  H
  H134     1.0000 0.15130  0.88374  0.02260  Biso   1.000  H
  H135     1.0000 0.01876  0.10991  0.91150  Biso   1.000  H
  H136     1.0000 0.41384  0.97798  0.37064  Biso   1.000  H
  H137     1.0000 0.64775  0.88412  0.50429  Biso   1.000  H
  H138     1.0000 0.52606  0.12107  0.58671  Biso   1.000  H
  H139     1.0000 0.61425  0.48053  0.13901  Biso   1.000  H
  H140     1.0000 0.39201  0.38771  0.01129  Biso   1.000  H
  H141     1.0000 0.53518  0.62370  0.92264  Biso   1.000  H
  H142     1.0000 0.11932  0.48139  0.37863  Biso   1.000  H
  H143     1.0000 0.88412  0.39212  0.50211  Biso   1.000  H
  H144     1.0000 0.01237  0.61511  0.59542  Biso   1.000  H
  H145     1.0000 0.61572  0.49684  0.87719  Biso   1.000  H
  H146     1.0000 0.87619  0.57332  0.50688  Biso   1.000  H
  H147     1.0000 0.51426  0.84941  0.59771  Biso   1.000  H
  H148     1.0000 0.11243  0.49289  0.64632  Biso   1.000  H
  H149     1.0000 0.38626  0.56283  0.01273  Biso   1.000  H
  H150     1.0000 0.02783  0.85592  0.91159  Biso   1.000  H
  H151     1.0000 0.92849  0.97569  0.86232  Biso   1.000  H
  H152     1.0000 0.65844  0.06846  0.50754  Biso   1.000  H
  H153     1.0000 0.02055  0.35360  0.60049  Biso   1.000  H
  H154     1.0000 0.42897  0.97939  0.63710  Biso   1.000  H
  H155     1.0000 0.15279  0.07310  0.02551  Biso   1.000  H
  H156     1.0000 0.51893  0.35723  0.90667  Biso   1.000  H
  H157     1.0000 0.43334  0.47941  0.13818  Biso   1.000  H
  H158     1.0000 0.15400  0.39567  0.52311  Biso   1.000  H
  H159     1.0000 0.50712  0.10997  0.40670  Biso   1.000  H
  H160     1.0000 0.93318  0.48675  0.37544  Biso   1.000  H
  H161     1.0000 0.65502  0.39616  0.99848  Biso   1.000  H
  H162     1.0000 0.00758  0.11602  0.10043  Biso   1.000  H
  H163     1.0000 0.09753  0.98944  0.14048  Biso   1.000  H
  H164     1.0000 0.38220  0.89494  0.50826  Biso   1.000  H
  H165     1.0000 0.01391  0.61367  0.41566  Biso   1.000  H
  H166     1.0000 0.59698  0.97274  0.36833  Biso   1.000  H
  H167     1.0000 0.87921  0.89929  0.99129  Biso   1.000  H
  H168     1.0000 0.51235  0.60482  0.09934  Biso   1.000  H
  H169     1.0000 0.02377  0.07378  0.86820  Biso   1.000  H
  H170     1.0000 0.87639  0.98187  0.09136  Biso   1.000  H
  H171     1.0000 0.10846  0.84373  0.01913  Biso   1.000  H
  H172     1.0000 0.52169  0.07702  0.63284  Biso   1.000  H
  H173     1.0000 0.38053  0.98778  0.41358  Biso   1.000  H
  H174     1.0000 0.60479  0.84228  0.50845  Biso   1.000  H
  H175     1.0000 0.52637  0.58149  0.87587  Biso   1.000  H
  H176     1.0000 0.65846  0.48972  0.10064  Biso   1.000  H
  H177     1.0000 0.43511  0.34442  0.01152  Biso   1.000  H
  H178     1.0000 0.00550  0.57123  0.63922  Biso   1.000  H
  H179     1.0000 0.15555  0.48656  0.42247  Biso   1.000  H
  H180     1.0000 0.92683  0.34592  0.50783  Biso   1.000  H
  H181     1.0000 0.00393  0.88958  0.14168  Biso   1.000  H
  H182     1.0000 0.15365  0.98262  0.92304  Biso   1.000  H
  H183     1.0000 0.92243  0.11177  0.01034  Biso   1.000  H
  H184     1.0000 0.50692  0.88069  0.37724  Biso   1.000  H
  H185     1.0000 0.65577  0.98880  0.58930  Biso   1.000  H
  H186     1.0000 0.42666  0.11614  0.50646  Biso   1.000  H
  H187     1.0000 0.51784  0.37578  0.13091  Biso   1.000  H
  H188     1.0000 0.38835  0.46761  0.92042  Biso   1.000  H
  H189     1.0000 0.60887  0.62282  0.00975  Biso   1.000  H
  H190     1.0000 0.02627  0.39210  0.37203  Biso   1.000  H
  H191     1.0000 0.88420  0.48620  0.59814  Biso   1.000  H
  H192     1.0000 0.10185  0.61599  0.49606  Biso   1.000  H
  H193     1.0000 0.28255  0.84683  0.49440  Biso   1.000  H
  H194     1.0000 0.50473  0.26166  0.85030  Biso   1.000  H
  H195     1.0000 0.87780  0.50380  0.28067  Biso   1.000  H
  H196     1.0000 0.78448  0.84091  0.99167  Biso   1.000  H
  H197     1.0000 0.02788  0.25377  0.64932  Biso   1.000  H
  H198     1.0000 0.37814  0.47120  0.23630  Biso   1.000  H
  H199     1.0000 0.25066  0.34008  0.52586  Biso   1.000  H
  H200     1.0000 0.01754  0.75744  0.86329  Biso   1.000  H
  H201     1.0000 0.65106  0.98543  0.27335  Biso   1.000  H
  H202     1.0000 0.75414  0.34938  0.01226  Biso   1.000  H
  H203     1.0000 0.51232  0.75901  0.66104  Biso   1.000  H
  H204     1.0000 0.14759  0.00930  0.23906  Biso   1.000  H
  H205     1.0000 0.75317  0.11954  0.48009  Biso   1.000  H
  H206     1.0000 0.50042  0.69748  0.16409  Biso   1.000  H
  H207     1.0000 0.16095  0.48418  0.74526  Biso   1.000  H
  H208     1.0000 0.25262  0.12276  0.00883  Biso   1.000  H
  H209     1.0000 0.99803  0.71255  0.36948  Biso   1.000  H
  H210     1.0000 0.66762  0.48370  0.78178  Biso   1.000  H
  H211     1.0000 0.77578  0.61684  0.49389  Biso   1.000  H
  H212     1.0000 0.02348  0.21129  0.15288  Biso   1.000  H
  H213     1.0000 0.38076  0.98363  0.73693  Biso   1.000  H
  H214     1.0000 0.28715  0.61535  0.00962  Biso   1.000  H
  H215     1.0000 0.51409  0.20109  0.35052  Biso   1.000  H
  H216     1.0000 0.87100  0.00557  0.77188  Biso   1.000  H
  H217     1.0000 0.25266  0.50643  0.37115  Biso   1.000  H
  H218     1.0000 0.37784  0.21350  0.50057  Biso   1.000  H
  H219     1.0000 0.52265  0.32040  0.22552  Biso   1.000  H
  H220     1.0000 0.75711  0.49191  0.14835  Biso   1.000  H
  H221     1.0000 0.87449  0.21070  0.01337  Biso   1.000  H
  H222     1.0000 0.01590  0.34021  0.27717  Biso   1.000  H
  H223     1.0000 0.28617  0.01970  0.36741  Biso   1.000  H
  H224     1.0000 0.15621  0.71322  0.49662  Biso   1.000  H
  H225     1.0000 0.00497  0.84134  0.23762  Biso   1.000  H
  H226     1.0000 0.77613  0.00514  0.13692  Biso   1.000  H
  H227     1.0000 0.66108  0.71470  0.03609  Biso   1.000  H
  H228     1.0000 0.49476  0.81987  0.28714  Biso   1.000  H
  H229     1.0000 0.78396  0.45989  0.64403  Biso   1.000  H
  H230     1.0000 0.65511  0.74624  0.48243  Biso   1.000  H
  H231     1.0000 0.51760  0.63745  0.78329  Biso   1.000  H
  H232     1.0000 0.29037  0.46624  0.86915  Biso   1.000  H
  H233     1.0000 0.15982  0.74773  0.00929  Biso   1.000  H
  H234     1.0000 0.01946  0.62522  0.73489  Biso   1.000  H
  H235     1.0000 0.75557  0.98795  0.64045  Biso   1.000  H
  H236     1.0000 0.87233  0.24932  0.49881  Biso   1.000  H
  H237     1.0000 0.02917  0.13237  0.77697  Biso   1.000  H
  H238     1.0000 0.25264  0.98763  0.87024  Biso   1.000  H
  H239     1.0000 0.38033  0.24858  0.01365  Biso   1.000  H
  H240     1.0000 0.50026  0.13444  0.72687  Biso   1.000  H
  H241     1.0000 0.75426  0.46749  0.86482  Biso   1.000  H
  H242     1.0000 0.86275  0.70991  0.49931  Biso   1.000  H
  H243     1.0000 0.53244  0.85573  0.74052  Biso   1.000  H
  H244     1.0000 0.25062  0.48287  0.66169  Biso   1.000  H
  H245     1.0000 0.36834  0.70538  0.01699  Biso   1.000  H
  H246     1.0000 0.03344  0.84081  0.77477  Biso   1.000  H
  H247     1.0000 0.78686  0.99782  0.85362  Biso   1.000  H
  H248     1.0000 0.66814  0.20730  0.50072  Biso   1.000  H
  H249     1.0000 0.01542  0.33573  0.73827  Biso   1.000  H
  H250     1.0000 0.28820  0.97847  0.65386  Biso   1.000  H
  H251     1.0000 0.16137  0.20706  0.99429  Biso   1.000  H
  H252     1.0000 0.51473  0.34929  0.76750  Biso   1.000  H
  H253     1.0000 0.29927  0.50906  0.15714  Biso   1.000  H
  H254     1.0000 0.16024  0.25741  0.51659  Biso   1.000  H
  H255     1.0000 0.49630  0.11006  0.26828  Biso   1.000  H
  H256     1.0000 0.79452  0.47411  0.35687  Biso   1.000  H
  H257     1.0000 0.67376  0.26120  0.00407  Biso   1.000  H
  H258     1.0000 0.98760  0.12639  0.23738  Biso   1.000  H
  H259     1.0000 0.23499  0.00093  0.15808  Biso   1.000  H
  H260     1.0000 0.36121  0.75601  0.51127  Biso   1.000  H
  H261     1.0000 0.02028  0.62912  0.27615  Biso   1.000  H
  H262     1.0000 0.73540  0.00387  0.35724  Biso   1.000  H
  H263     1.0000 0.86744  0.76252  0.01605  Biso   1.000  H
  H264     1.0000 0.53858  0.61478  0.23579  Biso   1.000  H
  H265     1.0000 0.01967  0.21101  0.86876  Biso   1.000  H
  H266     1.0000 0.84984  0.99699  0.23023  Biso   1.000  H
  H267     1.0000 0.24901  0.83529  0.00192  Biso   1.000  H
  H268     1.0000 0.48829  0.21059  0.63681  Biso   1.000  H
  H269     1.0000 0.36106  0.98572  0.27691  Biso   1.000  H
  H270     1.0000 0.73551  0.83309  0.45926  Biso   1.000  H
  H271     1.0000 0.51465  0.72091  0.87483  Biso   1.000  H
  H272     1.0000 0.66811  0.48632  0.23670  Biso   1.000  H
  H273     1.0000 0.29665  0.33256  0.03491  Biso   1.000  H
  H274     1.0000 0.01763  0.70719  0.65380  Biso   1.000  H
  H275     1.0000 0.17199  0.49371  0.28266  Biso   1.000  H
  H276     1.0000 0.78758  0.33442  0.48487  Biso   1.000  H
  H277     1.0000 0.00963  0.75073  0.15005  Biso   1.000  H
  H278     1.0000 0.16879  0.99431  0.78148  Biso   1.000  H
  H279     1.0000 0.78276  0.13180  0.01040  Biso   1.000  H
  H280     1.0000 0.50330  0.74159  0.37478  Biso   1.000  H
  H281     1.0000 0.66723  0.01389  0.72508  Biso   1.000  H
  H282     1.0000 0.29480  0.13368  0.53322  Biso   1.000  H
  H283     1.0000 0.51149  0.23840  0.13520  Biso   1.000  H
  H284     1.0000 0.37984  0.48259  0.78363  Biso   1.000  H
  H285     1.0000 0.75061  0.63722  0.01522  Biso   1.000  H
  H286     1.0000 0.00914  0.25513  0.36399  Biso   1.000  H
  H287     1.0000 0.86608  0.47492  0.73233  Biso   1.000  H
  H288     1.0000 0.24574  0.62586  0.48386  Biso   1.000  H
  H289     1.0000 0.10875  0.20462  0.99355  Biso   1.000  H
  H290     1.0000 0.98356  0.07375  0.23417  Biso   1.000  H
  H291     1.0000 0.23634  0.99557  0.10826  Biso   1.000  H
  H292     1.0000 0.61577  0.20683  0.49193  Biso   1.000  H
  H293     1.0000 0.50049  0.05507  0.27256  Biso   1.000  H
  H294     1.0000 0.73674  0.00114  0.41095  Biso   1.000  H
  H295     1.0000 0.42345  0.70536  0.02353  Biso   1.000  H
  H296     1.0000 0.54568  0.56183  0.23492  Biso   1.000  H
  H297     1.0000 0.29236  0.49940  0.10331  Biso   1.000  H
  H298     1.0000 0.92026  0.70953  0.51323  Biso   1.000  H
  H299     1.0000 0.02821  0.57447  0.27878  Biso   1.000  H
  H300     1.0000 0.79036  0.46765  0.41293  Biso   1.000  H
  H301     1.0000 0.92176  0.76218  0.02106  Biso   1.000  H
  H302     1.0000 0.03773  0.89115  0.77577  Biso   1.000  H
  H303     1.0000 0.78434  0.99537  0.90634  Biso   1.000  H
  H304     1.0000 0.41969  0.75471  0.52039  Biso   1.000  H
  H305     1.0000 0.54098  0.91047  0.73114  Biso   1.000  H
  H306     1.0000 0.28596  0.97834  0.60139  Biso   1.000  H
  H307     1.0000 0.61842  0.25826  0.98826  Biso   1.000  H
  H308     1.0000 0.51409  0.40151  0.77136  Biso   1.000  H
  H309     1.0000 0.75418  0.47146  0.91936  Biso   1.000  H
  H310     1.0000 0.10432  0.26077  0.50842  Biso   1.000  H
  H311     1.0000 0.01403  0.39266  0.73950  Biso   1.000  H
  H312     1.0000 0.25068  0.48268  0.60443  Biso   1.000  H
  H313     1.0000 0.24919  0.97708  0.92361  Biso   1.000  H
  H314     1.0000 0.92664  0.20764  0.02134  Biso   1.000  H
  H315     1.0000 0.00653  0.89273  0.23770  Biso   1.000  H
  H316     1.0000 0.75188  0.97896  0.58718  Biso   1.000  H
  H317     1.0000 0.42871  0.20997  0.48714  Biso   1.000  H
  H318     1.0000 0.49612  0.87467  0.28265  Biso   1.000  H
  H319     1.0000 0.29197  0.45427  0.92237  Biso   1.000  H
  H320     1.0000 0.60354  0.71389  0.03400  Biso   1.000  H
  H321     1.0000 0.52466  0.37388  0.22709  Biso   1.000  H
  H322     1.0000 0.78652  0.46462  0.59191  Biso   1.000  H
  H323     1.0000 0.10544  0.71129  0.50454  Biso   1.000  H
  H324     1.0000 0.01712  0.39371  0.27733  Biso   1.000  H
  H325     1.0000 0.78222  0.00377  0.08396  Biso   1.000  H
  H326     1.0000 0.10561  0.74802  0.01385  Biso   1.000  H
  H327     1.0000 0.02537  0.07752  0.77214  Biso   1.000  H
  H328     1.0000 0.28813  0.01889  0.41886  Biso   1.000  H
  H329     1.0000 0.60073  0.74791  0.49476  Biso   1.000  H
  H330     1.0000 0.50145  0.08249  0.72771  Biso   1.000  H
  H331     1.0000 0.75590  0.48967  0.09938  Biso   1.000  H
  H332     1.0000 0.43665  0.24978  0.00849  Biso   1.000  H
  H333     1.0000 0.51912  0.58011  0.78229  Biso   1.000  H
  H334     1.0000 0.25244  0.50127  0.42446  Biso   1.000  H
  H335     1.0000 0.93042  0.25124  0.50564  Biso   1.000  H
  H336     1.0000 0.01812  0.57392  0.73425  Biso   1.000  H
  H337     1.0000 0.01351  0.20834  0.92148  Biso   1.000  H
  H338     1.0000 0.90759  0.98676  0.23295  Biso   1.000  H
  H339     1.0000 0.24697  0.88820  0.00210  Biso   1.000  H
  H340     1.0000 0.49797  0.21353  0.58534  Biso   1.000  H
  H341     1.0000 0.41571  0.97501  0.27526  Biso   1.000  H
  H342     1.0000 0.74045  0.88544  0.47003  Biso   1.000  H
  H343     1.0000 0.51660  0.71411  0.93065  Biso   1.000  H
  H344     1.0000 0.61546  0.47890  0.23474  Biso   1.000  H
  H345     1.0000 0.29765  0.38634  0.04174  Biso   1.000  H
  H346     1.0000 0.01225  0.71129  0.59946  Biso   1.000  H
  H347     1.0000 0.11949  0.49839  0.28283  Biso   1.000  H
  H348     1.0000 0.78761  0.38869  0.49850  Biso   1.000  H
  H349     1.0000 0.02208  0.75297  0.09796  Biso   1.000  H
  H350     1.0000 0.11661  0.99149  0.78090  Biso   1.000  H
  H351     1.0000 0.77701  0.07849  0.00901  Biso   1.000  H
  H352     1.0000 0.49667  0.74754  0.42959  Biso   1.000  H
  H353     1.0000 0.61040  0.01174  0.72452  Biso   1.000  H
  H354     1.0000 0.29274  0.07783  0.53203  Biso   1.000  H
  H355     1.0000 0.51638  0.24426  0.07661  Biso   1.000  H
  H356     1.0000 0.43267  0.49490  0.78580  Biso   1.000  H
  H357     1.0000 0.75243  0.58137  0.01535  Biso   1.000  H
  H358     1.0000 0.01146  0.25786  0.41917  Biso   1.000  H
  H359     1.0000 0.92390  0.48367  0.73479  Biso   1.000  H
  H360     1.0000 0.24684  0.57477  0.49602  Biso   1.000  H
  H361     1.0000 0.99447  0.70666  0.42087  Biso   1.000  H
  H362     1.0000 0.43311  0.97202  0.73129  Biso   1.000  H
  H363     1.0000 0.74707  0.40385  0.01976  Biso   1.000  H
  H364     1.0000 0.48981  0.69726  0.10978  Biso   1.000  H
  H365     1.0000 0.92852  0.00209  0.77043  Biso   1.000  H
  H366     1.0000 0.25185  0.39466  0.52204  Biso   1.000  H
  H367     1.0000 0.51854  0.20301  0.40163  Biso   1.000  H
  H368     1.0000 0.10547  0.48423  0.73996  Biso   1.000  H
  H369     1.0000 0.78490  0.89449  0.98021  Biso   1.000  H
  H370     1.0000 0.02701  0.20648  0.09754  Biso   1.000  H
  H371     1.0000 0.61636  0.49693  0.78120  Biso   1.000  H
  H372     1.0000 0.28775  0.90023  0.49214  Biso   1.000  H
  H373     1.0000 0.02040  0.25781  0.59385  Biso   1.000  H
  H374     1.0000 0.60174  0.96558  0.27366  Biso   1.000  H
  H375     1.0000 0.29006  0.56010  0.00649  Biso   1.000  H
  H376     1.0000 0.50620  0.26185  0.90473  Biso   1.000  H
  H377     1.0000 0.09163  0.00297  0.23839  Biso   1.000  H
  H378     1.0000 0.78003  0.56700  0.50048  Biso   1.000  H
  H379     1.0000 0.50526  0.75840  0.61220  Biso   1.000  H
  H380     1.0000 0.93279  0.49868  0.27864  Biso   1.000  H
  H381     1.0000 0.25299  0.06994  0.02216  Biso   1.000  H
  H382     1.0000 0.01210  0.76219  0.91844  Biso   1.000  H
  H383     1.0000 0.43277  0.46454  0.23374  Biso   1.000  H
  H384     1.0000 0.75106  0.06741  0.48810  Biso   1.000  H
  H385     1.0000 0.24835  0.46676  0.33653  Biso   1.000  H
  H386     1.0000 0.28657  0.15175  0.49866  Biso   1.000  H
  H387     1.0000 0.49094  0.29531  0.22063  Biso   1.000  H
  H388     1.0000 0.70443  0.45561  0.23079  Biso   1.000  H
  H389     1.0000 0.84316  0.21055  0.03870  Biso   1.000  H
  H390     1.0000 0.97849  0.26178  0.33451  Biso   1.000  H
  H391     1.0000 0.27638  0.98683  0.34189  Biso   1.000  H
  H392     1.0000 0.18386  0.70518  0.45747  Biso   1.000  H
  H393     1.0000 0.96997  0.75631  0.18067  Biso   1.000  H
  H394     1.0000 0.76669  0.98489  0.16850  Biso   1.000  H
  H395     1.0000 0.74211  0.66924  0.04927  Biso   1.000  H
  H396     1.0000 0.54314  0.79104  0.29723  Biso   1.000  H
  H397     1.0000 0.78698  0.49469  0.67943  Biso   1.000  H
  H398     1.0000 0.74598  0.80370  0.49403  Biso   1.000  H
  H399     1.0000 0.55836  0.66923  0.79506  Biso   1.000  H
  H400     1.0000 0.34385  0.52043  0.78970  Biso   1.000  H
  H401     1.0000 0.24388  0.80191  0.97614  Biso   1.000  H
  H402     1.0000 0.05819  0.65187  0.72495  Biso   1.000  H
  H403     1.0000 0.73896  0.96152  0.67547  Biso   1.000  H
  H404     1.0000 0.79467  0.30570  0.52150  Biso   1.000  H
  H405     1.0000 0.99750  0.20849  0.83542  Biso   1.000  H
  H406     1.0000 0.24914  0.02218  0.84506  Biso   1.000  H
  H407     1.0000 0.29250  0.31265  0.99492  Biso   1.000  H
  H408     1.0000 0.47072  0.16620  0.72137  Biso   1.000  H
  H409     1.0000 0.29130  0.46345  0.18110  Biso   1.000  H
  H410     1.0000 0.19522  0.25825  0.48180  Biso   1.000  H
  H411     1.0000 0.48300  0.19845  0.31937  Biso   1.000  H
  H412     1.0000 0.85414  0.46885  0.27936  Biso   1.000  H
  H413     1.0000 0.70438  0.27148  0.96710  Biso   1.000  H
  H414     1.0000 0.98885  0.21612  0.17531  Biso   1.000  H
  H415     1.0000 0.17695  0.96664  0.23694  Biso   1.000  H
  H416     1.0000 0.34350  0.76194  0.46952  Biso   1.000  H
  H417     1.0000 0.98441  0.65173  0.28042  Biso   1.000  H
  H418     1.0000 0.74437  0.97489  0.32080  Biso   1.000  H
  H419     1.0000 0.83268  0.78144  0.05520  Biso   1.000  H
  H420     1.0000 0.50180  0.63229  0.24208  Biso   1.000  H
  H421     1.0000 0.75391  0.50171  0.83020  Biso   1.000  H
  H422     1.0000 0.77569  0.65229  0.51018  Biso   1.000  H
  H423     1.0000 0.55274  0.76690  0.68727  Biso   1.000  H
  H424     1.0000 0.19735  0.51891  0.73923  Biso   1.000  H
  H425     1.0000 0.34569  0.69681  0.98047  Biso   1.000  H
  H426     1.0000 0.04864  0.75493  0.83668  Biso   1.000  H
  H427     1.0000 0.79624  0.03166  0.82170  Biso   1.000  H
  H428     1.0000 0.75746  0.14765  0.51339  Biso   1.000  H
  H429     1.0000 0.05094  0.31346  0.73347  Biso   1.000  H
  H430     1.0000 0.34835  0.95696  0.73574  Biso   1.000  H
  H431     1.0000 0.20177  0.19508  0.96693  Biso   1.000  H
  H432     1.0000 0.46783  0.27689  0.81399  Biso   1.000  H
  H433     1.0000 0.30007  0.01678  0.68387  Biso   1.000  H
  H434     1.0000 0.74772  0.31314  0.04228  Biso   1.000  H
  H435     1.0000 0.02535  0.71341  0.34059  Biso   1.000  H
  H436     1.0000 0.84310  0.96076  0.77520  Biso   1.000  H
  H437     1.0000 0.23794  0.30313  0.55780  Biso   1.000  H
  H438     1.0000 0.53689  0.69818  0.18575  Biso   1.000  H
  H439     1.0000 0.23899  0.44856  0.69298  Biso   1.000  H
  H440     1.0000 0.79717  0.80018  0.96724  Biso   1.000  H
  H441     1.0000 0.52639  0.13456  0.26067  Biso   1.000  H
  H442     1.0000 0.69265  0.43903  0.78501  Biso   1.000  H
  H443     1.0000 0.27759  0.81233  0.51958  Biso   1.000  H
  H444     1.0000 0.02407  0.15400  0.24112  Biso   1.000  H
  H445     1.0000 0.67313  0.02408  0.28568  Biso   1.000  H
  H446     1.0000 0.28706  0.65132  0.04132  Biso   1.000  H
  H447     1.0000 0.99787  0.25351  0.68149  Biso   1.000  H
  H448     1.0000 0.22563  0.03692  0.18732  Biso   1.000  H
  H449     1.0000 0.84370  0.70385  0.45851  Biso   1.000  H
  H450     1.0000 0.54926  0.31012  0.77457  Biso   1.000  H
  H451     1.0000 0.79377  0.51766  0.33764  Biso   1.000  H
  H452     1.0000 0.23793  0.15990  0.04424  Biso   1.000  H
  H453     1.0000 0.50228  0.82513  0.74795  Biso   1.000  H
  H454     1.0000 0.35581  0.50799  0.23823  Biso   1.000  H
  H455     1.0000 0.69514  0.20005  0.46633  Biso   1.000  H
  H456     1.0000 0.00047  0.81160  0.77262  Biso   1.000  H
  H457     1.0000 0.67813  0.74683  0.44925  Biso   1.000  H
  H458     1.0000 0.49014  0.71701  0.84172  Biso   1.000  H
  H459     1.0000 0.84446  0.43286  0.72803  Biso   1.000  H
  H460     1.0000 0.19180  0.75229  0.04134  Biso   1.000  H
  H461     1.0000 0.98847  0.70275  0.68581  Biso   1.000  H
  H462     1.0000 0.30388  0.44402  0.83386  Biso   1.000  H
  H463     1.0000 0.85061  0.25433  0.46075  Biso   1.000  H
  H464     1.0000 0.06450  0.16328  0.78647  Biso   1.000  H
  H465     1.0000 0.70052  0.03953  0.71545  Biso   1.000  H
  H466     1.0000 0.34598  0.24971  0.04389  Biso   1.000  H
  H467     1.0000 0.53620  0.21356  0.66714  Biso   1.000  H
  H468     1.0000 0.20292  0.96420  0.78168  Biso   1.000  H
  H469     1.0000 0.35000  0.21517  0.53383  Biso   1.000  H
  H470     1.0000 0.54556  0.23677  0.16369  Biso   1.000  H
  H471     1.0000 0.19887  0.53255  0.29127  Biso   1.000  H
  H472     1.0000 0.78988  0.15949  0.98021  Biso   1.000  H
  H473     1.0000 0.04266  0.31068  0.27932  Biso   1.000  H
  H474     1.0000 0.74585  0.52396  0.18198  Biso   1.000  H
  H475     1.0000 0.24536  0.65818  0.51056  Biso   1.000  H
  H476     1.0000 0.03286  0.80629  0.23262  Biso   1.000  H
  H477     1.0000 0.33820  0.02020  0.28003  Biso   1.000  H
  H478     1.0000 0.68632  0.71687  0.98569  Biso   1.000  H
  H479     1.0000 0.47164  0.74325  0.33754  Biso   1.000  H
  H480     1.0000 0.82784  0.03840  0.22210  Biso   1.000  H
  N1       1.0000 0.69991  0.15292  0.49585  Biso   1.000  N
  N2       1.0000 0.51898  0.64366  0.18871  Biso   1.000  N
  N3       1.0000 0.19803  0.48648  0.69009  Biso   1.000  N
  N4       1.0000 0.19753  0.15354  0.00473  Biso   1.000  N
  N5       1.0000 0.00682  0.66006  0.33210  Biso   1.000  N
  N6       1.0000 0.70011  0.47860  0.83252  Biso   1.000  N
  N7       1.0000 0.83152  0.65549  0.49297  Biso   1.000  N
  N8       1.0000 0.00510  0.15947  0.18521  Biso   1.000  N
  N9       1.0000 0.34386  0.98063  0.68539  Biso   1.000  N
  N10      1.0000 0.34025  0.64960  0.01367  Biso   1.000  N
  N11      1.0000 0.50738  0.14536  0.31915  Biso   1.000  N
  N12      1.0000 0.84250  0.99270  0.82148  Biso   1.000  N
  N13      1.0000 0.33394  0.81071  0.50088  Biso   1.000  N
  N14      1.0000 0.50821  0.31659  0.81967  Biso   1.000  N
  N15      1.0000 0.84680  0.49112  0.33255  Biso   1.000  N
  N16      1.0000 0.83915  0.81410  0.00680  Biso   1.000  N
  N17      1.0000 0.02216  0.30645  0.68371  Biso   1.000  N
  N18      1.0000 0.34747  0.48763  0.18495  Biso   1.000  N
  N19      1.0000 0.19472  0.30939  0.51833  Biso   1.000  N
  N20      1.0000 0.02544  0.80791  0.82922  Biso   1.000  N
  N21      1.0000 0.68515  0.99152  0.32558  Biso   1.000  N
  N22      1.0000 0.70187  0.31476  0.00575  Biso   1.000  N
  N23      1.0000 0.52598  0.81646  0.69073  Biso   1.000  N
  N24      1.0000 0.18051  0.00046  0.18958  Biso   1.000  N
  N25      1.0000 0.83878  0.47003  0.68001  Biso   1.000  N
  N26      1.0000 0.68641  0.79945  0.48047  Biso   1.000  N
  N27      1.0000 0.52127  0.66889  0.83898  Biso   1.000  N
  N28      1.0000 0.34594  0.48079  0.83680  Biso   1.000  N
  N29      1.0000 0.19485  0.80106  0.00880  Biso   1.000  N
  N30      1.0000 0.02105  0.65626  0.68163  Biso   1.000  N
  N31      1.0000 0.69872  0.00062  0.67198  Biso   1.000  N
  N32      1.0000 0.84321  0.30443  0.49121  Biso   1.000  N
  N33      1.0000 0.02836  0.16078  0.83181  Biso   1.000  N
  N34      1.0000 0.20027  0.98940  0.83674  Biso   1.000  N
  N35      1.0000 0.34819  0.30083  0.01865  Biso   1.000  N
  N36      1.0000 0.50542  0.16486  0.66998  Biso   1.000  N
  N37      1.0000 0.20061  0.49833  0.33714  Biso   1.000  N
  N38      1.0000 0.34404  0.16107  0.51324  Biso   1.000  N
  N39      1.0000 0.51918  0.29128  0.17068  Biso   1.000  N
  N40      1.0000 0.70178  0.49079  0.18343  Biso   1.000  N
  N41      1.0000 0.83834  0.15872  0.00910  Biso   1.000  N
  N42      1.0000 0.01370  0.30793  0.33068  Biso   1.000  N
  N43      1.0000 0.33232  0.99577  0.33148  Biso   1.000  N
  N44      1.0000 0.19038  0.66054  0.48862  Biso   1.000  N
  N45      1.0000 0.00383  0.80487  0.18394  Biso   1.000  N
  N46      1.0000 0.82518  0.00006  0.17468  Biso   1.000  N
  N47      1.0000 0.69385  0.66735  0.01477  Biso   1.000  N
  N48      1.0000 0.50256  0.79229  0.33807  Biso   1.000  N
  O1       1.0000 0.36877  0.51677  0.00168  Biso   1.000  O
  O2       1.0000 0.02202  0.32966  0.54914  Biso   1.000  O
  O3       1.0000 0.54979  0.96760  0.34388  Biso   1.000  O
  O4       1.0000 0.85613  0.52212  0.50758  Biso   1.000  O
  O5       1.0000 0.52289  0.33072  0.95438  Biso   1.000  O
  O6       1.0000 0.04814  0.98480  0.16742  Biso   1.000  O
  O7       1.0000 0.17509  0.01907  0.01332  Biso   1.000  O
  O8       1.0000 0.51535  0.82442  0.55560  Biso   1.000  O
  O9       1.0000 0.98143  0.49365  0.35021  Biso   1.000  O
  O10      1.0000 0.67747  0.02126  0.50101  Biso   1.000  O
  O11      1.0000 0.01925  0.83139  0.96817  Biso   1.000  O
  O12      1.0000 0.48134  0.46751  0.16302  Biso   1.000  O
  O13      1.0000 0.67730  0.45145  0.00765  Biso   1.000  O
  O14      1.0000 0.00645  0.63723  0.46751  Biso   1.000  O
  O15      1.0000 0.47989  0.97767  0.65628  Biso   1.000  O
  O16      1.0000 0.18011  0.44355  0.52026  Biso   1.000  O
  O17      1.0000 0.51604  0.63466  0.05515  Biso   1.000  O
  O18      1.0000 0.97687  0.97928  0.83856  Biso   1.000  O
  O19      1.0000 0.85540  0.94616  0.98899  Biso   1.000  O
  O20      1.0000 0.52663  0.13320  0.45250  Biso   1.000  O
  O21      1.0000 0.06159  0.47821  0.66684  Biso   1.000  O
  O22      1.0000 0.36014  0.94679  0.50192  Biso   1.000  O
  O23      1.0000 0.01893  0.13446  0.05404  Biso   1.000  O
  O24      1.0000 0.56725  0.49188  0.85268  Biso   1.000  O
  O25      1.0000 0.96335  0.98184  0.16477  Biso   1.000  O
  O26      1.0000 0.17441  0.93569  0.01358  Biso   1.000  O
  O27      1.0000 0.02150  0.13305  0.96553  Biso   1.000  O
  O28      1.0000 0.46727  0.97377  0.34805  Biso   1.000  O
  O29      1.0000 0.67138  0.93630  0.49317  Biso   1.000  O
  O30      1.0000 0.51255  0.13853  0.53530  Biso   1.000  O
  O31      1.0000 0.56494  0.46994  0.16269  Biso   1.000  O
  O32      1.0000 0.36801  0.43674  0.01984  Biso   1.000  O
  O33      1.0000 0.52468  0.63872  0.97115  Biso   1.000  O
  O34      1.0000 0.06576  0.48337  0.35299  Biso   1.000  O
  O35      1.0000 0.85882  0.43795  0.50533  Biso   1.000  O
  O36      1.0000 0.01260  0.63619  0.55085  Biso   1.000  O
  O37      1.0000 0.06086  0.98607  0.85031  Biso   1.000  O
  O38      1.0000 0.85068  0.02759  0.00585  Biso   1.000  O
  O39      1.0000 0.01133  0.82471  0.05091  Biso   1.000  O
  O40      1.0000 0.56291  0.00186  0.65335  Biso   1.000  O
  O41      1.0000 0.36129  0.02990  0.51568  Biso   1.000  O
  O42      1.0000 0.50645  0.82401  0.47200  Biso   1.000  O
  O43      1.0000 0.48388  0.48839  0.85459  Biso   1.000  O
  O44      1.0000 0.68127  0.53312  0.00254  Biso   1.000  O
  O45      1.0000 0.52923  0.31853  0.03699  Biso   1.000  O
  O46      1.0000 0.97423  0.48066  0.66184  Biso   1.000  O
  O47      1.0000 0.17606  0.52450  0.51031  Biso   1.000  O
  O48      1.0000 0.01912  0.32859  0.46550  Biso   1.000  O
  O49      1.0000 0.00340  0.93980  0.16551  Biso   1.000  O
  O50      1.0000 0.17370  0.97578  0.97147  Biso   1.000  O
  O51      1.0000 0.97536  0.13494  0.00797  Biso   1.000  O
  O52      1.0000 0.50732  0.92811  0.35199  Biso   1.000  O
  O53      1.0000 0.67538  0.97720  0.54230  Biso   1.000  O
  O54      1.0000 0.47759  0.13871  0.49020  Biso   1.000  O
  O55      1.0000 0.52286  0.42679  0.15813  Biso   1.000  O
  O56      1.0000 0.36682  0.46790  0.96840  Biso   1.000  O
  O57      1.0000 0.56045  0.64169  0.01838  Biso   1.000  O
  O58      1.0000 0.01917  0.44255  0.34993  Biso   1.000  O
  O59      1.0000 0.86209  0.48085  0.54811  Biso   1.000  O
  O60      1.0000 0.05414  0.63729  0.50625  Biso   1.000  O
  O61      1.0000 0.01771  0.02426  0.84218  Biso   1.000  O
  O62      1.0000 0.85408  0.98276  0.04054  Biso   1.000  O
  O63      1.0000 0.05885  0.82185  0.01310  Biso   1.000  O
  O64      1.0000 0.50843  0.03017  0.65841  Biso   1.000  O
  O65      1.0000 0.35888  0.99591  0.46502  Biso   1.000  O
  O66      1.0000 0.55382  0.81919  0.50544  Biso   1.000  O
  O67      1.0000 0.52213  0.53281  0.85182  Biso   1.000  O
  O68      1.0000 0.68138  0.49364  0.05151  Biso   1.000  O
  O69      1.0000 0.48369  0.32291  0.00236  Biso   1.000  O
  O70      1.0000 0.01951  0.51929  0.66397  Biso   1.000  O
  O71      1.0000 0.18075  0.47867  0.47154  Biso   1.000  O
  O72      1.0000 0.97486  0.32680  0.50920  Biso   1.000  O
  O73      1.0000 0.01865  0.43928  0.66781  Biso   1.000  O
  O74      1.0000 0.66959  0.98194  0.45869  Biso   1.000  O
  O75      1.0000 0.47566  0.63641  0.01141  Biso   1.000  O
  O76      1.0000 0.52612  0.45021  0.84875  Biso   1.000  O
  O77      1.0000 0.16860  0.97668  0.05626  Biso   1.000  O
  O78      1.0000 0.96747  0.63889  0.51000  Biso   1.000  O
  O79      1.0000 0.53292  0.94908  0.65728  Biso   1.000  O
  O80      1.0000 0.85658  0.48198  0.46377  Biso   1.000  O
  O81      1.0000 0.06105  0.13259  0.01003  Biso   1.000  O
  O82      1.0000 0.01875  0.94187  0.84355  Biso   1.000  O
  O83      1.0000 0.36327  0.49081  0.05053  Biso   1.000  O
  O84      1.0000 0.56464  0.13413  0.49460  Biso   1.000  O
  O85      1.0000 0.02824  0.52700  0.34889  Biso   1.000  O
  O86      1.0000 0.35648  0.98415  0.54845  Biso   1.000  O
  O87      1.0000 0.56783  0.32603  0.99442  Biso   1.000  O
  O88      1.0000 0.52301  0.51111  0.16549  Biso   1.000  O
  O89      1.0000 0.85252  0.98981  0.95744  Biso   1.000  O
  O90      1.0000 0.06022  0.33286  0.50558  Biso   1.000  O
  O91      1.0000 0.51400  0.01265  0.34690  Biso   1.000  O
  O92      1.0000 0.17934  0.48976  0.55588  Biso   1.000  O
  O93      1.0000 0.97468  0.83125  0.00722  Biso   1.000  O
  O94      1.0000 0.00217  0.02587  0.16535  Biso   1.000  O
  O95      1.0000 0.67999  0.48587  0.96794  Biso   1.000  O
  O96      1.0000 0.46828  0.82267  0.52033  Biso   1.000  O
  O97      1.0000 0.47958  0.18690  0.48661  Biso   1.000  O
  O98      1.0000 0.52541  0.42435  0.20620  Biso   1.000  O
  O99      1.0000 0.23071  0.48547  0.47167  Biso   1.000  O
  O100     1.0000 0.97588  0.18394  0.01205  Biso   1.000  O
  O101     1.0000 0.02358  0.44253  0.30105  Biso   1.000  O
  O102     1.0000 0.73205  0.49568  0.05039  Biso   1.000  O
  O103     1.0000 0.05311  0.68581  0.49930  Biso   1.000  O
  O104     1.0000 0.00516  0.94267  0.21441  Biso   1.000  O
  O105     1.0000 0.31028  0.99629  0.46515  Biso   1.000  O
  O106     1.0000 0.55538  0.68940  0.02551  Biso   1.000  O
  O107     1.0000 0.50298  0.92345  0.30300  Biso   1.000  O
  O108     1.0000 0.80537  0.98322  0.03953  Biso   1.000  O
  O109     1.0000 0.55433  0.77077  0.51496  Biso   1.000  O
  O110     1.0000 0.52394  0.53640  0.80283  Biso   1.000  O
  O111     1.0000 0.81236  0.47437  0.54631  Biso   1.000  O
  O112     1.0000 0.05403  0.77261  0.00933  Biso   1.000  O
  O113     1.0000 0.01949  0.52165  0.71205  Biso   1.000  O
  O114     1.0000 0.31609  0.46562  0.97061  Biso   1.000  O
  O115     1.0000 0.97915  0.27770  0.51037  Biso   1.000  O
  O116     1.0000 0.02683  0.02596  0.79290  Biso   1.000  O
  O117     1.0000 0.72501  0.97450  0.53887  Biso   1.000  O
  O118     1.0000 0.48382  0.27568  0.99366  Biso   1.000  O
  O119     1.0000 0.51076  0.03276  0.70777  Biso   1.000  O
  O120     1.0000 0.22279  0.97694  0.97228  Biso   1.000  O
  O121     1.0000 0.06074  0.47776  0.71565  Biso   1.000  O
  O122     1.0000 0.72777  0.01690  0.49529  Biso   1.000  O
  O123     1.0000 0.50900  0.68242  0.06088  Biso   1.000  O
  O124     1.0000 0.56658  0.49698  0.80407  Biso   1.000  O
  O125     1.0000 0.22479  0.02055  0.01546  Biso   1.000  O
  O126     1.0000 0.00350  0.68528  0.46744  Biso   1.000  O
  O127     1.0000 0.48067  0.98265  0.70590  Biso   1.000  O
  O128     1.0000 0.80732  0.51958  0.50808  Biso   1.000  O
  O129     1.0000 0.02057  0.18227  0.05096  Biso   1.000  O
  O130     1.0000 0.98030  0.98691  0.79279  Biso   1.000  O
  O131     1.0000 0.31956  0.51440  0.00247  Biso   1.000  O
  O132     1.0000 0.52689  0.18113  0.45255  Biso   1.000  O
  O133     1.0000 0.98084  0.48710  0.30237  Biso   1.000  O
  O134     1.0000 0.31117  0.94614  0.50277  Biso   1.000  O
  O135     1.0000 0.52051  0.28152  0.94905  Biso   1.000  O
  O136     1.0000 0.48164  0.46331  0.21072  Biso   1.000  O
  O137     1.0000 0.80627  0.94331  0.98988  Biso   1.000  O
  O138     1.0000 0.01964  0.28139  0.54919  Biso   1.000  O
  O139     1.0000 0.54932  0.96699  0.29490  Biso   1.000  O
  O140     1.0000 0.22925  0.44678  0.51889  Biso   1.000  O
  O141     1.0000 0.01858  0.78487  0.96431  Biso   1.000  O
  O142     1.0000 0.04319  0.98859  0.21598  Biso   1.000  O
  O143     1.0000 0.72668  0.44828  0.01323  Biso   1.000  O
  O144     1.0000 0.50990  0.77572  0.55881  Biso   1.000  O
  O145     1.0000 0.56681  0.46259  0.21034  Biso   1.000  O
  O146     1.0000 0.22344  0.52905  0.50473  Biso   1.000  O
  O147     1.0000 0.52011  0.18555  0.53587  Biso   1.000  O
  O148     1.0000 0.06734  0.48641  0.30521  Biso   1.000  O
  O149     1.0000 0.73009  0.53248  0.00818  Biso   1.000  O
  O150     1.0000 0.01501  0.18026  0.96531  Biso   1.000  O
  O151     1.0000 0.95748  0.97869  0.21358  Biso   1.000  O
  O152     1.0000 0.31308  0.02847  0.51597  Biso   1.000  O
  O153     1.0000 0.01823  0.68438  0.54912  Biso   1.000  O
  O154     1.0000 0.46624  0.97194  0.29905  Biso   1.000  O
  O155     1.0000 0.80141  0.02520  0.00358  Biso   1.000  O
  O156     1.0000 0.51946  0.68566  0.97774  Biso   1.000  O
  O157     1.0000 0.48131  0.49471  0.80605  Biso   1.000  O
  O158     1.0000 0.80964  0.43652  0.50284  Biso   1.000  O
  O159     1.0000 0.50949  0.77537  0.47413  Biso   1.000  O
  O160     1.0000 0.97394  0.48790  0.70952  Biso   1.000  O
  O161     1.0000 0.31829  0.43259  0.01843  Biso   1.000  O
  O162     1.0000 0.01242  0.77526  0.04880  Biso   1.000  O
  O163     1.0000 0.06690  0.98540  0.80039  Biso   1.000  O
  O164     1.0000 0.72082  0.93091  0.49249  Biso   1.000  O
  O165     1.0000 0.01537  0.28137  0.46619  Biso   1.000  O
  O166     1.0000 0.56226  0.00294  0.70259  Biso   1.000  O
  O167     1.0000 0.22352  0.93706  0.01657  Biso   1.000  O
  O168     1.0000 0.52891  0.27134  0.03387  Biso   1.000  O
  O169     1.0000 0.99377  0.02732  0.21294  Biso   1.000  O
  O170     1.0000 0.21779  0.98203  0.05869  Biso   1.000  O
  O171     1.0000 0.05844  0.17941  0.00387  Biso   1.000  O
  O172     1.0000 0.50793  0.00893  0.29703  Biso   1.000  O
  O173     1.0000 0.71689  0.97487  0.45380  Biso   1.000  O
  O174     1.0000 0.56556  0.18316  0.49808  Biso   1.000  O
  O175     1.0000 0.52772  0.50956  0.21440  Biso   1.000  O
  O176     1.0000 0.31616  0.47847  0.05476  Biso   1.000  O
  O177     1.0000 0.47250  0.68418  0.01372  Biso   1.000  O
  O178     1.0000 0.02354  0.52534  0.30013  Biso   1.000  O
  O179     1.0000 0.80748  0.47814  0.46387  Biso   1.000  O
  O180     1.0000 0.96865  0.68831  0.51238  Biso   1.000  O
  O181     1.0000 0.02555  0.94103  0.79626  Biso   1.000  O
  O182     1.0000 0.80392  0.98880  0.95624  Biso   1.000  O
  O183     1.0000 0.97140  0.78332  0.00712  Biso   1.000  O
  O184     1.0000 0.52695  0.95314  0.70547  Biso   1.000  O
  O185     1.0000 0.30757  0.98115  0.55151  Biso   1.000  O
  O186     1.0000 0.46839  0.77485  0.51561  Biso   1.000  O
  O187     1.0000 0.52172  0.45276  0.79991  Biso   1.000  O
  O188     1.0000 0.72913  0.48540  0.96675  Biso   1.000  O
  O189     1.0000 0.56859  0.27929  0.98492  Biso   1.000  O
  O190     1.0000 0.01087  0.43950  0.71589  Biso   1.000  O
  O191     1.0000 0.22853  0.49684  0.55650  Biso   1.000  O
  O192     1.0000 0.06054  0.28563  0.50358  Biso   1.000  O
