data_image0
_cell_length_a       46.7583
_cell_length_b       46.5236
_cell_length_c       46.4828
_cell_angle_alpha    90
_cell_angle_beta     90
_cell_angle_gamma    90

_symmetry_space_group_name_H-M    "P 1"
_symmetry_int_tables_number       1

loop_
  _symmetry_equiv_pos_as_xyz
  'x, y, z'

loop_
  _atom_site_label
  _atom_site_occupancy
  _atom_site_fract_x
  _atom_site_fract_y
  _atom_site_fract_z
  _atom_site_thermal_displace_type
  _atom_site_B_iso_or_equiv
  _atom_site_type_symbol
  C1       1.0000 0.56048  0.00984  0.32369  Biso   1.000  C
  C2       1.0000 0.33677  0.53294  0.02828  Biso   1.000  C
  C3       1.0000 0.03190  0.31350  0.56437  Biso   1.000  C
  C4       1.0000 0.06533  0.98348  0.19334  Biso   1.000  C
  C5       1.0000 0.83154  0.54067  0.50927  Biso   1.000  C
  C6       1.0000 0.52906  0.30678  0.96159  Biso   1.000  C
  C7       1.0000 0.97308  0.50233  0.31933  Biso   1.000  C
  C8       1.0000 0.20189  0.04113  0.01575  Biso   1.000  C
  C9       1.0000 0.50765  0.80728  0.55697  Biso   1.000  C
  C10      1.0000 0.47622  0.48459  0.19780  Biso   1.000  C
  C11      1.0000 0.70192  0.04193  0.49350  Biso   1.000  C
  C12      1.0000 0.01901  0.80898  0.94891  Biso   1.000  C
  C13      1.0000 0.47739  0.98515  0.69534  Biso   1.000  C
  C14      1.0000 0.70154  0.44602  0.99453  Biso   1.000  C
  C15      1.0000 0.00529  0.67474  0.45423  Biso   1.000  C
  C16      1.0000 0.97476  0.99455  0.82667  Biso   1.000  C
  C17      1.0000 0.20221  0.44848  0.52079  Biso   1.000  C
  C18      1.0000 0.50308  0.67781  0.05636  Biso   1.000  C
  C19      1.0000 0.05505  0.49021  0.69356  Biso   1.000  C
  C20      1.0000 0.83519  0.94633  0.00995  Biso   1.000  C
  C21      1.0000 0.51538  0.17003  0.46071  Biso   1.000  C
  C22      1.0000 0.55327  0.47699  0.82887  Biso   1.000  C
  C23      1.0000 0.33775  0.94187  0.52401  Biso   1.000  C
  C24      1.0000 0.02353  0.17268  0.06318  Biso   1.000  C
  C25      1.0000 0.33733  0.05033  0.50890  Biso   1.000  C
  C26      1.0000 0.53492  0.31118  0.07020  Biso   1.000  C
  C27      1.0000 0.07911  0.49071  0.33413  Biso   1.000  C
  C28      1.0000 0.83879  0.05156  0.99095  Biso   1.000  C
  C29      1.0000 0.02549  0.31622  0.45629  Biso   1.000  C
  C30      1.0000 0.58223  0.51302  0.18641  Biso   1.000  C
  C31      1.0000 0.19226  0.55557  0.52092  Biso   1.000  C
  C32      1.0000 0.00664  0.81407  0.05668  Biso   1.000  C
  C33      1.0000 0.45431  0.98455  0.33144  Biso   1.000  C
  C34      1.0000 0.68930  0.55407  0.00212  Biso   1.000  C
  C35      1.0000 0.51864  0.81648  0.45095  Biso   1.000  C
  C36      1.0000 0.95847  0.99951  0.18296  Biso   1.000  C
  C37      1.0000 0.69867  0.93498  0.49283  Biso   1.000  C
  C38      1.0000 0.50788  0.66440  0.94786  Biso   1.000  C
  C39      1.0000 0.94372  0.49030  0.69164  Biso   1.000  C
  C40      1.0000 0.19642  0.93162  0.01485  Biso   1.000  C
  C41      1.0000 0.01670  0.66686  0.56020  Biso   1.000  C
  C42      1.0000 0.44556  0.47364  0.83087  Biso   1.000  C
  C43      1.0000 0.84361  0.43353  0.48945  Biso   1.000  C
  C44      1.0000 0.03373  0.17200  0.95422  Biso   1.000  C
  C45      1.0000 0.58309  0.97317  0.68375  Biso   1.000  C
  C46      1.0000 0.34602  0.42584  0.02546  Biso   1.000  C
  C47      1.0000 0.53143  0.16860  0.57046  Biso   1.000  C
  C48      1.0000 0.08346  0.98826  0.82939  Biso   1.000  C
  C49      1.0000 0.03589  0.04555  0.82963  Biso   1.000  C
  C50      1.0000 0.83543  0.00589  0.05289  Biso   1.000  C
  C51      1.0000 0.06611  0.80897  0.00834  Biso   1.000  C
  C52      1.0000 0.54165  0.03352  0.69304  Biso   1.000  C
  C53      1.0000 0.33501  0.98744  0.46359  Biso   1.000  C
  C54      1.0000 0.56444  0.81535  0.51241  Biso   1.000  C
  C55      1.0000 0.49787  0.53146  0.82428  Biso   1.000  C
  C56      1.0000 0.70045  0.49314  0.05250  Biso   1.000  C
  C57      1.0000 0.47839  0.30503  0.01615  Biso   1.000  C
  C58      1.0000 0.00179  0.54493  0.69193  Biso   1.000  C
  C59      1.0000 0.19981  0.50125  0.46855  Biso   1.000  C
  C60      1.0000 0.97338  0.31074  0.51340  Biso   1.000  C
  C61      1.0000 0.00573  0.93928  0.18858  Biso   1.000  C
  C62      1.0000 0.20362  0.98465  0.96155  Biso   1.000  C
  C63      1.0000 0.97325  0.17212  0.00577  Biso   1.000  C
  C64      1.0000 0.51805  0.94413  0.32393  Biso   1.000  C
  C65      1.0000 0.70587  0.98558  0.55071  Biso   1.000  C
  C66      1.0000 0.46916  0.17147  0.52185  Biso   1.000  C
  C67      1.0000 0.54039  0.44616  0.19577  Biso   1.000  C
  C68      1.0000 0.33297  0.47780  0.97085  Biso   1.000  C
  C69      1.0000 0.56118  0.67500  0.00400  Biso   1.000  C
  C70      1.0000 0.01891  0.44165  0.32999  Biso   1.000  C
  C71      1.0000 0.83285  0.48052  0.55487  Biso   1.000  C
  C72      1.0000 0.06374  0.67596  0.50065  Biso   1.000  C
  C73      1.0000 0.02783  0.54824  0.32612  Biso   1.000  C
  C74      1.0000 0.34423  0.00216  0.56913  Biso   1.000  C
  C75      1.0000 0.58601  0.31071  0.01224  Biso   1.000  C
  C76      1.0000 0.51183  0.55218  0.18846  Biso   1.000  C
  C77      1.0000 0.83599  0.98778  0.94688  Biso   1.000  C
  C78      1.0000 0.08209  0.31714  0.50691  Biso   1.000  C
  C79      1.0000 0.49447  0.05228  0.32659  Biso   1.000  C
  C80      1.0000 0.19395  0.50178  0.57921  Biso   1.000  C
  C81      1.0000 0.95891  0.81611  0.99617  Biso   1.000  C
  C82      1.0000 0.02096  0.04783  0.18977  Biso   1.000  C
  C83      1.0000 0.68626  0.50241  0.94459  Biso   1.000  C
  C84      1.0000 0.45732  0.81143  0.50143  Biso   1.000  C
  C85      1.0000 0.99931  0.43620  0.69104  Biso   1.000  C
  C86      1.0000 0.69567  0.98971  0.44178  Biso   1.000  C
  C87      1.0000 0.45313  0.66873  0.00072  Biso   1.000  C
  C88      1.0000 0.50045  0.42227  0.83084  Biso   1.000  C
  C89      1.0000 0.20054  0.99433  0.07003  Biso   1.000  C
  C90      1.0000 0.95511  0.66757  0.51486  Biso   1.000  C
  C91      1.0000 0.52239  0.92388  0.69157  Biso   1.000  C
  C92      1.0000 0.84385  0.49550  0.44580  Biso   1.000  C
  C93      1.0000 0.08206  0.17083  0.01281  Biso   1.000  C
  C94      1.0000 0.02410  0.93609  0.82323  Biso   1.000  C
  C95      1.0000 0.34114  0.48451  0.07868  Biso   1.000  C
  C96      1.0000 0.57714  0.16990  0.50887  Biso   1.000  C
  C97      1.0000 0.70051  0.07478  0.49238  Biso   1.000  C
  C98      1.0000 0.49809  0.67804  0.08854  Biso   1.000  C
  C99      1.0000 0.08740  0.48986  0.69610  Biso   1.000  C
  C100     1.0000 0.20440  0.07413  0.01812  Biso   1.000  C
  C101     1.0000 0.00293  0.67437  0.42259  Biso   1.000  C
  C102     1.0000 0.58440  0.47477  0.82625  Biso   1.000  C
  C103     1.0000 0.82930  0.57158  0.51282  Biso   1.000  C
  C104     1.0000 0.02129  0.17333  0.09459  Biso   1.000  C
  C105     1.0000 0.44539  0.98225  0.69521  Biso   1.000  C
  C106     1.0000 0.33650  0.56639  0.03421  Biso   1.000  C
  C107     1.0000 0.51461  0.17112  0.42843  Biso   1.000  C
  C108     1.0000 0.94166  0.99260  0.82561  Biso   1.000  C
  C109     1.0000 0.33720  0.91016  0.52879  Biso   1.000  C
  C110     1.0000 0.52392  0.30254  0.93096  Biso   1.000  C
  C111     1.0000 0.94048  0.50742  0.31728  Biso   1.000  C
  C112     1.0000 0.83447  0.91508  0.01269  Biso   1.000  C
  C113     1.0000 0.03544  0.31376  0.59613  Biso   1.000  C
  C114     1.0000 0.44412  0.47864  0.20074  Biso   1.000  C
  C115     1.0000 0.20529  0.41637  0.51527  Biso   1.000  C
  C116     1.0000 0.01772  0.80831  0.91688  Biso   1.000  C
  C117     1.0000 0.59209  0.00366  0.32105  Biso   1.000  C
  C118     1.0000 0.70460  0.41465  0.99636  Biso   1.000  C
  C119     1.0000 0.50709  0.80357  0.58846  Biso   1.000  C
  C120     1.0000 0.09754  0.98255  0.19394  Biso   1.000  C
  C121     1.0000 0.83319  0.00184  0.08575  Biso   1.000  C
  C122     1.0000 0.09814  0.80632  0.00429  Biso   1.000  C
  C123     1.0000 0.04253  0.07555  0.82811  Biso   1.000  C
  C124     1.0000 0.33330  0.98348  0.43150  Biso   1.000  C
  C125     1.0000 0.59708  0.81398  0.51232  Biso   1.000  C
  C126     1.0000 0.54519  0.06489  0.69429  Biso   1.000  C
  C127     1.0000 0.70400  0.49561  0.08417  Biso   1.000  C
  C128     1.0000 0.44621  0.30185  0.01312  Biso   1.000  C
  C129     1.0000 0.50073  0.56436  0.82308  Biso   1.000  C
  C130     1.0000 0.20057  0.49991  0.43704  Biso   1.000  C
  C131     1.0000 0.94132  0.30893  0.51675  Biso   1.000  C
  C132     1.0000 0.00306  0.57659  0.69279  Biso   1.000  C
  C133     1.0000 0.20715  0.98264  0.92910  Biso   1.000  C
  C134     1.0000 0.94082  0.17138  0.00998  Biso   1.000  C
  C135     1.0000 0.00831  0.90646  0.18789  Biso   1.000  C
  C136     1.0000 0.70759  0.98608  0.58401  Biso   1.000  C
  C137     1.0000 0.43794  0.17499  0.51703  Biso   1.000  C
  C138     1.0000 0.52087  0.91175  0.32340  Biso   1.000  C
  C139     1.0000 0.33191  0.47629  0.93887  Biso   1.000  C
  C140     1.0000 0.59351  0.67762  0.00433  Biso   1.000  C
  C141     1.0000 0.54007  0.41286  0.19800  Biso   1.000  C
  C142     1.0000 0.82731  0.47843  0.58619  Biso   1.000  C
  C143     1.0000 0.09582  0.67746  0.50205  Biso   1.000  C
  C144     1.0000 0.01728  0.41006  0.33003  Biso   1.000  C
  C145     1.0000 0.34422  0.48908  0.11025  Biso   1.000  C
  C146     1.0000 0.11383  0.31722  0.50558  Biso   1.000  C
  C147     1.0000 0.49081  0.08469  0.32746  Biso   1.000  C
  C148     1.0000 0.84759  0.49525  0.41466  Biso   1.000  C
  C149     1.0000 0.61840  0.31255  0.00869  Biso   1.000  C
  C150     1.0000 0.02206  0.08071  0.19094  Biso   1.000  C
  C151     1.0000 0.19840  0.99540  0.10204  Biso   1.000  C
  C152     1.0000 0.42418  0.81232  0.50048  Biso   1.000  C
  C153     1.0000 0.03042  0.57979  0.32630  Biso   1.000  C
  C154     1.0000 0.69159  0.98723  0.40990  Biso   1.000  C
  C155     1.0000 0.92681  0.81613  0.99789  Biso   1.000  C
  C156     1.0000 0.50758  0.58416  0.18610  Biso   1.000  C
  C157     1.0000 0.68324  0.50193  0.91257  Biso   1.000  C
  C158     1.0000 0.92456  0.66690  0.51804  Biso   1.000  C
  C159     1.0000 0.51923  0.89179  0.69100  Biso   1.000  C
  C160     1.0000 0.19074  0.50255  0.61102  Biso   1.000  C
  C161     1.0000 0.42071  0.66640  0.00498  Biso   1.000  C
  C162     1.0000 0.02083  0.90530  0.82399  Biso   1.000  C
  C163     1.0000 0.83901  0.98481  0.91478  Biso   1.000  C
  C164     1.0000 0.60925  0.16978  0.50459  Biso   1.000  C
  C165     1.0000 0.00350  0.40496  0.68904  Biso   1.000  C
  C166     1.0000 0.34897  0.00374  0.60136  Biso   1.000  C
  C167     1.0000 0.11247  0.17176  0.01721  Biso   1.000  C
  C168     1.0000 0.50118  0.39066  0.83202  Biso   1.000  C
  C169     1.0000 0.00005  0.81393  0.08937  Biso   1.000  C
  C170     1.0000 0.11528  0.99093  0.83018  Biso   1.000  C
  C171     1.0000 0.83928  0.08357  0.99468  Biso   1.000  C
  C172     1.0000 0.52018  0.81749  0.41927  Biso   1.000  C
  C173     1.0000 0.61458  0.97359  0.68207  Biso   1.000  C
  C174     1.0000 0.33814  0.08342  0.51050  Biso   1.000  C
  C175     1.0000 0.53122  0.31411  0.10195  Biso   1.000  C
  C176     1.0000 0.41420  0.47063  0.83365  Biso   1.000  C
  C177     1.0000 0.68961  0.58682  0.00272  Biso   1.000  C
  C178     1.0000 0.02317  0.31580  0.42376  Biso   1.000  C
  C179     1.0000 0.91208  0.49000  0.68874  Biso   1.000  C
  C180     1.0000 0.19015  0.58726  0.51872  Biso   1.000  C
  C181     1.0000 0.03544  0.17001  0.92133  Biso   1.000  C
  C182     1.0000 0.92517  0.00285  0.18356  Biso   1.000  C
  C183     1.0000 0.19717  0.89978  0.01351  Biso   1.000  C
  C184     1.0000 0.53242  0.16555  0.60252  Biso   1.000  C
  C185     1.0000 0.42416  0.97564  0.33333  Biso   1.000  C
  C186     1.0000 0.69738  0.90367  0.49833  Biso   1.000  C
  C187     1.0000 0.49836  0.66282  0.91685  Biso   1.000  C
  C188     1.0000 0.61417  0.51313  0.18340  Biso   1.000  C
  C189     1.0000 0.34843  0.39436  0.02834  Biso   1.000  C
  C190     1.0000 0.01653  0.66678  0.59234  Biso   1.000  C
  C191     1.0000 0.11137  0.49332  0.33804  Biso   1.000  C
  C192     1.0000 0.84533  0.40189  0.49011  Biso   1.000  C
  C193     1.0000 0.86735  0.98512  0.90071  Biso   1.000  C
  C194     1.0000 0.91052  0.84242  0.99942  Biso   1.000  C
  C195     1.0000 0.02088  0.88849  0.85171  Biso   1.000  C
  C196     1.0000 0.37819  0.00001  0.61441  Biso   1.000  C
  C197     1.0000 0.41191  0.84121  0.50587  Biso   1.000  C
  C198     1.0000 0.51701  0.87770  0.66303  Biso   1.000  C
  C199     1.0000 0.65608  0.49486  0.89838  Biso   1.000  C
  C200     1.0000 0.63255  0.34140  0.00604  Biso   1.000  C
  C201     1.0000 0.50744  0.37502  0.85934  Biso   1.000  C
  C202     1.0000 0.16264  0.49989  0.62510  Biso   1.000  C
  C203     1.0000 0.12982  0.34507  0.50825  Biso   1.000  C
  C204     1.0000 0.00829  0.38991  0.66139  Biso   1.000  C
  C205     1.0000 0.17081  0.99750  0.11633  Biso   1.000  C
  C206     1.0000 0.12740  0.14398  0.02049  Biso   1.000  C
  C207     1.0000 0.02302  0.09611  0.16363  Biso   1.000  C
  C208     1.0000 0.66297  0.99330  0.39626  Biso   1.000  C
  C209     1.0000 0.62534  0.14197  0.50293  Biso   1.000  C
  C210     1.0000 0.49974  0.09910  0.35472  Biso   1.000  C
  C211     1.0000 0.37177  0.48499  0.12386  Biso   1.000  C
  C212     1.0000 0.40795  0.63943  0.01093  Biso   1.000  C
  C213     1.0000 0.50489  0.60022  0.15877  Biso   1.000  C
  C214     1.0000 0.87410  0.49610  0.39775  Biso   1.000  C
  C215     1.0000 0.90665  0.63966  0.51589  Biso   1.000  C
  C216     1.0000 0.03023  0.59702  0.35447  Biso   1.000  C
  C217     1.0000 0.13112  0.98708  0.85728  Biso   1.000  C
  C218     1.0000 0.86668  0.09725  0.99961  Biso   1.000  C
  C219     1.0000 0.00269  0.84088  0.10738  Biso   1.000  C
  C220     1.0000 0.62995  0.97866  0.65383  Biso   1.000  C
  C221     1.0000 0.36657  0.09762  0.51249  Biso   1.000  C
  C222     1.0000 0.52150  0.84559  0.40457  Biso   1.000  C
  C223     1.0000 0.40186  0.47225  0.86396  Biso   1.000  C
  C224     1.0000 0.66242  0.60313  0.00341  Biso   1.000  C
  C225     1.0000 0.53478  0.34168  0.11674  Biso   1.000  C
  C226     1.0000 0.89851  0.48716  0.66079  Biso   1.000  C
  C227     1.0000 0.16377  0.60175  0.51226  Biso   1.000  C
  C228     1.0000 0.02009  0.34231  0.40743  Biso   1.000  C
  C229     1.0000 0.90911  0.00547  0.15564  Biso   1.000  C
  C230     1.0000 0.17145  0.88301  0.01207  Biso   1.000  C
  C231     1.0000 0.03340  0.14339  0.90642  Biso   1.000  C
  C232     1.0000 0.40823  0.97654  0.36269  Biso   1.000  C
  C233     1.0000 0.66963  0.88840  0.50454  Biso   1.000  C
  C234     1.0000 0.53128  0.13669  0.61685  Biso   1.000  C
  C235     1.0000 0.62805  0.51006  0.15515  Biso   1.000  C
  C236     1.0000 0.37654  0.37923  0.02326  Biso   1.000  C
  C237     1.0000 0.49747  0.63349  0.90165  Biso   1.000  C
  C238     1.0000 0.12565  0.49762  0.36543  Biso   1.000  C
  C239     1.0000 0.87251  0.38661  0.49427  Biso   1.000  C
  C240     1.0000 0.01190  0.63994  0.60922  Biso   1.000  C
  C241     1.0000 0.60295  0.48315  0.85045  Biso   1.000  C
  C242     1.0000 0.85555  0.58739  0.51642  Biso   1.000  C
  C243     1.0000 0.51063  0.82901  0.60713  Biso   1.000  C
  C244     1.0000 0.10734  0.49499  0.67089  Biso   1.000  C
  C245     1.0000 0.36028  0.58506  0.02378  Biso   1.000  C
  C246     1.0000 0.01779  0.83618  0.90214  Biso   1.000  C
  C247     1.0000 0.92281  0.99408  0.85385  Biso   1.000  C
  C248     1.0000 0.67457  0.09151  0.49713  Biso   1.000  C
  C249     1.0000 0.02709  0.34106  0.61169  Biso   1.000  C
  C250     1.0000 0.43076  0.98756  0.66814  Biso   1.000  C
  C251     1.0000 0.17728  0.09016  0.01719  Biso   1.000  C
  C252     1.0000 0.51553  0.32871  0.91456  Biso   1.000  C
  C253     1.0000 0.42725  0.47825  0.17447  Biso   1.000  C
  C254     1.0000 0.17876  0.39809  0.51307  Biso   1.000  C
  C255     1.0000 0.50701  0.14480  0.41172  Biso   1.000  C
  C256     1.0000 0.92446  0.50391  0.34411  Biso   1.000  C
  C257     1.0000 0.67887  0.39727  0.99819  Biso   1.000  C
  C258     1.0000 0.01881  0.14677  0.11085  Biso   1.000  C
  C259     1.0000 0.11520  0.98890  0.16745  Biso   1.000  C
  C260     1.0000 0.36276  0.89343  0.52155  Biso   1.000  C
  C261     1.0000 0.01065  0.64729  0.40706  Biso   1.000  C
  C262     1.0000 0.60828  0.99823  0.34646  Biso   1.000  C
  C263     1.0000 0.85943  0.89793  0.01249  Biso   1.000  C
  C264     1.0000 0.50071  0.65169  0.10585  Biso   1.000  C
  C265     1.0000 0.04237  0.09287  0.85552  Biso   1.000  C
  C266     1.0000 0.86014  0.00400  0.10290  Biso   1.000  C
  C267     1.0000 0.11500  0.83321  0.00417  Biso   1.000  C
  C268     1.0000 0.54216  0.08091  0.66690  Biso   1.000  C
  C269     1.0000 0.35871  0.98211  0.41412  Biso   1.000  C
  C270     1.0000 0.61583  0.83963  0.50957  Biso   1.000  C
  C271     1.0000 0.50210  0.58057  0.85012  Biso   1.000  C
  C272     1.0000 0.67806  0.49569  0.10263  Biso   1.000  C
  C273     1.0000 0.42891  0.32867  0.01411  Biso   1.000  C
  C274     1.0000 0.00438  0.59114  0.66516  Biso   1.000  C
  C275     1.0000 0.17436  0.49771  0.41994  Biso   1.000  C
  C276     1.0000 0.92550  0.33327  0.50558  Biso   1.000  C
  C277     1.0000 0.00492  0.89091  0.16069  Biso   1.000  C
  C278     1.0000 0.18219  0.98145  0.91054  Biso   1.000  C
  C279     1.0000 0.92274  0.14598  0.00593  Biso   1.000  C
  C280     1.0000 0.52149  0.89631  0.35181  Biso   1.000  C
  C281     1.0000 0.68048  0.98343  0.60084  Biso   1.000  C
  C282     1.0000 0.42256  0.14761  0.51383  Biso   1.000  C
  C283     1.0000 0.53830  0.39688  0.17011  Biso   1.000  C
  C284     1.0000 0.35773  0.48026  0.92063  Biso   1.000  C
  C285     1.0000 0.61219  0.65178  0.00251  Biso   1.000  C
  C286     1.0000 0.01526  0.39408  0.35704  Biso   1.000  C
  C287     1.0000 0.85413  0.48252  0.60424  Biso   1.000  C
  C288     1.0000 0.11228  0.65126  0.50466  Biso   1.000  C
  C289     1.0000 0.36065  0.86227  0.52027  Biso   1.000  C
  C290     1.0000 0.51601  0.32582  0.88255  Biso   1.000  C
  C291     1.0000 0.89347  0.50593  0.34367  Biso   1.000  C
  C292     1.0000 0.85867  0.86618  0.00767  Biso   1.000  C
  C293     1.0000 0.02371  0.33900  0.64365  Biso   1.000  C
  C294     1.0000 0.39584  0.48262  0.17654  Biso   1.000  C
  C295     1.0000 0.18141  0.36746  0.50656  Biso   1.000  C
  C296     1.0000 0.01368  0.83481  0.87076  Biso   1.000  C
  C297     1.0000 0.63919  0.99534  0.34531  Biso   1.000  C
  C298     1.0000 0.68180  0.36640  0.00157  Biso   1.000  C
  C299     1.0000 0.51072  0.82588  0.63818  Biso   1.000  C
  C300     1.0000 0.14716  0.98933  0.16918  Biso   1.000  C
  C301     1.0000 0.67664  0.12283  0.49634  Biso   1.000  C
  C302     1.0000 0.49980  0.65374  0.13701  Biso   1.000  C
  C303     1.0000 0.13796  0.49618  0.67572  Biso   1.000  C
  C304     1.0000 0.17883  0.12039  0.02177  Biso   1.000  C
  C305     1.0000 0.01335  0.64922  0.37590  Biso   1.000  C
  C306     1.0000 0.63336  0.48174  0.84863  Biso   1.000  C
  C307     1.0000 0.85335  0.61828  0.51714  Biso   1.000  C
  C308     1.0000 0.02054  0.14916  0.14225  Biso   1.000  C
  C309     1.0000 0.39949  0.98874  0.66690  Biso   1.000  C
  C310     1.0000 0.35625  0.61632  0.02270  Biso   1.000  C
  C311     1.0000 0.50778  0.14917  0.38089  Biso   1.000  C
  C312     1.0000 0.89201  0.98706  0.84978  Biso   1.000  C
  C313     1.0000 0.17757  0.49744  0.38786  Biso   1.000  C
  C314     1.0000 0.38974  0.15016  0.51291  Biso   1.000  C
  C315     1.0000 0.53551  0.36579  0.16941  Biso   1.000  C
  C316     1.0000 0.67973  0.50346  0.13346  Biso   1.000  C
  C317     1.0000 0.89184  0.14845  0.00432  Biso   1.000  C
  C318     1.0000 0.01688  0.36242  0.35490  Biso   1.000  C
  C319     1.0000 0.35547  0.97818  0.38313  Biso   1.000  C
  C320     1.0000 0.14350  0.65534  0.50606  Biso   1.000  C
  C321     1.0000 0.00176  0.85968  0.16044  Biso   1.000  C
  C322     1.0000 0.85639  0.00221  0.13425  Biso   1.000  C
  C323     1.0000 0.64355  0.65629  0.00217  Biso   1.000  C
  C324     1.0000 0.51893  0.86540  0.35003  Biso   1.000  C
  C325     1.0000 0.84994  0.48347  0.63499  Biso   1.000  C
  C326     1.0000 0.64640  0.83565  0.50960  Biso   1.000  C
  C327     1.0000 0.50023  0.61157  0.84841  Biso   1.000  C
  C328     1.0000 0.35221  0.47434  0.88941  Biso   1.000  C
  C329     1.0000 0.14585  0.83190  0.01049  Biso   1.000  C
  C330     1.0000 0.00669  0.62200  0.66325  Biso   1.000  C
  C331     1.0000 0.68178  0.98302  0.63212  Biso   1.000  C
  C332     1.0000 0.89405  0.33329  0.50230  Biso   1.000  C
  C333     1.0000 0.03891  0.12326  0.85432  Biso   1.000  C
  C334     1.0000 0.18387  0.98583  0.87917  Biso   1.000  C
  C335     1.0000 0.39793  0.32677  0.01964  Biso   1.000  C
  C336     1.0000 0.53832  0.11263  0.66827  Biso   1.000  C
  C337     1.0000 0.65606  0.48768  0.86878  Biso   1.000  C
  C338     1.0000 0.87454  0.64037  0.51547  Biso   1.000  C
  C339     1.0000 0.51285  0.84600  0.66146  Biso   1.000  C
  C340     1.0000 0.16132  0.49631  0.65658  Biso   1.000  C
  C341     1.0000 0.37606  0.63879  0.01655  Biso   1.000  C
  C342     1.0000 0.01316  0.85792  0.84998  Biso   1.000  C
  C343     1.0000 0.86852  0.98398  0.86932  Biso   1.000  C
  C344     1.0000 0.65633  0.14493  0.49961  Biso   1.000  C
  C345     1.0000 0.01651  0.35976  0.66492  Biso   1.000  C
  C346     1.0000 0.37799  0.99546  0.64588  Biso   1.000  C
  C347     1.0000 0.15827  0.14266  0.02224  Biso   1.000  C
  C348     1.0000 0.51131  0.34426  0.85905  Biso   1.000  C
  C349     1.0000 0.37283  0.48589  0.15636  Biso   1.000  C
  C350     1.0000 0.16079  0.34538  0.50297  Biso   1.000  C
  C351     1.0000 0.50402  0.12916  0.35635  Biso   1.000  C
  C352     1.0000 0.87358  0.50168  0.36592  Biso   1.000  C
  C353     1.0000 0.66216  0.34277  0.00424  Biso   1.000  C
  C354     1.0000 0.02240  0.12773  0.16430  Biso   1.000  C
  C355     1.0000 0.16962  0.99283  0.14814  Biso   1.000  C
  C356     1.0000 0.38132  0.84010  0.51282  Biso   1.000  C
  C357     1.0000 0.02215  0.62758  0.35526  Biso   1.000  C
  C358     1.0000 0.66215  0.99231  0.36508  Biso   1.000  C
  C359     1.0000 0.87978  0.84379  0.00317  Biso   1.000  C
  C360     1.0000 0.50382  0.63123  0.15926  Biso   1.000  C
  C361     1.0000 0.03555  0.14516  0.87498  Biso   1.000  C
  C362     1.0000 0.87837  0.00281  0.15629  Biso   1.000  C
  C363     1.0000 0.16887  0.85250  0.01367  Biso   1.000  C
  C364     1.0000 0.53575  0.13500  0.64762  Biso   1.000  C
  C365     1.0000 0.37665  0.97509  0.36215  Biso   1.000  C
  C366     1.0000 0.66925  0.85638  0.50689  Biso   1.000  C
  C367     1.0000 0.49804  0.63323  0.86994  Biso   1.000  C
  C368     1.0000 0.65935  0.50949  0.15532  Biso   1.000  C
  C369     1.0000 0.37673  0.34767  0.02293  Biso   1.000  C
  C370     1.0000 0.01036  0.64300  0.64075  Biso   1.000  C
  C371     1.0000 0.15717  0.49785  0.36594  Biso   1.000  C
  C372     1.0000 0.87379  0.35539  0.49757  Biso   1.000  C
  C373     1.0000 0.00010  0.83861  0.13881  Biso   1.000  C
  C374     1.0000 0.16271  0.98899  0.85737  Biso   1.000  C
  C375     1.0000 0.86816  0.12853  0.00140  Biso   1.000  C
  C376     1.0000 0.52066  0.84404  0.37259  Biso   1.000  C
  C377     1.0000 0.66133  0.98120  0.65329  Biso   1.000  C
  C378     1.0000 0.36712  0.12968  0.50985  Biso   1.000  C
  C379     1.0000 0.53329  0.34408  0.14913  Biso   1.000  C
  C380     1.0000 0.37052  0.47176  0.86616  Biso   1.000  C
  C381     1.0000 0.66522  0.63472  0.00285  Biso   1.000  C
  C382     1.0000 0.01858  0.34046  0.37599  Biso   1.000  C
  C383     1.0000 0.86751  0.48550  0.65912  Biso   1.000  C
  C384     1.0000 0.16478  0.63354  0.50970  Biso   1.000  C
  C385     1.0000 0.20720  0.13616  0.02316  Biso   1.000  C
  C386     1.0000 0.01977  0.17645  0.15787  Biso   1.000  C
  C387     1.0000 0.16110  0.98218  0.19649  Biso   1.000  C
  C388     1.0000 0.70380  0.13744  0.49312  Biso   1.000  C
  C389     1.0000 0.51220  0.17637  0.36747  Biso   1.000  C
  C390     1.0000 0.65359  0.99660  0.31716  Biso   1.000  C
  C391     1.0000 0.32815  0.63021  0.02643  Biso   1.000  C
  C392     1.0000 0.49897  0.68070  0.15193  Biso   1.000  C
  C393     1.0000 0.38228  0.48402  0.20495  Biso   1.000  C
  C394     1.0000 0.82683  0.63481  0.51575  Biso   1.000  C
  C395     1.0000 0.00643  0.67421  0.35929  Biso   1.000  C
  C396     1.0000 0.87742  0.51070  0.31688  Biso   1.000  C
  C397     1.0000 0.83194  0.85083  0.00993  Biso   1.000  C
  C398     1.0000 0.00869  0.80866  0.85467  Biso   1.000  C
  C399     1.0000 0.87781  0.98420  0.82220  Biso   1.000  C
  C400     1.0000 0.33336  0.84806  0.52558  Biso   1.000  C
  C401     1.0000 0.50665  0.79832  0.65215  Biso   1.000  C
  C402     1.0000 0.38433  0.98427  0.69377  Biso   1.000  C
  C403     1.0000 0.71018  0.35314  0.00279  Biso   1.000  C
  C404     1.0000 0.52053  0.29853  0.86855  Biso   1.000  C
  C405     1.0000 0.64765  0.47730  0.82090  Biso   1.000  C
  C406     1.0000 0.20853  0.35318  0.50421  Biso   1.000  C
  C407     1.0000 0.02812  0.31303  0.65892  Biso   1.000  C
  C408     1.0000 0.14986  0.49216  0.70500  Biso   1.000  C
  C409     1.0000 0.17957  0.99337  0.83069  Biso   1.000  C
  C410     1.0000 0.84275  0.14670  0.00134  Biso   1.000  C
  C411     1.0000 0.00085  0.81001  0.15472  Biso   1.000  C
  C412     1.0000 0.67700  0.98004  0.68084  Biso   1.000  C
  C413     1.0000 0.34159  0.14714  0.50684  Biso   1.000  C
  C414     1.0000 0.51825  0.81672  0.35771  Biso   1.000  C
  C415     1.0000 0.35273  0.46636  0.84131  Biso   1.000  C
  C416     1.0000 0.69172  0.65130  0.00576  Biso   1.000  C
  C417     1.0000 0.53031  0.31690  0.16625  Biso   1.000  C
  C418     1.0000 0.84919  0.48659  0.68426  Biso   1.000  C
  C419     1.0000 0.19199  0.64997  0.51037  Biso   1.000  C
  C420     1.0000 0.02059  0.31388  0.36100  Biso   1.000  C
  C421     1.0000 0.86204  0.00244  0.18221  Biso   1.000  C
  C422     1.0000 0.19352  0.83593  0.01632  Biso   1.000  C
  C423     1.0000 0.03554  0.17262  0.85954  Biso   1.000  C
  C424     1.0000 0.36111  0.97135  0.33502  Biso   1.000  C
  C425     1.0000 0.69440  0.83851  0.50756  Biso   1.000  C
  C426     1.0000 0.53505  0.16063  0.66508  Biso   1.000  C
  C427     1.0000 0.67593  0.51671  0.17991  Biso   1.000  C
  C428     1.0000 0.35094  0.33167  0.02666  Biso   1.000  C
  C429     1.0000 0.49672  0.65972  0.85201  Biso   1.000  C
  C430     1.0000 0.17546  0.49703  0.33987  Biso   1.000  C
  C431     1.0000 0.84689  0.34005  0.49780  Biso   1.000  C
  C432     1.0000 0.00960  0.67047  0.65526  Biso   1.000  C
  C433     1.0000 0.03868  0.13875  0.82613  Biso   1.000  C
  C434     1.0000 0.82889  0.00036  0.15013  Biso   1.000  C
  C435     1.0000 0.15991  0.80423  0.01281  Biso   1.000  C
  C436     1.0000 0.53899  0.12657  0.69559  Biso   1.000  C
  C437     1.0000 0.32841  0.97475  0.36853  Biso   1.000  C
  C438     1.0000 0.66028  0.80781  0.51442  Biso   1.000  C
  C439     1.0000 0.49948  0.62615  0.82044  Biso   1.000  C
  C440     1.0000 0.70747  0.50930  0.14606  Biso   1.000  C
  C441     1.0000 0.38282  0.30066  0.02001  Biso   1.000  C
  C442     1.0000 0.00467  0.63861  0.68948  Biso   1.000  C
  C443     1.0000 0.20564  0.49921  0.37290  Biso   1.000  C
  C444     1.0000 0.87914  0.30645  0.50751  Biso   1.000  C
  C445     1.0000 0.00240  0.84345  0.18790  Biso   1.000  C
  C446     1.0000 0.21127  0.98840  0.86535  Biso   1.000  C
  C447     1.0000 0.87774  0.17639  0.00598  Biso   1.000  C
  C448     1.0000 0.52007  0.84862  0.32370  Biso   1.000  C
  C449     1.0000 0.70866  0.98155  0.64729  Biso   1.000  C
  C450     1.0000 0.37561  0.17828  0.51401  Biso   1.000  C
  C451     1.0000 0.53314  0.35098  0.19716  Biso   1.000  C
  C452     1.0000 0.32423  0.47064  0.87772  Biso   1.000  C
  C453     1.0000 0.65828  0.68269  0.00421  Biso   1.000  C
  C454     1.0000 0.01836  0.34710  0.32747  Biso   1.000  C
  C455     1.0000 0.82053  0.48093  0.64758  Biso   1.000  C
  C456     1.0000 0.15907  0.68243  0.50389  Biso   1.000  C
  C457     1.0000 0.01889  0.64228  0.32727  Biso   1.000  C
  C458     1.0000 0.35212  0.99450  0.66242  Biso   1.000  C
  C459     1.0000 0.67929  0.31785  0.00658  Biso   1.000  C
  C460     1.0000 0.50457  0.64813  0.18560  Biso   1.000  C
  C461     1.0000 0.84348  0.97987  0.85240  Biso   1.000  C
  C462     1.0000 0.17647  0.31916  0.49893  Biso   1.000  C
  C463     1.0000 0.50460  0.14732  0.33211  Biso   1.000  C
  C464     1.0000 0.18633  0.49305  0.67412  Biso   1.000  C
  C465     1.0000 0.86454  0.81703  0.00594  Biso   1.000  C
  C466     1.0000 0.02198  0.14258  0.19196  Biso   1.000  C
  C467     1.0000 0.67980  0.48864  0.85053  Biso   1.000  C
  C468     1.0000 0.36316  0.81374  0.51441  Biso   1.000  C
  C469     1.0000 0.01744  0.34457  0.69206  Biso   1.000  C
  C470     1.0000 0.68694  0.99016  0.34702  Biso   1.000  C
  C471     1.0000 0.35913  0.66522  0.01682  Biso   1.000  C
  C472     1.0000 0.51072  0.32651  0.83272  Biso   1.000  C
  C473     1.0000 0.19558  0.98733  0.16551  Biso   1.000  C
  C474     1.0000 0.85993  0.66678  0.51730  Biso   1.000  C
  C475     1.0000 0.51083  0.82811  0.68737  Biso   1.000  C
  C476     1.0000 0.84690  0.50700  0.35031  Biso   1.000  C
  C477     1.0000 0.17613  0.16948  0.02109  Biso   1.000  C
  C478     1.0000 0.00869  0.84333  0.82225  Biso   1.000  C
  C479     1.0000 0.34722  0.48864  0.17392  Biso   1.000  C
  C480     1.0000 0.67267  0.17200  0.49911  Biso   1.000  C
  C481     1.0000 0.37562  0.78632  0.50550  Biso   1.000  C
  C482     1.0000 0.50271  0.34054  0.80542  Biso   1.000  C
  C483     1.0000 0.82023  0.50321  0.36627  Biso   1.000  C
  C484     1.0000 0.87980  0.78799  0.00582  Biso   1.000  C
  C485     1.0000 0.01070  0.35897  0.71956  Biso   1.000  C
  C486     1.0000 0.32030  0.49379  0.15958  Biso   1.000  C
  C487     1.0000 0.16182  0.29186  0.50063  Biso   1.000  C
  C488     1.0000 0.00819  0.85939  0.79432  Biso   1.000  C
  C489     1.0000 0.71303  0.98261  0.36024  Biso   1.000  C
  C490     1.0000 0.66562  0.28927  0.00896  Biso   1.000  C
  C491     1.0000 0.51632  0.84330  0.71504  Biso   1.000  C
  C492     1.0000 0.22240  0.98740  0.15130  Biso   1.000  C
  C493     1.0000 0.65621  0.19908  0.50272  Biso   1.000  C
  C494     1.0000 0.50917  0.63225  0.21334  Biso   1.000  C
  C495     1.0000 0.21470  0.49762  0.65990  Biso   1.000  C
  C496     1.0000 0.16152  0.19796  0.01552  Biso   1.000  C
  C497     1.0000 0.02627  0.62703  0.30003  Biso   1.000  C
  C498     1.0000 0.70656  0.49954  0.86348  Biso   1.000  C
  C499     1.0000 0.87750  0.69349  0.51767  Biso   1.000  C
  C500     1.0000 0.02154  0.12559  0.21890  Biso   1.000  C
  C501     1.0000 0.32448  0.00058  0.65003  Biso   1.000  C
  C502     1.0000 0.37487  0.69334  0.01118  Biso   1.000  C
  C503     1.0000 0.49650  0.13289  0.30480  Biso   1.000  C
  C504     1.0000 0.81508  0.97639  0.86511  Biso   1.000  C
  C505     1.0000 0.62943  0.46832  0.79685  Biso   1.000  C
  C506     1.0000 0.80070  0.61851  0.51352  Biso   1.000  C
  C507     1.0000 0.50163  0.77176  0.63375  Biso   1.000  C
  C508     1.0000 0.13028  0.48637  0.72925  Biso   1.000  C
  C509     1.0000 0.30342  0.61142  0.03153  Biso   1.000  C
  C510     1.0000 0.01062  0.78060  0.86918  Biso   1.000  C
  C511     1.0000 0.89534  0.98718  0.79585  Biso   1.000  C
  C512     1.0000 0.73009  0.12211  0.48648  Biso   1.000  C
  C513     1.0000 0.03983  0.28779  0.64391  Biso   1.000  C
  C514     1.0000 0.39903  0.97989  0.72163  Biso   1.000  C
  C515     1.0000 0.23380  0.11955  0.02610  Biso   1.000  C
  C516     1.0000 0.52889  0.27315  0.88445  Biso   1.000  C
  C517     1.0000 0.39807  0.47941  0.23210  Biso   1.000  C
  C518     1.0000 0.23436  0.37109  0.50443  Biso   1.000  C
  C519     1.0000 0.51924  0.20273  0.38435  Biso   1.000  C
  C520     1.0000 0.89511  0.51494  0.28951  Biso   1.000  C
  C521     1.0000 0.73556  0.37148  0.00168  Biso   1.000  C
  C522     1.0000 0.02068  0.20281  0.14146  Biso   1.000  C
  C523     1.0000 0.14451  0.97745  0.22289  Biso   1.000  C
  C524     1.0000 0.30823  0.86408  0.53515  Biso   1.000  C
  C525     1.0000 0.99546  0.69936  0.37441  Biso   1.000  C
  C526     1.0000 0.63663  0.00353  0.29047  Biso   1.000  C
  C527     1.0000 0.80381  0.86770  0.01265  Biso   1.000  C
  C528     1.0000 0.49483  0.70711  0.13528  Biso   1.000  C
  C529     1.0000 0.81585  0.13200  0.99586  Biso   1.000  C
  C530     1.0000 0.99847  0.78396  0.13739  Biso   1.000  C
  C531     1.0000 0.16307  0.99932  0.80366  Biso   1.000  C
  C532     1.0000 0.31383  0.13163  0.50396  Biso   1.000  C
  C533     1.0000 0.51668  0.78919  0.37476  Biso   1.000  C
  C534     1.0000 0.66231  0.97328  0.70695  Biso   1.000  C
  C535     1.0000 0.71791  0.63490  0.00625  Biso   1.000  C
  C536     1.0000 0.52794  0.28951  0.15075  Biso   1.000  C
  C537     1.0000 0.36545  0.46415  0.81195  Biso   1.000  C
  C538     1.0000 0.21788  0.63370  0.51481  Biso   1.000  C
  C539     1.0000 0.02353  0.28676  0.37744  Biso   1.000  C
  C540     1.0000 0.86238  0.49154  0.71222  Biso   1.000  C
  C541     1.0000 0.22145  0.85189  0.01858  Biso   1.000  C
  C542     1.0000 0.03751  0.19963  0.87598  Biso   1.000  C
  C543     1.0000 0.87766  0.00450  0.20961  Biso   1.000  C
  C544     1.0000 0.72224  0.85410  0.50113  Biso   1.000  C
  C545     1.0000 0.53211  0.18889  0.65152  Biso   1.000  C
  C546     1.0000 0.37642  0.96586  0.30725  Biso   1.000  C
  C547     1.0000 0.32363  0.34493  0.03096  Biso   1.000  C
  C548     1.0000 0.49608  0.68785  0.86724  Biso   1.000  C
  C549     1.0000 0.66305  0.52151  0.20812  Biso   1.000  C
  C550     1.0000 0.82012  0.35404  0.48932  Biso   1.000  C
  C551     1.0000 0.01287  0.69680  0.63905  Biso   1.000  C
  C552     1.0000 0.16022  0.49242  0.31077  Biso   1.000  C
  C553     1.0000 0.03736  0.12236  0.79946  Biso   1.000  C
  C554     1.0000 0.80278  0.99759  0.13292  Biso   1.000  C
  C555     1.0000 0.14257  0.77698  0.00938  Biso   1.000  C
  C556     1.0000 0.54359  0.11060  0.72296  Biso   1.000  C
  C557     1.0000 0.30196  0.97547  0.38721  Biso   1.000  C
  C558     1.0000 0.64135  0.78194  0.51872  Biso   1.000  C
  C559     1.0000 0.49787  0.60970  0.79355  Biso   1.000  C
  C560     1.0000 0.73362  0.51025  0.12883  Biso   1.000  C
  C561     1.0000 0.39901  0.27396  0.01726  Biso   1.000  C
  C562     1.0000 0.00095  0.62583  0.71872  Biso   1.000  C
  C563     1.0000 0.23184  0.50093  0.39081  Biso   1.000  C
  C564     1.0000 0.89357  0.28011  0.51830  Biso   1.000  C
  C565     1.0000 0.00721  0.85835  0.21460  Biso   1.000  C
  C566     1.0000 0.23717  0.98938  0.88302  Biso   1.000  C
  C567     1.0000 0.89565  0.20072  0.01459  Biso   1.000  C
  C568     1.0000 0.52401  0.86470  0.29658  Biso   1.000  C
  C569     1.0000 0.73661  0.98349  0.63115  Biso   1.000  C
  C570     1.0000 0.39407  0.20403  0.51639  Biso   1.000  C
  C571     1.0000 0.53775  0.36539  0.22475  Biso   1.000  C
  C572     1.0000 0.29938  0.46981  0.89569  Biso   1.000  C
  C573     1.0000 0.63982  0.70863  0.00700  Biso   1.000  C
  C574     1.0000 0.01513  0.36221  0.30007  Biso   1.000  C
  C575     1.0000 0.79560  0.47447  0.62899  Biso   1.000  C
  C576     1.0000 0.14242  0.70962  0.50149  Biso   1.000  C
  C577     1.0000 0.31829  0.49454  0.12732  Biso   1.000  C
  C578     1.0000 0.13074  0.29121  0.50411  Biso   1.000  C
  C579     1.0000 0.48608  0.10344  0.30267  Biso   1.000  C
  C580     1.0000 0.82072  0.49776  0.39738  Biso   1.000  C
  C581     1.0000 0.63532  0.28671  0.00996  Biso   1.000  C
  C582     1.0000 0.02024  0.09448  0.21934  Biso   1.000  C
  C583     1.0000 0.22358  0.99197  0.11925  Biso   1.000  C
  C584     1.0000 0.40644  0.78555  0.49925  Biso   1.000  C
  C585     1.0000 0.02944  0.59453  0.29936  Biso   1.000  C
  C586     1.0000 0.71580  0.98146  0.39182  Biso   1.000  C
  C587     1.0000 0.91041  0.78946  0.00030  Biso   1.000  C
  C588     1.0000 0.50969  0.60097  0.21228  Biso   1.000  C
  C589     1.0000 0.70774  0.50613  0.89408  Biso   1.000  C
  C590     1.0000 0.90807  0.69374  0.51797  Biso   1.000  C
  C591     1.0000 0.52019  0.87433  0.71797  Biso   1.000  C
  C592     1.0000 0.21677  0.50213  0.62849  Biso   1.000  C
  C593     1.0000 0.40511  0.69355  0.00532  Biso   1.000  C
  C594     1.0000 0.01390  0.89120  0.79631  Biso   1.000  C
  C595     1.0000 0.81325  0.97883  0.89651  Biso   1.000  C
  C596     1.0000 0.62501  0.19757  0.50813  Biso   1.000  C
  C597     1.0000 0.00154  0.38915  0.71784  Biso   1.000  C
  C598     1.0000 0.32314  0.00568  0.61864  Biso   1.000  C
  C599     1.0000 0.13043  0.19884  0.01375  Biso   1.000  C
  C600     1.0000 0.49987  0.37230  0.80430  Biso   1.000  C
  C601     1.0000 0.23544  0.98518  0.91432  Biso   1.000  C
  C602     1.0000 0.92651  0.19856  0.01677  Biso   1.000  C
  C603     1.0000 0.01066  0.89066  0.21425  Biso   1.000  C
  C604     1.0000 0.73476  0.98659  0.59995  Biso   1.000  C
  C605     1.0000 0.42426  0.20262  0.51787  Biso   1.000  C
  C606     1.0000 0.52378  0.89617  0.29624  Biso   1.000  C
  C607     1.0000 0.30203  0.47212  0.92608  Biso   1.000  C
  C608     1.0000 0.60894  0.70586  0.00700  Biso   1.000  C
  C609     1.0000 0.54180  0.39624  0.22524  Biso   1.000  C
  C610     1.0000 0.79760  0.47491  0.59784  Biso   1.000  C
  C611     1.0000 0.11016  0.70595  0.50060  Biso   1.000  C
  C612     1.0000 0.01570  0.39365  0.30252  Biso   1.000  C
  C613     1.0000 0.80551  0.99973  0.10019  Biso   1.000  C
  C614     1.0000 0.11254  0.77881  0.00625  Biso   1.000  C
  C615     1.0000 0.04310  0.09138  0.79919  Biso   1.000  C
  C616     1.0000 0.30490  0.97796  0.41963  Biso   1.000  C
  C617     1.0000 0.61033  0.78566  0.51702  Biso   1.000  C
  C618     1.0000 0.54721  0.07992  0.72235  Biso   1.000  C
  C619     1.0000 0.73295  0.50125  0.09851  Biso   1.000  C
  C620     1.0000 0.43045  0.27519  0.01626  Biso   1.000  C
  C621     1.0000 0.49954  0.57913  0.79552  Biso   1.000  C
  C622     1.0000 0.22933  0.50011  0.42243  Biso   1.000  C
  C623     1.0000 0.92547  0.28164  0.52287  Biso   1.000  C
  C624     1.0000 0.00120  0.59390  0.71949  Biso   1.000  C
  C625     1.0000 0.03748  0.19823  0.90721  Biso   1.000  C
  C626     1.0000 0.90851  0.00316  0.21108  Biso   1.000  C
  C627     1.0000 0.22326  0.88302  0.01716  Biso   1.000  C
  C628     1.0000 0.53207  0.19084  0.61989  Biso   1.000  C
  C629     1.0000 0.40762  0.96796  0.30663  Biso   1.000  C
  C630     1.0000 0.72271  0.88597  0.49649  Biso   1.000  C
  C631     1.0000 0.49579  0.68900  0.89941  Biso   1.000  C
  C632     1.0000 0.63227  0.51681  0.20879  Biso   1.000  C
  C633     1.0000 0.32226  0.37639  0.03425  Biso   1.000  C
  C634     1.0000 0.01842  0.69538  0.60815  Biso   1.000  C
  C635     1.0000 0.12797  0.49042  0.31159  Biso   1.000  C
  C636     1.0000 0.81832  0.38501  0.48603  Biso   1.000  C
  C637     1.0000 0.99704  0.78673  0.10499  Biso   1.000  C
  C638     1.0000 0.13131  0.99972  0.80387  Biso   1.000  C
  C639     1.0000 0.81392  0.10097  0.99323  Biso   1.000  C
  C640     1.0000 0.51827  0.78954  0.40500  Biso   1.000  C
  C641     1.0000 0.63058  0.96920  0.70778  Biso   1.000  C
  C642     1.0000 0.31276  0.09999  0.50735  Biso   1.000  C
  C643     1.0000 0.52786  0.28716  0.11937  Biso   1.000  C
  C644     1.0000 0.39536  0.46914  0.80888  Biso   1.000  C
  C645     1.0000 0.71579  0.60379  0.00328  Biso   1.000  C
  C646     1.0000 0.02476  0.28691  0.41005  Biso   1.000  C
  C647     1.0000 0.89375  0.49455  0.71572  Biso   1.000  C
  C648     1.0000 0.21702  0.60364  0.51889  Biso   1.000  C
  C649     1.0000 0.99318  0.69851  0.40689  Biso   1.000  C
  C650     1.0000 0.43060  0.97750  0.72166  Biso   1.000  C
  C651     1.0000 0.73357  0.40188  0.00135  Biso   1.000  C
  C652     1.0000 0.49362  0.70552  0.10321  Biso   1.000  C
  C653     1.0000 0.92655  0.98971  0.79727  Biso   1.000  C
  C654     1.0000 0.23343  0.40354  0.50957  Biso   1.000  C
  C655     1.0000 0.51835  0.20014  0.41524  Biso   1.000  C
  C656     1.0000 0.09971  0.48588  0.72576  Biso   1.000  C
  C657     1.0000 0.80533  0.90027  0.01337  Biso   1.000  C
  C658     1.0000 0.02088  0.20170  0.10959  Biso   1.000  C
  C659     1.0000 0.59831  0.46619  0.79903  Biso   1.000  C
  C660     1.0000 0.31059  0.89513  0.53694  Biso   1.000  C
  C661     1.0000 0.04350  0.28914  0.61245  Biso   1.000  C
  C662     1.0000 0.60579  0.00765  0.29321  Biso   1.000  C
  C663     1.0000 0.30813  0.58030  0.03844  Biso   1.000  C
  C664     1.0000 0.52985  0.27448  0.91521  Biso   1.000  C
  C665     1.0000 0.11267  0.97761  0.22162  Biso   1.000  C
  C666     1.0000 0.80309  0.58749  0.51325  Biso   1.000  C
  C667     1.0000 0.50153  0.77543  0.60215  Biso   1.000  C
  C668     1.0000 0.92649  0.51335  0.29020  Biso   1.000  C
  C669     1.0000 0.23287  0.08887  0.02275  Biso   1.000  C
  C670     1.0000 0.01381  0.78132  0.90129  Biso   1.000  C
  C671     1.0000 0.42967  0.47907  0.22985  Biso   1.000  C
  C672     1.0000 0.72861  0.09047  0.48817  Biso   1.000  C
  C673     1.0000 0.22601  0.99188  0.81630  Biso   1.000  C
  C674     1.0000 0.83168  0.19554  0.00510  Biso   1.000  C
  C675     1.0000 0.99978  0.79658  0.20160  Biso   1.000  C
  C676     1.0000 0.72216  0.98069  0.69456  Biso   1.000  C
  C677     1.0000 0.33027  0.19554  0.50786  Biso   1.000  C
  C678     1.0000 0.51778  0.80165  0.30989  Biso   1.000  C
  C679     1.0000 0.30351  0.46606  0.83317  Biso   1.000  C
  C680     1.0000 0.70737  0.69744  0.00590  Biso   1.000  C
  C681     1.0000 0.52887  0.30404  0.21318  Biso   1.000  C
  C682     1.0000 0.80153  0.48216  0.69293  Biso   1.000  C
  C683     1.0000 0.20474  0.69662  0.51448  Biso   1.000  C
  C684     1.0000 0.02138  0.29973  0.31505  Biso   1.000  C
  C685     1.0000 0.81432  0.99992  0.19750  Biso   1.000  C
  C686     1.0000 0.20409  0.78840  0.02097  Biso   1.000  C
  C687     1.0000 0.03540  0.18585  0.81201  Biso   1.000  C
  C688     1.0000 0.31585  0.97005  0.32107  Biso   1.000  C
  C689     1.0000 0.70603  0.79192  0.51126  Biso   1.000  C
  C690     1.0000 0.53786  0.17180  0.71379  Biso   1.000  C
  C691     1.0000 0.72229  0.51725  0.19220  Biso   1.000  C
  C692     1.0000 0.33853  0.28377  0.02647  Biso   1.000  C
  C693     1.0000 0.49708  0.67227  0.80520  Biso   1.000  C
  C694     1.0000 0.22347  0.50121  0.32635  Biso   1.000  C
  C695     1.0000 0.83252  0.29315  0.50788  Biso   1.000  C
  C696     1.0000 0.00603  0.68657  0.70047  Biso   1.000  C
  C697     1.0000 0.70093  0.99380  0.30015  Biso   1.000  C
  C698     1.0000 0.31076  0.67747  0.02900  Biso   1.000  C
  C699     1.0000 0.02791  0.29892  0.70596  Biso   1.000  C
  C700     1.0000 0.20811  0.97951  0.21183  Biso   1.000  C
  C701     1.0000 0.81367  0.68144  0.51445  Biso   1.000  C
  C702     1.0000 0.51928  0.28114  0.82071  Biso   1.000  C
  C703     1.0000 0.83148  0.51495  0.30194  Biso   1.000  C
  C704     1.0000 0.22174  0.18267  0.02105  Biso   1.000  C
  C705     1.0000 0.50345  0.78095  0.69666  Biso   1.000  C
  C706     1.0000 0.33752  0.48886  0.22251  Biso   1.000  C
  C707     1.0000 0.71940  0.18404  0.49811  Biso   1.000  C
  C708     1.0000 0.00401  0.79750  0.80811  Biso   1.000  C
  C709     1.0000 0.33832  0.98879  0.70847  Biso   1.000  C
  C710     1.0000 0.72833  0.30935  0.00669  Biso   1.000  C
  C711     1.0000 0.00852  0.68788  0.31160  Biso   1.000  C
  C712     1.0000 0.83247  0.97852  0.80385  Biso   1.000  C
  C713     1.0000 0.22465  0.30713  0.49684  Biso   1.000  C
  C714     1.0000 0.50404  0.69628  0.19858  Biso   1.000  C
  C715     1.0000 0.19418  0.48506  0.72311  Biso   1.000  C
  C716     1.0000 0.81932  0.80308  0.00947  Biso   1.000  C
  C717     1.0000 0.51490  0.19285  0.32230  Biso   1.000  C
  C718     1.0000 0.69310  0.48081  0.80344  Biso   1.000  C
  C719     1.0000 0.31642  0.80175  0.52271  Biso   1.000  C
  C720     1.0000 0.02145  0.18981  0.20614  Biso   1.000  C
  C721     1.0000 0.53096  0.77343  0.31114  Biso   1.000  C
  C722     1.0000 0.27695  0.48306  0.83726  Biso   1.000  C
  C723     1.0000 0.80484  0.29935  0.51937  Biso   1.000  C
  C724     1.0000 0.98403  0.79964  0.22808  Biso   1.000  C
  C725     1.0000 0.77304  0.49287  0.68491  Biso   1.000  C
  C726     1.0000 0.31598  0.28417  0.04961  Biso   1.000  C
  C727     1.0000 0.00807  0.27192  0.31927  Biso   1.000  C
  C728     1.0000 0.25708  0.00172  0.82321  Biso   1.000  C
  C729     1.0000 0.73405  0.79887  0.52514  Biso   1.000  C
  C730     1.0000 0.51116  0.30703  0.24075  Biso   1.000  C
  C731     1.0000 0.74803  0.96259  0.68952  Biso   1.000  C
  C732     1.0000 0.22625  0.78891  0.04389  Biso   1.000  C
  C733     1.0000 0.51802  0.16634  0.73950  Biso   1.000  C
  C734     1.0000 0.72277  0.53857  0.21600  Biso   1.000  C
  C735     1.0000 0.22531  0.69514  0.53914  Biso   1.000  C
  C736     1.0000 0.01766  0.21166  0.81597  Biso   1.000  C
  C737     1.0000 0.25235  0.48708  0.33248  Biso   1.000  C
  C738     1.0000 0.73389  0.69190  0.02145  Biso   1.000  C
  C739     1.0000 0.02262  0.68445  0.72812  Biso   1.000  C
  C740     1.0000 0.81680  0.98295  0.22374  Biso   1.000  C
  C741     1.0000 0.30896  0.19432  0.48517  Biso   1.000  C
  C742     1.0000 0.47647  0.69609  0.80618  Biso   1.000  C
  C743     1.0000 0.28798  0.95522  0.32405  Biso   1.000  C
  C744     1.0000 0.80313  0.19234  0.01722  Biso   1.000  C
  C745     1.0000 0.01786  0.71849  0.31751  Biso   1.000  C
  C746     1.0000 0.31044  0.97150  0.70290  Biso   1.000  C
  C747     1.0000 0.75217  0.30875  0.98627  Biso   1.000  C
  C748     1.0000 0.52338  0.72151  0.19141  Biso   1.000  C
  C749     1.0000 0.83731  0.96073  0.77705  Biso   1.000  C
  C750     1.0000 0.25085  0.31211  0.51208  Biso   1.000  C
  C751     1.0000 0.53336  0.18970  0.29708  Biso   1.000  C
  C752     1.0000 0.22085  0.46913  0.71766  Biso   1.000  C
  C753     1.0000 0.79364  0.80676  0.02820  Biso   1.000  C
  C754     1.0000 0.00569  0.21771  0.20182  Biso   1.000  C
  C755     1.0000 0.72168  0.47132  0.80798  Biso   1.000  C
  C756     1.0000 0.28749  0.81032  0.51182  Biso   1.000  C
  C757     1.0000 0.01800  0.26916  0.69944  Biso   1.000  C
  C758     1.0000 0.72809  0.00743  0.30673  Biso   1.000  C
  C759     1.0000 0.31600  0.70733  0.03828  Biso   1.000  C
  C760     1.0000 0.53408  0.28706  0.79269  Biso   1.000  C
  C761     1.0000 0.23297  0.99898  0.21198  Biso   1.000  C
  C762     1.0000 0.81908  0.70919  0.50226  Biso   1.000  C
  C763     1.0000 0.51262  0.75106  0.69109  Biso   1.000  C
  C764     1.0000 0.80438  0.53100  0.30509  Biso   1.000  C
  C765     1.0000 0.21994  0.21077  0.03639  Biso   1.000  C
  C766     1.0000 0.02458  0.79795  0.78429  Biso   1.000  C
  C767     1.0000 0.34117  0.50915  0.24800  Biso   1.000  C
  C768     1.0000 0.71643  0.21454  0.48697  Biso   1.000  C
  C769     1.0000 0.51615  0.67058  0.77928  Biso   1.000  C
  C770     1.0000 0.80600  0.46848  0.72070  Biso   1.000  C
  C771     1.0000 0.70062  0.76200  0.50193  Biso   1.000  C
  C772     1.0000 0.98862  0.71321  0.69693  Biso   1.000  C
  C773     1.0000 0.30281  0.44733  0.80708  Biso   1.000  C
  C774     1.0000 0.20382  0.76019  0.00338  Biso   1.000  C
  C775     1.0000 0.05243  0.18423  0.78467  Biso   1.000  C
  C776     1.0000 0.72017  0.99933  0.72001  Biso   1.000  C
  C777     1.0000 0.83670  0.26391  0.49807  Biso   1.000  C
  C778     1.0000 0.55409  0.19842  0.71261  Biso   1.000  C
  C779     1.0000 0.22025  0.98198  0.78635  Biso   1.000  C
  C780     1.0000 0.33727  0.26178  0.00512  Biso   1.000  C
  C781     1.0000 0.54503  0.27735  0.21238  Biso   1.000  C
  C782     1.0000 0.21946  0.51021  0.29597  Biso   1.000  C
  C783     1.0000 0.33056  0.22133  0.52624  Biso   1.000  C
  C784     1.0000 0.03478  0.30325  0.28647  Biso   1.000  C
  C785     1.0000 0.74509  0.49529  0.18935  Biso   1.000  C
  C786     1.0000 0.84037  0.22337  0.99529  Biso   1.000  C
  C787     1.0000 0.01510  0.77002  0.19807  Biso   1.000  C
  C788     1.0000 0.32200  0.98493  0.29388  Biso   1.000  C
  C789     1.0000 0.20557  0.72275  0.49709  Biso   1.000  C
  C790     1.0000 0.50018  0.80833  0.28434  Biso   1.000  C
  C791     1.0000 0.78593  0.01525  0.19278  Biso   1.000  C
  C792     1.0000 0.70496  0.72589  0.99282  Biso   1.000  C
  C793     1.0000 0.50268  0.22054  0.32699  Biso   1.000  C
  C794     1.0000 0.30963  0.47404  0.21992  Biso   1.000  C
  C795     1.0000 0.22218  0.28166  0.47721  Biso   1.000  C
  C796     1.0000 0.03664  0.18607  0.23399  Biso   1.000  C
  C797     1.0000 0.83360  0.50013  0.27469  Biso   1.000  C
  C798     1.0000 0.72887  0.28754  0.02855  Biso   1.000  C
  C799     1.0000 0.99851  0.68295  0.28226  Biso   1.000  C
  C800     1.0000 0.20619  0.95640  0.23447  Biso   1.000  C
  C801     1.0000 0.32021  0.77195  0.53516  Biso   1.000  C
  C802     1.0000 0.48990  0.69482  0.22652  Biso   1.000  C
  C803     1.0000 0.69682  0.97890  0.27252  Biso   1.000  C
  C804     1.0000 0.82140  0.77713  0.99223  Biso   1.000  C
  C805     1.0000 0.49079  0.78615  0.72553  Biso   1.000  C
  C806     1.0000 0.68616  0.49273  0.77590  Biso   1.000  C
  C807     1.0000 0.78526  0.67733  0.52927  Biso   1.000  C
  C808     1.0000 0.98329  0.77470  0.80984  Biso   1.000  C
  C809     1.0000 0.19181  0.49621  0.75274  Biso   1.000  C
  C810     1.0000 0.28098  0.67173  0.02116  Biso   1.000  C
  C811     1.0000 0.03693  0.30557  0.73592  Biso   1.000  C
  C812     1.0000 0.80585  0.99476  0.80691  Biso   1.000  C
  C813     1.0000 0.74720  0.17930  0.51484  Biso   1.000  C
  C814     1.0000 0.51043  0.25248  0.82600  Biso   1.000  C
  C815     1.0000 0.34150  0.00151  0.73767  Biso   1.000  C
  C816     1.0000 0.24887  0.17692  0.00698  Biso   1.000  C
  C817     1.0000 0.01711  0.23381  0.79519  Biso   1.000  C
  C818     1.0000 0.79448  0.98089  0.24400  Biso   1.000  C
  C819     1.0000 0.24685  0.76629  0.04639  Biso   1.000  C
  C820     1.0000 0.51690  0.18795  0.75990  Biso   1.000  C
  C821     1.0000 0.26870  0.95624  0.30056  Biso   1.000  C
  C822     1.0000 0.75578  0.77762  0.52680  Biso   1.000  C
  C823     1.0000 0.47725  0.71436  0.78258  Biso   1.000  C
  C824     1.0000 0.74464  0.53722  0.23613  Biso   1.000  C
  C825     1.0000 0.29405  0.26358  0.04979  Biso   1.000  C
  C826     1.0000 0.02016  0.70650  0.74850  Biso   1.000  C
  C827     1.0000 0.27541  0.48827  0.31261  Biso   1.000  C
  C828     1.0000 0.78328  0.27745  0.52104  Biso   1.000  C
  C829     1.0000 0.98649  0.78028  0.25068  Biso   1.000  C
  C830     1.0000 0.27657  0.00074  0.80087  Biso   1.000  C
  C831     1.0000 0.78449  0.21604  0.01858  Biso   1.000  C
  C832     1.0000 0.52917  0.75362  0.28793  Biso   1.000  C
  C833     1.0000 0.76783  0.96021  0.71165  Biso   1.000  C
  C834     1.0000 0.29049  0.21664  0.47915  Biso   1.000  C
  C835     1.0000 0.51068  0.28705  0.26226  Biso   1.000  C
  C836     1.0000 0.25679  0.48226  0.81601  Biso   1.000  C
  C837     1.0000 0.75500  0.71380  0.02161  Biso   1.000  C
  C838     1.0000 0.00761  0.25002  0.29746  Biso   1.000  C
  C839     1.0000 0.75171  0.49280  0.70598  Biso   1.000  C
  C840     1.0000 0.24624  0.71597  0.54188  Biso   1.000  C
  C841     1.0000 0.24148  0.98100  0.76602  Biso   1.000  C
  C842     1.0000 0.82166  0.24713  0.99633  Biso   1.000  C
  C843     1.0000 0.01693  0.74892  0.22049  Biso   1.000  C
  C844     1.0000 0.74324  0.99973  0.73979  Biso   1.000  C
  C845     1.0000 0.31020  0.24230  0.52118  Biso   1.000  C
  C846     1.0000 0.49982  0.78826  0.26145  Biso   1.000  C
  C847     1.0000 0.28016  0.44746  0.78715  Biso   1.000  C
  C848     1.0000 0.72510  0.74774  0.99645  Biso   1.000  C
  C849     1.0000 0.54299  0.25685  0.23443  Biso   1.000  C
  C850     1.0000 0.78294  0.46692  0.73997  Biso   1.000  C
  C851     1.0000 0.22837  0.74191  0.50027  Biso   1.000  C
  C852     1.0000 0.03571  0.28198  0.26542  Biso   1.000  C
  C853     1.0000 0.76530  0.01218  0.21424  Biso   1.000  C
  C854     1.0000 0.22523  0.74055  0.00779  Biso   1.000  C
  C855     1.0000 0.05102  0.20691  0.76429  Biso   1.000  C
  C856     1.0000 0.30077  0.98697  0.27267  Biso   1.000  C
  C857     1.0000 0.72262  0.74190  0.50376  Biso   1.000  C
  C858     1.0000 0.55051  0.21832  0.73416  Biso   1.000  C
  C859     1.0000 0.76477  0.49431  0.21279  Biso   1.000  C
  C860     1.0000 0.31296  0.24388  0.00409  Biso   1.000  C
  C861     1.0000 0.51684  0.69097  0.75825  Biso   1.000  C
  C862     1.0000 0.24322  0.50795  0.27652  Biso   1.000  C
  C863     1.0000 0.81436  0.24403  0.49585  Biso   1.000  C
  C864     1.0000 0.98863  0.73433  0.71822  Biso   1.000  C
  C865     1.0000 0.74098  0.47218  0.78491  Biso   1.000  C
  C866     1.0000 0.79818  0.73087  0.50086  Biso   1.000  C
  C867     1.0000 0.50861  0.72830  0.71093  Biso   1.000  C
  C868     1.0000 0.23986  0.46310  0.73892  Biso   1.000  C
  C869     1.0000 0.29447  0.72834  0.03966  Biso   1.000  C
  C870     1.0000 0.02581  0.77522  0.76411  Biso   1.000  C
  C871     1.0000 0.81498  0.95958  0.75583  Biso   1.000  C
  C872     1.0000 0.73797  0.23656  0.49166  Biso   1.000  C
  C873     1.0000 0.01989  0.24728  0.72135  Biso   1.000  C
  C874     1.0000 0.28903  0.97169  0.72357  Biso   1.000  C
  C875     1.0000 0.24357  0.22964  0.03784  Biso   1.000  C
  C876     1.0000 0.53750  0.26393  0.77226  Biso   1.000  C
  C877     1.0000 0.31884  0.51132  0.26727  Biso   1.000  C
  C878     1.0000 0.27056  0.28988  0.51068  Biso   1.000  C
  C879     1.0000 0.53824  0.21244  0.27671  Biso   1.000  C
  C880     1.0000 0.78352  0.53299  0.28319  Biso   1.000  C
  C881     1.0000 0.77304  0.28790  0.98749  Biso   1.000  C
  C882     1.0000 0.00695  0.23903  0.22407  Biso   1.000  C
  C883     1.0000 0.25283  0.99541  0.23374  Biso   1.000  C
  C884     1.0000 0.26604  0.79004  0.51236  Biso   1.000  C
  C885     1.0000 0.01635  0.73877  0.29677  Biso   1.000  C
  C886     1.0000 0.74998  0.00973  0.28595  Biso   1.000  C
  C887     1.0000 0.77178  0.78784  0.02780  Biso   1.000  C
  C888     1.0000 0.52617  0.74402  0.21170  Biso   1.000  C
  C889     1.0000 0.71949  0.98058  0.25331  Biso   1.000  C
  C890     1.0000 0.25995  0.69125  0.02353  Biso   1.000  C
  C891     1.0000 0.03833  0.28335  0.75633  Biso   1.000  C
  C892     1.0000 0.22648  0.95362  0.25558  Biso   1.000  C
  C893     1.0000 0.76685  0.70082  0.53091  Biso   1.000  C
  C894     1.0000 0.51669  0.22833  0.80514  Biso   1.000  C
  C895     1.0000 0.81530  0.50343  0.25169  Biso   1.000  C
  C896     1.0000 0.27049  0.19686  0.00837  Biso   1.000  C
  C897     1.0000 0.48761  0.76440  0.74587  Biso   1.000  C
  C898     1.0000 0.28873  0.47619  0.24093  Biso   1.000  C
  C899     1.0000 0.76882  0.20123  0.51740  Biso   1.000  C
  C900     1.0000 0.98567  0.75063  0.78930  Biso   1.000  C
  C901     1.0000 0.31877  0.00286  0.75680  Biso   1.000  C
  C902     1.0000 0.74927  0.26552  0.02850  Biso   1.000  C
  C903     1.0000 0.99508  0.70405  0.26280  Biso   1.000  C
  C904     1.0000 0.78576  0.99486  0.78521  Biso   1.000  C
  C905     1.0000 0.24164  0.26005  0.48024  Biso   1.000  C
  C906     1.0000 0.49397  0.71686  0.24711  Biso   1.000  C
  C907     1.0000 0.21209  0.48842  0.77417  Biso   1.000  C
  C908     1.0000 0.79761  0.75730  0.99334  Biso   1.000  C
  C909     1.0000 0.50620  0.24216  0.30705  Biso   1.000  C
  C910     1.0000 0.70658  0.49515  0.75418  Biso   1.000  C
  C911     1.0000 0.29649  0.75323  0.53575  Biso   1.000  C
  C912     1.0000 0.03639  0.20734  0.25554  Biso   1.000  C
  C913     1.0000 0.75715  0.48070  0.73327  Biso   1.000  C
  C914     1.0000 0.74964  0.75031  0.51513  Biso   1.000  C
  C915     1.0000 0.49671  0.71289  0.75931  Biso   1.000  C
  C916     1.0000 0.25743  0.46552  0.79121  Biso   1.000  C
  C917     1.0000 0.24630  0.74249  0.02844  Biso   1.000  C
  C918     1.0000 0.00424  0.73081  0.74304  Biso   1.000  C
  C919     1.0000 0.76451  0.97899  0.73576  Biso   1.000  C
  C920     1.0000 0.78773  0.25091  0.50729  Biso   1.000  C
  C921     1.0000 0.03428  0.23131  0.77041  Biso   1.000  C
  C922     1.0000 0.27024  0.98980  0.77291  Biso   1.000  C
  C923     1.0000 0.29196  0.24513  0.02605  Biso   1.000  C
  C924     1.0000 0.53276  0.21338  0.75789  Biso   1.000  C
  C925     1.0000 0.27049  0.49983  0.28502  Biso   1.000  C
  C926     1.0000 0.28966  0.24100  0.49755  Biso   1.000  C
  C927     1.0000 0.52574  0.26141  0.25828  Biso   1.000  C
  C928     1.0000 0.76673  0.51736  0.23406  Biso   1.000  C
  C929     1.0000 0.79348  0.24316  0.00855  Biso   1.000  C
  C930     1.0000 0.02051  0.25593  0.27072  Biso   1.000  C
  C931     1.0000 0.27423  0.97271  0.27528  Biso   1.000  C
  C932     1.0000 0.24791  0.73965  0.52252  Biso   1.000  C
  C933     1.0000 0.00219  0.75508  0.24646  Biso   1.000  C
  C934     1.0000 0.76908  0.99473  0.23892  Biso   1.000  C
  C935     1.0000 0.74987  0.74071  0.01012  Biso   1.000  C
  C936     1.0000 0.51437  0.76194  0.26310  Biso   1.000  C
  C937     1.0000 0.77157  0.26545  0.00862  Biso   1.000  C
  C938     1.0000 0.00474  0.73176  0.26943  Biso   1.000  C
  C939     1.0000 0.29296  0.98865  0.75040  Biso   1.000  C
  C940     1.0000 0.26700  0.26447  0.49504  Biso   1.000  C
  C941     1.0000 0.51258  0.74100  0.23842  Biso   1.000  C
  C942     1.0000 0.78917  0.97694  0.75940  Biso   1.000  C
  C943     1.0000 0.77437  0.76158  0.01151  Biso   1.000  C
  C944     1.0000 0.52393  0.23942  0.28112  Biso   1.000  C
  C945     1.0000 0.23533  0.47114  0.76846  Biso   1.000  C
  C946     1.0000 0.27091  0.76220  0.52343  Biso   1.000  C
  C947     1.0000 0.02098  0.23325  0.24960  Biso   1.000  C
  C948     1.0000 0.73382  0.48236  0.75707  Biso   1.000  C
  C949     1.0000 0.26797  0.71984  0.02981  Biso   1.000  C
  C950     1.0000 0.03129  0.25434  0.74864  Biso   1.000  C
  C951     1.0000 0.74571  0.99347  0.26060  Biso   1.000  C
  C952     1.0000 0.77193  0.72755  0.51629  Biso   1.000  C
  C953     1.0000 0.52797  0.23634  0.77884  Biso   1.000  C
  C954     1.0000 0.24949  0.97347  0.25415  Biso   1.000  C
  C955     1.0000 0.26892  0.22309  0.02479  Biso   1.000  C
  C956     1.0000 0.49689  0.73583  0.73771  Biso   1.000  C
  C957     1.0000 0.78905  0.51781  0.25704  Biso   1.000  C
  C958     1.0000 0.76388  0.22908  0.50557  Biso   1.000  C
  C959     1.0000 0.00608  0.75266  0.76668  Biso   1.000  C
  C960     1.0000 0.29183  0.49652  0.26226  Biso   1.000  C
  Cu1      1.0000 0.00138  0.49079  0.66391  Biso   1.000  Cu
  Cu2      1.0000 0.67499  0.98953  0.49770  Biso   1.000  Cu
  Cu3      1.0000 0.50932  0.64472  0.00528  Biso   1.000  Cu
  Cu4      1.0000 0.49878  0.47743  0.85617  Biso   1.000  Cu
  Cu5      1.0000 0.17498  0.98809  0.01563  Biso   1.000  Cu
  Cu6      1.0000 0.01174  0.64504  0.50645  Biso   1.000  Cu
  Cu7      1.0000 0.52773  0.98011  0.66542  Biso   1.000  Cu
  Cu8      1.0000 0.86546  0.49151  0.50354  Biso   1.000  Cu
  Cu9      1.0000 0.02854  0.14343  0.00908  Biso   1.000  Cu
  Cu10     1.0000 0.02761  0.99046  0.85520  Biso   1.000  Cu
  Cu11     1.0000 0.36616  0.48117  0.02180  Biso   1.000  Cu
  Cu12     1.0000 0.52211  0.14421  0.51506  Biso   1.000  Cu
  Cu13     1.0000 0.02169  0.49558  0.35515  Biso   1.000  Cu
  Cu14     1.0000 0.36627  0.99525  0.51381  Biso   1.000  Cu
  Cu15     1.0000 0.53074  0.33489  0.01399  Biso   1.000  Cu
  Cu16     1.0000 0.52846  0.49624  0.16740  Biso   1.000  Cu
  Cu17     1.0000 0.86524  0.99905  0.99998  Biso   1.000  Cu
  Cu18     1.0000 0.02581  0.34078  0.51195  Biso   1.000  Cu
  Cu19     1.0000 0.50932  0.99967  0.35140  Biso   1.000  Cu
  Cu20     1.0000 0.17050  0.49937  0.52378  Biso   1.000  Cu
  Cu21     1.0000 0.01539  0.83968  0.00297  Biso   1.000  Cu
  Cu22     1.0000 0.01491  0.99415  0.16015  Biso   1.000  Cu
  Cu23     1.0000 0.66728  0.49464  0.00142  Biso   1.000  Cu
  Cu24     1.0000 0.51169  0.84149  0.50633  Biso   1.000  Cu
  Cu25     1.0000 0.22743  0.98697  0.01893  Biso   1.000  Cu
  Cu26     1.0000 0.02771  0.19815  0.00746  Biso   1.000  Cu
  Cu27     1.0000 0.01010  0.99405  0.21562  Biso   1.000  Cu
  Cu28     1.0000 0.72887  0.98713  0.49299  Biso   1.000  Cu
  Cu29     1.0000 0.52467  0.19870  0.51658  Biso   1.000  Cu
  Cu30     1.0000 0.50550  0.99871  0.29884  Biso   1.000  Cu
  Cu31     1.0000 0.31305  0.47570  0.02663  Biso   1.000  Cu
  Cu32     1.0000 0.50596  0.69894  0.99925  Biso   1.000  Cu
  Cu33     1.0000 0.53155  0.50433  0.21872  Biso   1.000  Cu
  Cu34     1.0000 0.81205  0.48482  0.49507  Biso   1.000  Cu
  Cu35     1.0000 0.00845  0.69775  0.50793  Biso   1.000  Cu
  Cu36     1.0000 0.02815  0.49396  0.30073  Biso   1.000  Cu
  Cu37     1.0000 0.81032  0.99951  0.99730  Biso   1.000  Cu
  Cu38     1.0000 0.01100  0.78470  0.00329  Biso   1.000  Cu
  Cu39     1.0000 0.03043  0.98977  0.80156  Biso   1.000  Cu
  Cu40     1.0000 0.31171  0.99562  0.51784  Biso   1.000  Cu
  Cu41     1.0000 0.51152  0.78626  0.50188  Biso   1.000  Cu
  Cu42     1.0000 0.53131  0.97842  0.71918  Biso   1.000  Cu
  Cu43     1.0000 0.72002  0.50205  0.99585  Biso   1.000  Cu
  Cu44     1.0000 0.53374  0.28116  0.01878  Biso   1.000  Cu
  Cu45     1.0000 0.49718  0.47375  0.80095  Biso   1.000  Cu
  Cu46     1.0000 0.22470  0.50517  0.52388  Biso   1.000  Cu
  Cu47     1.0000 0.02951  0.28647  0.51067  Biso   1.000  Cu
  Cu48     1.0000 0.99637  0.48965  0.71819  Biso   1.000  Cu
  H1       1.0000 0.24508  0.79674  0.50340  Biso   1.000  H
  H2       1.0000 0.54449  0.26994  0.75027  Biso   1.000  H
  H3       1.0000 0.76414  0.54493  0.28780  Biso   1.000  H
  H4       1.0000 0.75534  0.78950  0.04435  Biso   1.000  H
  H5       1.0000 0.01386  0.22573  0.71784  Biso   1.000  H
  H6       1.0000 0.32157  0.52723  0.28482  Biso   1.000  H
  H7       1.0000 0.29061  0.29308  0.52279  Biso   1.000  H
  H8       1.0000 0.04245  0.77442  0.74934  Biso   1.000  H
  H9       1.0000 0.77022  0.02185  0.29184  Biso   1.000  H
  H10      1.0000 0.78993  0.28824  0.97117  Biso   1.000  H
  H11      1.0000 0.51785  0.70790  0.70369  Biso   1.000  H
  H12      1.0000 0.27170  0.01037  0.23577  Biso   1.000  H
  H13      1.0000 0.73537  0.25699  0.48202  Biso   1.000  H
  H14      1.0000 0.53909  0.76230  0.20682  Biso   1.000  H
  H15      1.0000 0.26046  0.45049  0.73345  Biso   1.000  H
  H16      1.0000 0.24101  0.24907  0.05352  Biso   1.000  H
  H17      1.0000 0.02276  0.76206  0.30221  Biso   1.000  H
  H18      1.0000 0.76350  0.46386  0.78807  Biso   1.000  H
  H19      1.0000 0.80117  0.75003  0.48858  Biso   1.000  H
  H20      1.0000 0.99495  0.25876  0.21961  Biso   1.000  H
  H21      1.0000 0.26872  0.96266  0.72142  Biso   1.000  H
  H22      1.0000 0.30034  0.74988  0.04927  Biso   1.000  H
  H23      1.0000 0.55114  0.20673  0.25758  Biso   1.000  H
  H24      1.0000 0.81481  0.94260  0.73930  Biso   1.000  H
  H25      1.0000 0.29840  0.00994  0.80546  Biso   1.000  H
  H26      1.0000 0.76309  0.21252  0.02713  Biso   1.000  H
  H27      1.0000 0.97566  0.78495  0.27208  Biso   1.000  H
  H28      1.0000 0.78738  0.94898  0.70767  Biso   1.000  H
  H29      1.0000 0.27750  0.21421  0.45748  Biso   1.000  H
  H30      1.0000 0.54150  0.73356  0.28935  Biso   1.000  H
  H31      1.0000 0.23994  0.49946  0.82115  Biso   1.000  H
  H32      1.0000 0.77673  0.70730  0.02717  Biso   1.000  H
  H33      1.0000 0.50036  0.29206  0.28241  Biso   1.000  H
  H34      1.0000 0.73176  0.50233  0.70196  Biso   1.000  H
  H35      1.0000 0.26332  0.71425  0.55803  Biso   1.000  H
  H36      1.0000 0.99694  0.22978  0.30097  Biso   1.000  H
  H37      1.0000 0.79933  0.97040  0.26516  Biso   1.000  H
  H38      1.0000 0.26501  0.76711  0.06231  Biso   1.000  H
  H39      1.0000 0.00621  0.25396  0.80128  Biso   1.000  H
  H40      1.0000 0.24751  0.94548  0.30553  Biso   1.000  H
  H41      1.0000 0.77721  0.78320  0.53418  Biso   1.000  H
  H42      1.0000 0.50313  0.18410  0.77914  Biso   1.000  H
  H43      1.0000 0.74275  0.55355  0.25277  Biso   1.000  H
  H44      1.0000 0.28035  0.26147  0.06928  Biso   1.000  H
  H45      1.0000 0.46032  0.72979  0.78297  Biso   1.000  H
  H46      1.0000 0.29693  0.48255  0.31882  Biso   1.000  H
  H47      1.0000 0.76227  0.28160  0.53087  Biso   1.000  H
  H48      1.0000 0.03340  0.70724  0.76809  Biso   1.000  H
  H49      1.0000 0.23995  0.51180  0.25286  Biso   1.000  H
  H50      1.0000 0.30924  0.25959  0.53578  Biso   1.000  H
  H51      1.0000 0.55759  0.23851  0.22985  Biso   1.000  H
  H52      1.0000 0.78063  0.47829  0.21401  Biso   1.000  H
  H53      1.0000 0.82908  0.26870  0.99553  Biso   1.000  H
  H54      1.0000 0.04453  0.28973  0.24371  Biso   1.000  H
  H55      1.0000 0.30648  0.00114  0.25331  Biso   1.000  H
  H56      1.0000 0.22764  0.75947  0.48415  Biso   1.000  H
  H57      1.0000 0.02791  0.72776  0.21797  Biso   1.000  H
  H58      1.0000 0.74553  0.02600  0.21343  Biso   1.000  H
  H59      1.0000 0.72207  0.76777  0.98659  Biso   1.000  H
  H60      1.0000 0.48816  0.79243  0.24103  Biso   1.000  H
  H61      1.0000 0.78536  0.45356  0.76007  Biso   1.000  H
  H62      1.0000 0.71885  0.71911  0.50117  Biso   1.000  H
  H63      1.0000 0.53409  0.69318  0.74156  Biso   1.000  H
  H64      1.0000 0.28208  0.43254  0.76983  Biso   1.000  H
  H65      1.0000 0.22643  0.72176  0.99457  Biso   1.000  H
  H66      1.0000 0.97556  0.75352  0.71682  Biso   1.000  H
  H67      1.0000 0.74349  0.01594  0.75696  Biso   1.000  H
  H68      1.0000 0.81769  0.22125  0.48946  Biso   1.000  H
  H69      1.0000 0.06220  0.20712  0.74455  Biso   1.000  H
  H70      1.0000 0.23344  0.97610  0.74448  Biso   1.000  H
  H71      1.0000 0.30928  0.22874  0.98622  Biso   1.000  H
  H72      1.0000 0.56187  0.23803  0.73337  Biso   1.000  H
  H73      1.0000 0.70136  0.50584  0.73361  Biso   1.000  H
  H74      1.0000 0.74593  0.69851  0.54204  Biso   1.000  H
  H75      1.0000 0.47782  0.76937  0.76677  Biso   1.000  H
  H76      1.0000 0.20652  0.49570  0.79658  Biso   1.000  H
  H77      1.0000 0.23710  0.68366  0.01881  Biso   1.000  H
  H78      1.0000 0.97282  0.73088  0.79112  Biso   1.000  H
  H79      1.0000 0.76607  0.00906  0.78985  Biso   1.000  H
  H80      1.0000 0.78870  0.19526  0.52718  Biso   1.000  H
  H81      1.0000 0.04681  0.28740  0.77810  Biso   1.000  H
  H82      1.0000 0.32354  0.01831  0.77714  Biso   1.000  H
  H83      1.0000 0.29098  0.18859  0.99971  Biso   1.000  H
  H84      1.0000 0.51333  0.20524  0.81206  Biso   1.000  H
  H85      1.0000 0.26748  0.46408  0.23825  Biso   1.000  H
  H86      1.0000 0.23675  0.24011  0.46871  Biso   1.000  H
  H87      1.0000 0.49056  0.26178  0.31042  Biso   1.000  H
  H88      1.0000 0.82144  0.49523  0.22938  Biso   1.000  H
  H89      1.0000 0.74905  0.25006  0.04615  Biso   1.000  H
  H90      1.0000 0.04745  0.20613  0.27809  Biso   1.000  H
  H91      1.0000 0.22293  0.93622  0.27093  Biso   1.000  H
  H92      1.0000 0.30058  0.73084  0.54356  Biso   1.000  H
  H93      1.0000 0.98576  0.69828  0.24204  Biso   1.000  H
  H94      1.0000 0.71835  0.97089  0.23220  Biso   1.000  H
  H95      1.0000 0.79780  0.73893  0.97736  Biso   1.000  H
  H96      1.0000 0.48131  0.71919  0.26631  Biso   1.000  H
  H97      1.0000 0.88604  0.98552  0.91382  Biso   1.000  H
  H98      1.0000 0.92227  0.86367  0.99936  Biso   1.000  H
  H99      1.0000 0.02620  0.90032  0.87150  Biso   1.000  H
  H100     1.0000 0.39671  0.99654  0.60096  Biso   1.000  H
  H101     1.0000 0.42581  0.86042  0.50441  Biso   1.000  H
  H102     1.0000 0.51881  0.89183  0.64603  Biso   1.000  H
  H103     1.0000 0.63707  0.49159  0.91360  Biso   1.000  H
  H104     1.0000 0.62144  0.36166  0.00774  Biso   1.000  H
  H105     1.0000 0.51276  0.38577  0.88036  Biso   1.000  H
  H106     1.0000 0.14218  0.50111  0.61571  Biso   1.000  H
  H107     1.0000 0.11846  0.36538  0.51254  Biso   1.000  H
  H108     1.0000 0.00661  0.40303  0.64257  Biso   1.000  H
  H109     1.0000 0.15135  0.00085  0.10388  Biso   1.000  H
  H110     1.0000 0.11451  0.12265  0.01958  Biso   1.000  H
  H111     1.0000 0.02791  0.08425  0.14368  Biso   1.000  H
  H112     1.0000 0.64374  0.99657  0.40923  Biso   1.000  H
  H113     1.0000 0.61491  0.12137  0.50218  Biso   1.000  H
  H114     1.0000 0.50266  0.08611  0.37470  Biso   1.000  H
  H115     1.0000 0.39072  0.48333  0.11041  Biso   1.000  H
  H116     1.0000 0.42231  0.61995  0.01230  Biso   1.000  H
  H117     1.0000 0.50526  0.58568  0.14076  Biso   1.000  H
  H118     1.0000 0.89588  0.49586  0.40736  Biso   1.000  H
  H119     1.0000 0.91597  0.61870  0.51507  Biso   1.000  H
  H120     1.0000 0.03249  0.58676  0.37531  Biso   1.000  H
  H121     1.0000 0.11689  0.98164  0.87522  Biso   1.000  H
  H122     1.0000 0.88639  0.08427  0.99870  Biso   1.000  H
  H123     1.0000 0.00414  0.86274  0.09753  Biso   1.000  H
  H124     1.0000 0.61874  0.98451  0.63372  Biso   1.000  H
  H125     1.0000 0.38758  0.08622  0.51877  Biso   1.000  H
  H126     1.0000 0.52498  0.86521  0.41809  Biso   1.000  H
  H127     1.0000 0.41446  0.47077  0.88480  Biso   1.000  H
  H128     1.0000 0.64178  0.59133  0.00072  Biso   1.000  H
  H129     1.0000 0.53812  0.36014  0.10164  Biso   1.000  H
  H130     1.0000 0.91169  0.48556  0.64115  Biso   1.000  H
  H131     1.0000 0.14368  0.58817  0.50940  Biso   1.000  H
  H132     1.0000 0.01864  0.36342  0.41746  Biso   1.000  H
  H133     1.0000 0.91945  0.00858  0.13483  Biso   1.000  H
  H134     1.0000 0.15144  0.89722  0.01066  Biso   1.000  H
  H135     1.0000 0.03023  0.12161  0.91666  Biso   1.000  H
  H136     1.0000 0.42032  0.97859  0.38268  Biso   1.000  H
  H137     1.0000 0.65007  0.89902  0.50598  Biso   1.000  H
  H138     1.0000 0.53036  0.11794  0.60270  Biso   1.000  H
  H139     1.0000 0.61673  0.50679  0.13565  Biso   1.000  H
  H140     1.0000 0.39750  0.38948  0.01823  Biso   1.000  H
  H141     1.0000 0.49810  0.61155  0.91060  Biso   1.000  H
  H142     1.0000 0.11159  0.50139  0.38350  Biso   1.000  H
  H143     1.0000 0.89211  0.39848  0.48962  Biso   1.000  H
  H144     1.0000 0.00855  0.61847  0.59961  Biso   1.000  H
  H145     1.0000 0.59225  0.48986  0.87077  Biso   1.000  H
  H146     1.0000 0.87792  0.57814  0.51855  Biso   1.000  H
  H147     1.0000 0.51565  0.85023  0.59810  Biso   1.000  H
  H148     1.0000 0.09933  0.49445  0.64857  Biso   1.000  H
  H149     1.0000 0.38284  0.57718  0.01909  Biso   1.000  H
  H150     1.0000 0.02127  0.85802  0.91139  Biso   1.000  H
  H151     1.0000 0.93195  0.99808  0.87471  Biso   1.000  H
  H152     1.0000 0.65456  0.07922  0.49826  Biso   1.000  H
  H153     1.0000 0.02050  0.36131  0.60025  Biso   1.000  H
  H154     1.0000 0.44271  0.98933  0.64792  Biso   1.000  H
  H155     1.0000 0.15668  0.08033  0.01281  Biso   1.000  H
  H156     1.0000 0.51305  0.35082  0.92419  Biso   1.000  H
  H157     1.0000 0.43738  0.47602  0.15343  Biso   1.000  H
  H158     1.0000 0.15812  0.40685  0.51854  Biso   1.000  H
  H159     1.0000 0.50316  0.12329  0.42149  Biso   1.000  H
  H160     1.0000 0.93766  0.49940  0.36384  Biso   1.000  H
  H161     1.0000 0.65753  0.40634  0.99616  Biso   1.000  H
  H162     1.0000 0.01764  0.12607  0.10010  Biso   1.000  H
  H163     1.0000 0.10498  0.99098  0.14655  Biso   1.000  H
  H164     1.0000 0.38202  0.90463  0.51723  Biso   1.000  H
  H165     1.0000 0.01443  0.62797  0.41959  Biso   1.000  H
  H166     1.0000 0.59519  0.99748  0.36716  Biso   1.000  H
  H167     1.0000 0.87958  0.90873  0.01782  Biso   1.000  H
  H168     1.0000 0.50530  0.62986  0.09595  Biso   1.000  H
  H169     1.0000 0.04293  0.08413  0.87744  Biso   1.000  H
  H170     1.0000 0.88093  0.00818  0.09225  Biso   1.000  H
  H171     1.0000 0.10593  0.85283  0.99857  Biso   1.000  H
  H172     1.0000 0.54279  0.06988  0.64617  Biso   1.000  H
  H173     1.0000 0.37925  0.98361  0.42394  Biso   1.000  H
  H174     1.0000 0.60643  0.86106  0.50778  Biso   1.000  H
  H175     1.0000 0.50240  0.56905  0.87045  Biso   1.000  H
  H176     1.0000 0.65683  0.48973  0.09374  Biso   1.000  H
  H177     1.0000 0.43774  0.35160  0.01043  Biso   1.000  H
  H178     1.0000 0.00443  0.57933  0.64524  Biso   1.000  H
  H179     1.0000 0.15183  0.50097  0.43024  Biso   1.000  H
  H180     1.0000 0.93742  0.35506  0.50568  Biso   1.000  H
  H181     1.0000 0.00597  0.90214  0.14005  Biso   1.000  H
  H182     1.0000 0.16051  0.98163  0.92089  Biso   1.000  H
  H183     1.0000 0.93204  0.12429  0.00178  Biso   1.000  H
  H184     1.0000 0.52195  0.90916  0.37242  Biso   1.000  H
  H185     1.0000 0.66015  0.98117  0.58955  Biso   1.000  H
  H186     1.0000 0.43294  0.12614  0.51243  Biso   1.000  H
  H187     1.0000 0.53678  0.40774  0.14949  Biso   1.000  H
  H188     1.0000 0.38026  0.48303  0.92714  Biso   1.000  H
  H189     1.0000 0.60230  0.63154  0.00158  Biso   1.000  H
  H190     1.0000 0.01648  0.40614  0.37804  Biso   1.000  H
  H191     1.0000 0.87650  0.48635  0.59424  Biso   1.000  H
  H192     1.0000 0.10128  0.63153  0.50741  Biso   1.000  H
  H193     1.0000 0.28865  0.85227  0.53896  Biso   1.000  H
  H194     1.0000 0.53041  0.25220  0.87552  Biso   1.000  H
  H195     1.0000 0.88572  0.51842  0.26831  Biso   1.000  H
  H196     1.0000 0.78255  0.85715  0.01392  Biso   1.000  H
  H197     1.0000 0.04568  0.26870  0.65714  Biso   1.000  H
  H198     1.0000 0.38721  0.47565  0.25351  Biso   1.000  H
  H199     1.0000 0.25579  0.36277  0.50096  Biso   1.000  H
  H200     1.0000 0.00838  0.75948  0.85767  Biso   1.000  H
  H201     1.0000 0.64705  0.00596  0.27054  Biso   1.000  H
  H202     1.0000 0.75810  0.36490  0.00140  Biso   1.000  H
  H203     1.0000 0.49511  0.74889  0.64116  Biso   1.000  H
  H204     1.0000 0.15568  0.97404  0.24459  Biso   1.000  H
  H205     1.0000 0.75140  0.13184  0.48229  Biso   1.000  H
  H206     1.0000 0.48634  0.72619  0.14612  Biso   1.000  H
  H207     1.0000 0.13683  0.48149  0.75109  Biso   1.000  H
  H208     1.0000 0.25338  0.13091  0.03289  Biso   1.000  H
  H209     1.0000 0.98868  0.71952  0.36418  Biso   1.000  H
  H210     1.0000 0.63733  0.46216  0.77445  Biso   1.000  H
  H211     1.0000 0.78083  0.63047  0.51034  Biso   1.000  H
  H212     1.0000 0.02487  0.22357  0.15239  Biso   1.000  H
  H213     1.0000 0.38902  0.97574  0.74217  Biso   1.000  H
  H214     1.0000 0.28104  0.61805  0.03249  Biso   1.000  H
  H215     1.0000 0.52409  0.22423  0.37409  Biso   1.000  H
  H216     1.0000 0.88743  0.98709  0.77440  Biso   1.000  H
  H217     1.0000 0.25414  0.50492  0.38444  Biso   1.000  H
  H218     1.0000 0.38527  0.22595  0.51787  Biso   1.000  H
  H219     1.0000 0.53604  0.35605  0.24483  Biso   1.000  H
  H220     1.0000 0.75297  0.51749  0.13976  Biso   1.000  H
  H221     1.0000 0.88732  0.22211  0.02100  Biso   1.000  H
  H222     1.0000 0.01121  0.35226  0.27907  Biso   1.000  H
  H223     1.0000 0.28102  0.97298  0.37877  Biso   1.000  H
  H224     1.0000 0.15101  0.73170  0.49964  Biso   1.000  H
  H225     1.0000 0.00862  0.84808  0.23547  Biso   1.000  H
  H226     1.0000 0.78177  0.99705  0.14361  Biso   1.000  H
  H227     1.0000 0.65109  0.72996  0.00835  Biso   1.000  H
  H228     1.0000 0.52711  0.85220  0.27652  Biso   1.000  H
  H229     1.0000 0.77402  0.47024  0.63826  Biso   1.000  H
  H230     1.0000 0.64673  0.75928  0.52017  Biso   1.000  H
  H231     1.0000 0.49396  0.62052  0.77133  Biso   1.000  H
  H232     1.0000 0.27870  0.46285  0.88679  Biso   1.000  H
  H233     1.0000 0.15144  0.75579  0.00993  Biso   1.000  H
  H234     1.0000 0.99678  0.63990  0.73741  Biso   1.000  H
  H235     1.0000 0.75800  0.98583  0.64182  Biso   1.000  H
  H236     1.0000 0.88128  0.25986  0.52354  Biso   1.000  H
  H237     1.0000 0.03316  0.13086  0.77808  Biso   1.000  H
  H238     1.0000 0.25856  0.99167  0.87457  Biso   1.000  H
  H239     1.0000 0.38778  0.25207  0.01639  Biso   1.000  H
  H240     1.0000 0.54551  0.12304  0.74423  Biso   1.000  H
  H241     1.0000 0.72631  0.50708  0.85161  Biso   1.000  H
  H242     1.0000 0.86786  0.71480  0.51736  Biso   1.000  H
  H243     1.0000 0.51891  0.83102  0.73521  Biso   1.000  H
  H244     1.0000 0.23646  0.49447  0.66865  Biso   1.000  H
  H245     1.0000 0.36298  0.71284  0.00744  Biso   1.000  H
  H246     1.0000 0.00066  0.84933  0.77401  Biso   1.000  H
  H247     1.0000 0.79720  0.97150  0.85021  Biso   1.000  H
  H248     1.0000 0.66740  0.22079  0.50422  Biso   1.000  H
  H249     1.0000 0.01230  0.34830  0.74051  Biso   1.000  H
  H250     1.0000 0.30446  0.00214  0.66139  Biso   1.000  H
  H251     1.0000 0.17418  0.21791  0.01275  Biso   1.000  H
  H252     1.0000 0.50280  0.32881  0.78429  Biso   1.000  H
  H253     1.0000 0.29968  0.49517  0.17118  Biso   1.000  H
  H254     1.0000 0.17492  0.27288  0.49918  Biso   1.000  H
  H255     1.0000 0.49398  0.14565  0.28434  Biso   1.000  H
  H256     1.0000 0.79983  0.50956  0.35624  Biso   1.000  H
  H257     1.0000 0.68050  0.27128  0.01313  Biso   1.000  H
  H258     1.0000 0.02103  0.13708  0.23966  Biso   1.000  H
  H259     1.0000 0.24083  0.97830  0.16340  Biso   1.000  H
  H260     1.0000 0.36386  0.76659  0.50455  Biso   1.000  H
  H261     1.0000 0.03006  0.63911  0.28101  Biso   1.000  H
  H262     1.0000 0.73015  0.97748  0.34650  Biso   1.000  H
  H263     1.0000 0.86977  0.76664  0.00953  Biso   1.000  H
  H264     1.0000 0.51282  0.64245  0.23361  Biso   1.000  H
  H265     1.0000 0.03795  0.22124  0.86745  Biso   1.000  H
  H266     1.0000 0.86395  0.00648  0.22899  Biso   1.000  H
  H267     1.0000 0.23972  0.83883  0.02030  Biso   1.000  H
  H268     1.0000 0.52938  0.20939  0.66500  Biso   1.000  H
  H269     1.0000 0.36397  0.96231  0.28615  Biso   1.000  H
  H270     1.0000 0.74336  0.84405  0.49710  Biso   1.000  H
  H271     1.0000 0.49608  0.70879  0.85630  Biso   1.000  H
  H272     1.0000 0.67436  0.52682  0.22985  Biso   1.000  H
  H273     1.0000 0.30510  0.33221  0.03463  Biso   1.000  H
  H274     1.0000 0.01146  0.71704  0.65099  Biso   1.000  H
  H275     1.0000 0.16931  0.48987  0.28766  Biso   1.000  H
  H276     1.0000 0.80088  0.34032  0.48892  Biso   1.000  H
  H277     1.0000 0.99625  0.76168  0.14644  Biso   1.000  H
  H278     1.0000 0.17405  0.00413  0.78363  Biso   1.000  H
  H279     1.0000 0.79562  0.14238  0.99117  Biso   1.000  H
  H280     1.0000 0.51335  0.76789  0.36496  Biso   1.000  H
  H281     1.0000 0.67401  0.97283  0.72797  Biso   1.000  H
  H282     1.0000 0.29525  0.14312  0.50104  Biso   1.000  H
  H283     1.0000 0.52357  0.27080  0.16225  Biso   1.000  H
  H284     1.0000 0.35321  0.45856  0.79280  Biso   1.000  H
  H285     1.0000 0.74015  0.64595  0.00703  Biso   1.000  H
  H286     1.0000 0.02289  0.26619  0.36739  Biso   1.000  H
  H287     1.0000 0.84873  0.49355  0.73162  Biso   1.000  H
  H288     1.0000 0.23848  0.64505  0.51363  Biso   1.000  H
  H289     1.0000 0.12133  0.22130  0.01218  Biso   1.000  H
  H290     1.0000 0.01997  0.08131  0.23866  Biso   1.000  H
  H291     1.0000 0.24530  0.99207  0.10723  Biso   1.000  H
  H292     1.0000 0.61257  0.21624  0.51502  Biso   1.000  H
  H293     1.0000 0.47848  0.09515  0.28225  Biso   1.000  H
  H294     1.0000 0.73750  0.98036  0.40212  Biso   1.000  H
  H295     1.0000 0.41753  0.71284  0.00230  Biso   1.000  H
  H296     1.0000 0.51182  0.59267  0.23410  Biso   1.000  H
  H297     1.0000 0.29690  0.49665  0.11843  Biso   1.000  H
  H298     1.0000 0.92064  0.71330  0.51916  Biso   1.000  H
  H299     1.0000 0.03483  0.58030  0.28113  Biso   1.000  H
  H300     1.0000 0.80100  0.49750  0.40985  Biso   1.000  H
  H301     1.0000 0.92265  0.76943  0.00166  Biso   1.000  H
  H302     1.0000 0.01526  0.90320  0.77606  Biso   1.000  H
  H303     1.0000 0.79226  0.97551  0.90810  Biso   1.000  H
  H304     1.0000 0.41434  0.76443  0.49276  Biso   1.000  H
  H305     1.0000 0.52265  0.88361  0.74008  Biso   1.000  H
  H306     1.0000 0.30239  0.00987  0.60834  Biso   1.000  H
  H307     1.0000 0.62494  0.26652  0.01422  Biso   1.000  H
  H308     1.0000 0.49646  0.38362  0.78394  Biso   1.000  H
  H309     1.0000 0.72725  0.51679  0.90123  Biso   1.000  H
  H310     1.0000 0.11783  0.27160  0.50607  Biso   1.000  H
  H311     1.0000 0.99683  0.40029  0.73744  Biso   1.000  H
  H312     1.0000 0.23915  0.50256  0.61931  Biso   1.000  H
  H313     1.0000 0.25556  0.98427  0.92693  Biso   1.000  H
  H314     1.0000 0.93791  0.21817  0.02739  Biso   1.000  H
  H315     1.0000 0.01520  0.90247  0.23427  Biso   1.000  H
  H316     1.0000 0.75371  0.99027  0.58751  Biso   1.000  H
  H317     1.0000 0.43541  0.22382  0.52014  Biso   1.000  H
  H318     1.0000 0.52849  0.90668  0.27458  Biso   1.000  H
  H319     1.0000 0.28238  0.46975  0.93715  Biso   1.000  H
  H320     1.0000 0.59910  0.72711  0.00822  Biso   1.000  H
  H321     1.0000 0.54504  0.40838  0.24580  Biso   1.000  H
  H322     1.0000 0.78090  0.47007  0.58239  Biso   1.000  H
  H323     1.0000 0.09720  0.72560  0.49628  Biso   1.000  H
  H324     1.0000 0.01361  0.40474  0.28263  Biso   1.000  H
  H325     1.0000 0.78611  0.99867  0.08603  Biso   1.000  H
  H326     1.0000 0.09784  0.76036  0.00511  Biso   1.000  H
  H327     1.0000 0.04142  0.07688  0.78075  Biso   1.000  H
  H328     1.0000 0.28601  0.97739  0.43493  Biso   1.000  H
  H329     1.0000 0.59525  0.76687  0.51821  Biso   1.000  H
  H330     1.0000 0.54923  0.06823  0.74280  Biso   1.000  H
  H331     1.0000 0.75047  0.50326  0.08289  Biso   1.000  H
  H332     1.0000 0.44272  0.25493  0.01620  Biso   1.000  H
  H333     1.0000 0.50034  0.56807  0.77474  Biso   1.000  H
  H334     1.0000 0.25055  0.50378  0.43145  Biso   1.000  H
  H335     1.0000 0.93428  0.26162  0.53013  Biso   1.000  H
  H336     1.0000 0.00186  0.58505  0.74143  Biso   1.000  H
  H337     1.0000 0.03860  0.21658  0.92055  Biso   1.000  H
  H338     1.0000 0.91779  0.00564  0.23314  Biso   1.000  H
  H339     1.0000 0.24430  0.89435  0.02040  Biso   1.000  H
  H340     1.0000 0.52944  0.21233  0.61060  Biso   1.000  H
  H341     1.0000 0.41923  0.96267  0.28803  Biso   1.000  H
  H342     1.0000 0.74373  0.89424  0.49337  Biso   1.000  H
  H343     1.0000 0.49006  0.71065  0.90966  Biso   1.000  H
  H344     1.0000 0.62233  0.52148  0.23099  Biso   1.000  H
  H345     1.0000 0.30128  0.38697  0.03670  Biso   1.000  H
  H346     1.0000 0.02177  0.71578  0.59779  Biso   1.000  H
  H347     1.0000 0.11701  0.48635  0.29035  Biso   1.000  H
  H348     1.0000 0.79831  0.39631  0.48267  Biso   1.000  H
  H349     1.0000 0.99658  0.76662  0.09236  Biso   1.000  H
  H350     1.0000 0.11829  0.00439  0.78336  Biso   1.000  H
  H351     1.0000 0.79378  0.08967  0.99155  Biso   1.000  H
  H352     1.0000 0.51458  0.76863  0.41704  Biso   1.000  H
  H353     1.0000 0.62051  0.96611  0.72825  Biso   1.000  H
  H354     1.0000 0.29120  0.09081  0.50613  Biso   1.000  H
  H355     1.0000 0.52610  0.26603  0.10702  Biso   1.000  H
  H356     1.0000 0.40540  0.46777  0.78671  Biso   1.000  H
  H357     1.0000 0.73676  0.59272  0.99941  Biso   1.000  H
  H358     1.0000 0.02822  0.26708  0.42296  Biso   1.000  H
  H359     1.0000 0.90286  0.49446  0.73844  Biso   1.000  H
  H360     1.0000 0.23759  0.59411  0.52100  Biso   1.000  H
  H361     1.0000 0.98419  0.71705  0.41794  Biso   1.000  H
  H362     1.0000 0.44393  0.97296  0.74112  Biso   1.000  H
  H363     1.0000 0.75366  0.41400  0.00178  Biso   1.000  H
  H364     1.0000 0.48842  0.72329  0.08932  Biso   1.000  H
  H365     1.0000 0.93561  0.98996  0.77551  Biso   1.000  H
  H366     1.0000 0.25419  0.41632  0.50543  Biso   1.000  H
  H367     1.0000 0.51978  0.22046  0.42594  Biso   1.000  H
  H368     1.0000 0.08673  0.47584  0.74429  Biso   1.000  H
  H369     1.0000 0.78721  0.91397  0.01159  Biso   1.000  H
  H370     1.0000 0.02424  0.22206  0.09620  Biso   1.000  H
  H371     1.0000 0.58600  0.46489  0.77890  Biso   1.000  H
  H372     1.0000 0.29237  0.90877  0.54343  Biso   1.000  H
  H373     1.0000 0.05175  0.26964  0.59977  Biso   1.000  H
  H374     1.0000 0.59398  0.01403  0.27364  Biso   1.000  H
  H375     1.0000 0.28971  0.56763  0.04498  Biso   1.000  H
  H376     1.0000 0.53546  0.25513  0.92667  Biso   1.000  H
  H377     1.0000 0.10164  0.97716  0.24218  Biso   1.000  H
  H378     1.0000 0.78218  0.57552  0.51337  Biso   1.000  H
  H379     1.0000 0.49823  0.75700  0.58646  Biso   1.000  H
  H380     1.0000 0.94032  0.51870  0.27106  Biso   1.000  H
  H381     1.0000 0.25248  0.07751  0.02445  Biso   1.000  H
  H382     1.0000 0.01101  0.76028  0.91345  Biso   1.000  H
  H383     1.0000 0.44292  0.47814  0.24761  Biso   1.000  H
  H384     1.0000 0.74827  0.07820  0.48841  Biso   1.000  H
  H385     1.0000 0.25728  0.47667  0.35164  Biso   1.000  H
  H386     1.0000 0.30986  0.17544  0.46975  Biso   1.000  H
  H387     1.0000 0.49818  0.32680  0.24366  Biso   1.000  H
  H388     1.0000 0.70558  0.55402  0.21947  Biso   1.000  H
  H389     1.0000 0.79289  0.17288  0.02455  Biso   1.000  H
  H390     1.0000 0.99500  0.26770  0.33979  Biso   1.000  H
  H391     1.0000 0.28167  0.94358  0.34352  Biso   1.000  H
  H392     1.0000 0.22657  0.67720  0.55505  Biso   1.000  H
  H393     1.0000 0.97079  0.81826  0.23242  Biso   1.000  H
  H394     1.0000 0.83494  0.96904  0.22868  Biso   1.000  H
  H395     1.0000 0.73946  0.67111  0.03330  Biso   1.000  H
  H396     1.0000 0.54599  0.76721  0.32888  Biso   1.000  H
  H397     1.0000 0.76705  0.50336  0.66408  Biso   1.000  H
  H398     1.0000 0.73946  0.82088  0.53589  Biso   1.000  H
  H399     1.0000 0.45787  0.69737  0.82133  Biso   1.000  H
  H400     1.0000 0.27238  0.49697  0.85550  Biso   1.000  H
  H401     1.0000 0.22764  0.80646  0.05881  Biso   1.000  H
  H402     1.0000 0.03764  0.66719  0.73362  Biso   1.000  H
  H403     1.0000 0.75096  0.94944  0.66929  Biso   1.000  H
  H404     1.0000 0.79851  0.32199  0.52755  Biso   1.000  H
  H405     1.0000 0.00339  0.21418  0.83555  Biso   1.000  H
  H406     1.0000 0.26599  0.01296  0.84237  Biso   1.000  H
  H407     1.0000 0.31717  0.29815  0.06903  Biso   1.000  H
  H408     1.0000 0.50591  0.14582  0.74250  Biso   1.000  H
  H409     1.0000 0.30390  0.46001  0.20122  Biso   1.000  H
  H410     1.0000 0.20212  0.27728  0.46495  Biso   1.000  H
  H411     1.0000 0.48597  0.22333  0.34407  Biso   1.000  H
  H412     1.0000 0.85254  0.48758  0.27304  Biso   1.000  H
  H413     1.0000 0.71015  0.28563  0.04245  Biso   1.000  H
  H414     1.0000 0.04819  0.16692  0.23579  Biso   1.000  H
  H415     1.0000 0.18603  0.94349  0.23606  Biso   1.000  H
  H416     1.0000 0.33929  0.76528  0.54648  Biso   1.000  H
  H417     1.0000 0.99057  0.66087  0.27576  Biso   1.000  H
  H418     1.0000 0.67749  0.96636  0.26807  Biso   1.000  H
  H419     1.0000 0.83924  0.77313  0.97693  Biso   1.000  H
  H420     1.0000 0.47451  0.67785  0.22657  Biso   1.000  H
  H421     1.0000 0.66453  0.50203  0.77123  Biso   1.000  H
  H422     1.0000 0.77715  0.65752  0.53807  Biso   1.000  H
  H423     1.0000 0.48306  0.80743  0.72944  Biso   1.000  H
  H424     1.0000 0.17395  0.50980  0.75972  Biso   1.000  H
  H425     1.0000 0.27625  0.65090  0.01268  Biso   1.000  H
  H426     1.0000 0.96861  0.77315  0.82918  Biso   1.000  H
  H427     1.0000 0.79982  0.00624  0.82587  Biso   1.000  H
  H428     1.0000 0.75606  0.15779  0.52219  Biso   1.000  H
  H429     1.0000 0.04901  0.32597  0.74147  Biso   1.000  H
  H430     1.0000 0.36117  0.01386  0.74408  Biso   1.000  H
  H431     1.0000 0.25239  0.15771  0.99323  Biso   1.000  H
  H432     1.0000 0.50117  0.24608  0.84603  Biso   1.000  H
  H433     1.0000 0.30581  0.95988  0.68285  Biso   1.000  H
  H434     1.0000 0.75341  0.32402  0.96865  Biso   1.000  H
  H435     1.0000 0.02994  0.72309  0.33793  Biso   1.000  H
  H436     1.0000 0.85657  0.94626  0.77560  Biso   1.000  H
  H437     1.0000 0.25556  0.33007  0.52701  Biso   1.000  H
  H438     1.0000 0.53563  0.72398  0.17253  Biso   1.000  H
  H439     1.0000 0.22560  0.46093  0.69726  Biso   1.000  H
  H440     1.0000 0.79242  0.82455  0.04275  Biso   1.000  H
  H441     1.0000 0.54639  0.16955  0.29286  Biso   1.000  H
  H442     1.0000 0.72645  0.45958  0.82693  Biso   1.000  H
  H443     1.0000 0.28183  0.82942  0.49961  Biso   1.000  H
  H444     1.0000 0.99487  0.22301  0.18192  Biso   1.000  H
  H445     1.0000 0.73143  0.02222  0.32561  Biso   1.000  H
  H446     1.0000 0.33785  0.71234  0.04455  Biso   1.000  H
  H447     1.0000 0.00873  0.26271  0.67822  Biso   1.000  H
  H448     1.0000 0.23678  0.01538  0.19499  Biso   1.000  H
  H449     1.0000 0.83883  0.71349  0.48850  Biso   1.000  H
  H450     1.0000 0.54363  0.30815  0.78909  Biso   1.000  H
  H451     1.0000 0.80253  0.53844  0.32684  Biso   1.000  H
  H452     1.0000 0.20100  0.21671  0.04769  Biso   1.000  H
  H453     1.0000 0.52648  0.74510  0.67349  Biso   1.000  H
  H454     1.0000 0.36040  0.52479  0.25216  Biso   1.000  H
  H455     1.0000 0.69685  0.21761  0.47348  Biso   1.000  H
  H456     1.0000 0.04154  0.81351  0.78554  Biso   1.000  H
  H457     1.0000 0.67916  0.75439  0.49460  Biso   1.000  H
  H458     1.0000 0.53216  0.65314  0.77494  Biso   1.000  H
  H459     1.0000 0.82468  0.45852  0.72896  Biso   1.000  H
  H460     1.0000 0.18929  0.75876  0.98531  Biso   1.000  H
  H461     1.0000 0.97596  0.71909  0.67780  Biso   1.000  H
  H462     1.0000 0.32107  0.43405  0.80508  Biso   1.000  H
  H463     1.0000 0.85677  0.25704  0.48765  Biso   1.000  H
  H464     1.0000 0.06565  0.16532  0.78088  Biso   1.000  H
  H465     1.0000 0.70231  0.01244  0.72676  Biso   1.000  H
  H466     1.0000 0.35340  0.26200  0.98811  Biso   1.000  H
  H467     1.0000 0.57137  0.20422  0.69676  Biso   1.000  H
  H468     1.0000 0.19785  0.97628  0.77747  Biso   1.000  H
  H469     1.0000 0.34641  0.22494  0.54360  Biso   1.000  H
  H470     1.0000 0.56145  0.27315  0.19629  Biso   1.000  H
  H471     1.0000 0.19870  0.51661  0.28736  Biso   1.000  H
  H472     1.0000 0.85957  0.22615  0.98386  Biso   1.000  H
  H473     1.0000 0.04476  0.32174  0.27844  Biso   1.000  H
  H474     1.0000 0.74560  0.48117  0.17160  Biso   1.000  H
  H475     1.0000 0.18922  0.72793  0.48204  Biso   1.000  H
  H476     1.0000 0.02801  0.76857  0.17819  Biso   1.000  H
  H477     1.0000 0.34125  0.99808  0.28829  Biso   1.000  H
  H478     1.0000 0.68424  0.73164  0.98311  Biso   1.000  H
  H479     1.0000 0.48708  0.82747  0.28145  Biso   1.000  H
  H480     1.0000 0.78253  0.03071  0.17558  Biso   1.000  H
  N1       1.0000 0.70006  0.16484  0.49579  Biso   1.000  N
  N2       1.0000 0.50234  0.67566  0.17966  Biso   1.000  N
  N3       1.0000 0.17794  0.48996  0.70115  Biso   1.000  N
  N4       1.0000 0.20297  0.16301  0.02359  Biso   1.000  N
  N5       1.0000 0.01209  0.66890  0.33160  Biso   1.000  N
  N6       1.0000 0.67451  0.48223  0.82399  Biso   1.000  N
  N7       1.0000 0.83253  0.66214  0.51548  Biso   1.000  N
  N8       1.0000 0.02185  0.17015  0.18554  Biso   1.000  N
  N9       1.0000 0.35752  0.98900  0.68860  Biso   1.000  N
  N10      1.0000 0.33131  0.65873  0.02410  Biso   1.000  N
  N11      1.0000 0.51053  0.17354  0.34003  Biso   1.000  N
  N12      1.0000 0.85067  0.98050  0.82515  Biso   1.000  N
  N13      1.0000 0.33663  0.82042  0.52143  Biso   1.000  N
  N14      1.0000 0.51711  0.30033  0.84011  Biso   1.000  N
  N15      1.0000 0.85036  0.51179  0.32264  Biso   1.000  N
  N16      1.0000 0.83768  0.82345  0.00875  Biso   1.000  N
  N17      1.0000 0.02557  0.31824  0.68676  Biso   1.000  N
  N18      1.0000 0.35504  0.48830  0.20122  Biso   1.000  N
  N19      1.0000 0.20368  0.32567  0.49917  Biso   1.000  N
  N20      1.0000 0.00591  0.81683  0.82804  Biso   1.000  N
  N21      1.0000 0.68080  0.99346  0.31998  Biso   1.000  N
  N22      1.0000 0.70676  0.32624  0.00600  Biso   1.000  N
  N23      1.0000 0.50748  0.80135  0.67919  Biso   1.000  N
  N24      1.0000 0.18923  0.98163  0.19176  Biso   1.000  N
  N25      1.0000 0.82223  0.48470  0.67568  Biso   1.000  N
  N26      1.0000 0.68798  0.81187  0.51122  Biso   1.000  N
  N27      1.0000 0.49736  0.65312  0.82485  Biso   1.000  N
  N28      1.0000 0.32593  0.46729  0.85029  Biso   1.000  N
  N29      1.0000 0.18739  0.80917  0.01692  Biso   1.000  N
  N30      1.0000 0.00697  0.66570  0.68263  Biso   1.000  N
  N31      1.0000 0.70337  0.98125  0.67473  Biso   1.000  N
  N32      1.0000 0.85189  0.31234  0.50449  Biso   1.000  N
  N33      1.0000 0.03561  0.16625  0.83191  Biso   1.000  N
  N34      1.0000 0.20676  0.99161  0.83727  Biso   1.000  N
  N35      1.0000 0.35673  0.30454  0.02447  Biso   1.000  N
  N36      1.0000 0.53745  0.15448  0.69202  Biso   1.000  N
  N37      1.0000 0.20279  0.49998  0.34525  Biso   1.000  N
  N38      1.0000 0.34821  0.17417  0.50930  Biso   1.000  N
  N39      1.0000 0.53123  0.32329  0.19266  Biso   1.000  N
  N40      1.0000 0.70275  0.51467  0.17314  Biso   1.000  N
  N41      1.0000 0.84928  0.17475  0.00347  Biso   1.000  N
  N42      1.0000 0.01968  0.32013  0.33367  Biso   1.000  N
  N43      1.0000 0.33459  0.97054  0.34163  Biso   1.000  N
  N44      1.0000 0.18562  0.67679  0.50896  Biso   1.000  N
  N45      1.0000 0.00144  0.81620  0.18204  Biso   1.000  N
  N46      1.0000 0.83438  0.00111  0.17776  Biso   1.000  N
  N47      1.0000 0.68600  0.67837  0.00448  Biso   1.000  N
  N48      1.0000 0.51868  0.82154  0.32993  Biso   1.000  N
  O1       1.0000 0.36130  0.52195  0.02334  Biso   1.000  O
  O2       1.0000 0.03013  0.33881  0.55275  Biso   1.000  O
  O3       1.0000 0.54973  0.00868  0.34875  Biso   1.000  O
  O4       1.0000 0.85689  0.53287  0.50516  Biso   1.000  O
  O5       1.0000 0.52720  0.33268  0.97227  Biso   1.000  O
  O6       1.0000 0.05474  0.98493  0.16875  Biso   1.000  O
  O7       1.0000 0.17776  0.02965  0.01271  Biso   1.000  O
  O8       1.0000 0.50692  0.83338  0.54774  Biso   1.000  O
  O9       1.0000 0.98146  0.49740  0.34431  Biso   1.000  O
  O10      1.0000 0.67743  0.02875  0.49751  Biso   1.000  O
  O11      1.0000 0.02196  0.83416  0.96032  Biso   1.000  O
  O12      1.0000 0.48679  0.48475  0.17199  Biso   1.000  O
  O13      1.0000 0.67669  0.45515  0.99592  Biso   1.000  O
  O14      1.0000 0.00937  0.65036  0.46627  Biso   1.000  O
  O15      1.0000 0.48999  0.98741  0.67117  Biso   1.000  O
  O16      1.0000 0.17650  0.45833  0.52479  Biso   1.000  O
  O17      1.0000 0.50704  0.65163  0.04639  Biso   1.000  O
  O18      1.0000 0.98659  0.99636  0.85251  Biso   1.000  O
  O19      1.0000 0.86049  0.95797  0.01210  Biso   1.000  O
  O20      1.0000 0.51359  0.14590  0.47457  Biso   1.000  O
  O21      1.0000 0.04498  0.49072  0.66751  Biso   1.000  O
  O22      1.0000 0.36232  0.95414  0.52105  Biso   1.000  O
  O23      1.0000 0.02411  0.14744  0.05116  Biso   1.000  O
  O24      1.0000 0.54295  0.47896  0.85367  Biso   1.000  O
  O25      1.0000 0.97294  0.99906  0.15978  Biso   1.000  O
  O26      1.0000 0.17307  0.94495  0.01491  Biso   1.000  O
  O27      1.0000 0.03500  0.14859  0.96764  Biso   1.000  O
  O28      1.0000 0.46854  0.99084  0.35467  Biso   1.000  O
  O29      1.0000 0.67669  0.94902  0.49710  Biso   1.000  O
  O30      1.0000 0.52903  0.14469  0.55739  Biso   1.000  O
  O31      1.0000 0.56625  0.50890  0.16462  Biso   1.000  O
  O32      1.0000 0.36939  0.44033  0.02003  Biso   1.000  O
  O33      1.0000 0.51365  0.64136  0.96289  Biso   1.000  O
  O34      1.0000 0.06453  0.49101  0.35696  Biso   1.000  O
  O35      1.0000 0.86543  0.44935  0.49506  Biso   1.000  O
  O36      1.0000 0.01521  0.64221  0.54710  Biso   1.000  O
  O37      1.0000 0.06909  0.98799  0.85227  Biso   1.000  O
  O38      1.0000 0.86298  0.04013  0.99212  Biso   1.000  O
  O39      1.0000 0.00850  0.83761  0.04265  Biso   1.000  O
  O40      1.0000 0.57010  0.97406  0.65998  Biso   1.000  O
  O41      1.0000 0.36248  0.03952  0.50736  Biso   1.000  O
  O42      1.0000 0.51964  0.84033  0.46498  Biso   1.000  O
  O43      1.0000 0.45862  0.47929  0.85386  Biso   1.000  O
  O44      1.0000 0.66633  0.53895  0.00300  Biso   1.000  O
  O45      1.0000 0.53440  0.33386  0.05617  Biso   1.000  O
  O46      1.0000 0.95830  0.49268  0.66843  Biso   1.000  O
  O47      1.0000 0.16909  0.54008  0.51870  Biso   1.000  O
  O48      1.0000 0.02417  0.34007  0.46991  Biso   1.000  O
  O49      1.0000 0.00936  0.95227  0.16443  Biso   1.000  O
  O50      1.0000 0.17994  0.98614  0.97480  Biso   1.000  O
  O51      1.0000 0.98653  0.14761  0.00386  Biso   1.000  O
  O52      1.0000 0.51702  0.95693  0.34828  Biso   1.000  O
  O53      1.0000 0.68085  0.98646  0.53947  Biso   1.000  O
  O54      1.0000 0.48043  0.14650  0.52143  Biso   1.000  O
  O55      1.0000 0.54038  0.45644  0.17137  Biso   1.000  O
  O56      1.0000 0.35895  0.48141  0.97994  Biso   1.000  O
  O57      1.0000 0.54987  0.64959  0.00576  Biso   1.000  O
  O58      1.0000 0.02116  0.45348  0.35413  Biso   1.000  O
  O59      1.0000 0.85816  0.48586  0.54442  Biso   1.000  O
  O60      1.0000 0.05317  0.65099  0.50091  Biso   1.000  O
  O61      1.0000 0.03390  0.03318  0.85401  Biso   1.000  O
  O62      1.0000 0.86060  0.00561  0.04291  Biso   1.000  O
  O63      1.0000 0.05624  0.83509  0.01011  Biso   1.000  O
  O64      1.0000 0.53709  0.02033  0.66862  Biso   1.000  O
  O65      1.0000 0.35998  0.99057  0.47454  Biso   1.000  O
  O66      1.0000 0.55269  0.83983  0.51378  Biso   1.000  O
  O67      1.0000 0.49751  0.52004  0.84937  Biso   1.000  O
  O68      1.0000 0.67496  0.48977  0.04351  Biso   1.000  O
  O69      1.0000 0.48935  0.33045  0.01612  Biso   1.000  O
  O70      1.0000 0.00402  0.53233  0.66800  Biso   1.000  O
  O71      1.0000 0.17533  0.49954  0.48074  Biso   1.000  O
  O72      1.0000 0.98479  0.33623  0.51164  Biso   1.000  O
  O73      1.0000 0.99700  0.44964  0.66810  Biso   1.000  O
  O74      1.0000 0.67369  0.99033  0.45757  Biso   1.000  O
  O75      1.0000 0.46736  0.64513  0.00221  Biso   1.000  O
  O76      1.0000 0.49745  0.43507  0.85489  Biso   1.000  O
  O77      1.0000 0.17757  0.99574  0.05477  Biso   1.000  O
  O78      1.0000 0.96821  0.64323  0.51265  Biso   1.000  O
  O79      1.0000 0.52155  0.93697  0.66707  Biso   1.000  O
  O80      1.0000 0.86693  0.49695  0.46016  Biso   1.000  O
  O81      1.0000 0.06902  0.14747  0.01301  Biso   1.000  O
  O82      1.0000 0.02483  0.94979  0.84756  Biso   1.000  O
  O83      1.0000 0.36478  0.48273  0.06433  Biso   1.000  O
  O84      1.0000 0.56460  0.14546  0.51019  Biso   1.000  O
  O85      1.0000 0.02369  0.53834  0.35057  Biso   1.000  O
  O86      1.0000 0.36794  0.00085  0.55420  Biso   1.000  O
  O87      1.0000 0.57286  0.33484  0.01065  Biso   1.000  O
  O88      1.0000 0.51472  0.53594  0.16576  Biso   1.000  O
  O89      1.0000 0.86057  0.99000  0.95946  Biso   1.000  O
  O90      1.0000 0.06922  0.34197  0.50871  Biso   1.000  O
  O91      1.0000 0.50081  0.04052  0.35078  Biso   1.000  O
  O92      1.0000 0.17073  0.50465  0.56543  Biso   1.000  O
  O93      1.0000 0.97237  0.84020  0.99728  Biso   1.000  O
  O94      1.0000 0.02055  0.03515  0.16521  Biso   1.000  O
  O95      1.0000 0.66294  0.50137  0.95932  Biso   1.000  O
  O96      1.0000 0.46974  0.83646  0.50250  Biso   1.000  O
  O97      1.0000 0.48333  0.19472  0.52508  Biso   1.000  O
  O98      1.0000 0.53893  0.46104  0.21904  Biso   1.000  O
  O99      1.0000 0.22367  0.50316  0.48214  Biso   1.000  O
  O100     1.0000 0.98496  0.19711  0.00515  Biso   1.000  O
  O101     1.0000 0.02204  0.45372  0.30522  Biso   1.000  O
  O102     1.0000 0.72277  0.49685  0.03669  Biso   1.000  O
  O103     1.0000 0.04952  0.70014  0.49964  Biso   1.000  O
  O104     1.0000 0.00030  0.95194  0.21206  Biso   1.000  O
  O105     1.0000 0.31243  0.99026  0.47722  Biso   1.000  O
  O106     1.0000 0.54763  0.69819  0.00098  Biso   1.000  O
  O107     1.0000 0.51493  0.95714  0.29981  Biso   1.000  O
  O108     1.0000 0.81219  0.00430  0.03854  Biso   1.000  O
  O109     1.0000 0.55240  0.79035  0.50832  Biso   1.000  O
  O110     1.0000 0.49569  0.51660  0.80053  Biso   1.000  O
  O111     1.0000 0.81116  0.47698  0.53762  Biso   1.000  O
  O112     1.0000 0.05152  0.78388  0.00909  Biso   1.000  O
  O113     1.0000 0.99903  0.53175  0.71675  Biso   1.000  O
  O114     1.0000 0.31036  0.47463  0.98472  Biso   1.000  O
  O115     1.0000 0.98781  0.28776  0.51410  Biso   1.000  O
  O116     1.0000 0.03310  0.03188  0.80587  Biso   1.000  O
  O117     1.0000 0.72941  0.98341  0.53665  Biso   1.000  O
  O118     1.0000 0.49144  0.28098  0.01732  Biso   1.000  O
  O119     1.0000 0.53948  0.02111  0.71733  Biso   1.000  O
  O120     1.0000 0.22830  0.98503  0.97573  Biso   1.000  O
  O121     1.0000 0.04031  0.49035  0.71658  Biso   1.000  O
  O122     1.0000 0.72569  0.03002  0.49243  Biso   1.000  O
  O123     1.0000 0.50343  0.70045  0.04122  Biso   1.000  O
  O124     1.0000 0.53822  0.47737  0.80577  Biso   1.000  O
  O125     1.0000 0.22666  0.02933  0.01597  Biso   1.000  O
  O126     1.0000 0.00437  0.69883  0.46757  Biso   1.000  O
  O127     1.0000 0.49010  0.98356  0.71881  Biso   1.000  O
  O128     1.0000 0.80891  0.52653  0.50493  Biso   1.000  O
  O129     1.0000 0.02316  0.19610  0.04997  Biso   1.000  O
  O130     1.0000 0.98790  0.99136  0.80195  Biso   1.000  O
  O131     1.0000 0.31274  0.51964  0.02906  Biso   1.000  O
  O132     1.0000 0.51740  0.19619  0.47280  Biso   1.000  O
  O133     1.0000 0.98790  0.50207  0.29684  Biso   1.000  O
  O134     1.0000 0.31486  0.95475  0.52678  Biso   1.000  O
  O135     1.0000 0.53400  0.28372  0.97700  Biso   1.000  O
  O136     1.0000 0.48973  0.49038  0.22032  Biso   1.000  O
  O137     1.0000 0.81253  0.96000  0.00598  Biso   1.000  O
  O138     1.0000 0.03390  0.28951  0.55234  Biso   1.000  O
  O139     1.0000 0.54705  0.01151  0.30041  Biso   1.000  O
  O140     1.0000 0.22501  0.46398  0.52024  Biso   1.000  O
  O141     1.0000 0.01905  0.78489  0.96146  Biso   1.000  O
  O142     1.0000 0.05175  0.98558  0.21688  Biso   1.000  O
  O143     1.0000 0.72427  0.46126  0.99596  Biso   1.000  O
  O144     1.0000 0.50930  0.78395  0.54353  Biso   1.000  O
  O145     1.0000 0.57294  0.51227  0.21151  Biso   1.000  O
  O146     1.0000 0.21779  0.54627  0.52614  Biso   1.000  O
  O147     1.0000 0.53045  0.19345  0.55802  Biso   1.000  O
  O148     1.0000 0.06952  0.49028  0.30854  Biso   1.000  O
  O149     1.0000 0.71379  0.54381  0.00041  Biso   1.000  O
  O150     1.0000 0.03134  0.19628  0.96539  Biso   1.000  O
  O151     1.0000 0.96975  0.99951  0.20717  Biso   1.000  O
  O152     1.0000 0.31331  0.03730  0.51114  Biso   1.000  O
  O153     1.0000 0.01683  0.69286  0.54778  Biso   1.000  O
  O154     1.0000 0.46528  0.98485  0.30663  Biso   1.000  O
  O155     1.0000 0.81472  0.03925  0.98955  Biso   1.000  O
  O156     1.0000 0.50848  0.69033  0.95777  Biso   1.000  O
  O157     1.0000 0.45595  0.46927  0.80468  Biso   1.000  O
  O158     1.0000 0.81905  0.44362  0.48671  Biso   1.000  O
  O159     1.0000 0.51631  0.79219  0.46215  Biso   1.000  O
  O160     1.0000 0.95487  0.48738  0.71640  Biso   1.000  O
  O161     1.0000 0.32076  0.43585  0.02779  Biso   1.000  O
  O162     1.0000 0.01029  0.78993  0.04548  Biso   1.000  O
  O163     1.0000 0.07322  0.98911  0.80405  Biso   1.000  O
  O164     1.0000 0.72280  0.94624  0.48674  Biso   1.000  O
  O165     1.0000 0.02392  0.29077  0.46824  Biso   1.000  O
  O166     1.0000 0.57166  0.97338  0.70891  Biso   1.000  O
  O167     1.0000 0.22104  0.94547  0.01632  Biso   1.000  O
  O168     1.0000 0.53539  0.28540  0.05867  Biso   1.000  O
  O169     1.0000 0.01993  0.03426  0.21376  Biso   1.000  O
  O170     1.0000 0.22493  0.98887  0.06075  Biso   1.000  O
  O171     1.0000 0.06960  0.19639  0.01182  Biso   1.000  O
  O172     1.0000 0.49409  0.03971  0.30160  Biso   1.000  O
  O173     1.0000 0.72205  0.99030  0.45157  Biso   1.000  O
  O174     1.0000 0.56476  0.19426  0.50982  Biso   1.000  O
  O175     1.0000 0.51661  0.54342  0.21352  Biso   1.000  O
  O176     1.0000 0.31613  0.48038  0.06828  Biso   1.000  O
  O177     1.0000 0.46502  0.69326  0.99868  Biso   1.000  O
  O178     1.0000 0.03140  0.53387  0.30162  Biso   1.000  O
  O179     1.0000 0.81791  0.49397  0.45604  Biso   1.000  O
  O180     1.0000 0.96723  0.69210  0.51497  Biso   1.000  O
  O181     1.0000 0.02920  0.94722  0.79913  Biso   1.000  O
  O182     1.0000 0.81164  0.98901  0.95889  Biso   1.000  O
  O183     1.0000 0.97084  0.79189  0.99841  Biso   1.000  O
  O184     1.0000 0.52522  0.93640  0.71608  Biso   1.000  O
  O185     1.0000 0.31782  0.00134  0.56045  Biso   1.000  O
  O186     1.0000 0.46971  0.78658  0.50088  Biso   1.000  O
  O187     1.0000 0.50030  0.43374  0.80650  Biso   1.000  O
  O188     1.0000 0.71149  0.50481  0.95462  Biso   1.000  O
  O189     1.0000 0.57531  0.28493  0.01697  Biso   1.000  O
  O190     1.0000 0.00068  0.44669  0.71528  Biso   1.000  O
  O191     1.0000 0.21781  0.49894  0.56747  Biso   1.000  O
  O192     1.0000 0.07040  0.29220  0.50599  Biso   1.000  O
