data_image0
_cell_length_a       47.5561
_cell_length_b       46.6652
_cell_length_c       46.5858
_cell_angle_alpha    90
_cell_angle_beta     90
_cell_angle_gamma    90

_symmetry_space_group_name_H-M    "P 1"
_symmetry_int_tables_number       1

loop_
  _symmetry_equiv_pos_as_xyz
  'x, y, z'

loop_
  _atom_site_label
  _atom_site_occupancy
  _atom_site_fract_x
  _atom_site_fract_y
  _atom_site_fract_z
  _atom_site_thermal_displace_type
  _atom_site_B_iso_or_equiv
  _atom_site_type_symbol
  C1       1.0000 0.57577  0.98205  0.30989  Biso   1.000  C
  C2       1.0000 0.35436  0.54481  0.98508  Biso   1.000  C
  C3       1.0000 0.04078  0.31943  0.53907  Biso   1.000  C
  C4       1.0000 0.07820  0.00356  0.17878  Biso   1.000  C
  C5       1.0000 0.84590  0.55568  0.48996  Biso   1.000  C
  C6       1.0000 0.54284  0.31811  0.93549  Biso   1.000  C
  C7       1.0000 0.97056  0.50049  0.30801  Biso   1.000  C
  C8       1.0000 0.21248  0.04520  0.99918  Biso   1.000  C
  C9       1.0000 0.53649  0.81264  0.54500  Biso   1.000  C
  C10      1.0000 0.47221  0.49146  0.17120  Biso   1.000  C
  C11      1.0000 0.71195  0.05555  0.48560  Biso   1.000  C
  C12      1.0000 0.03166  0.81498  0.93898  Biso   1.000  C
  C13      1.0000 0.48801  0.98147  0.67818  Biso   1.000  C
  C14      1.0000 0.71101  0.44316  0.99145  Biso   1.000  C
  C15      1.0000 0.04104  0.67724  0.44168  Biso   1.000  C
  C16      1.0000 0.98711  0.98112  0.80572  Biso   1.000  C
  C17      1.0000 0.21582  0.44214  0.47968  Biso   1.000  C
  C18      1.0000 0.52961  0.67175  0.03621  Biso   1.000  C
  C19      1.0000 0.08496  0.49090  0.66462  Biso   1.000  C
  C20      1.0000 0.84649  0.94909  0.97988  Biso   1.000  C
  C21      1.0000 0.52982  0.17338  0.44047  Biso   1.000  C
  C22      1.0000 0.58682  0.48264  0.80394  Biso   1.000  C
  C23      1.0000 0.34969  0.93739  0.50533  Biso   1.000  C
  C24      1.0000 0.03996  0.17535  0.04118  Biso   1.000  C
  C25      1.0000 0.35365  0.04648  0.49661  Biso   1.000  C
  C26      1.0000 0.52130  0.31325  0.04248  Biso   1.000  C
  C27      1.0000 0.08028  0.49538  0.31029  Biso   1.000  C
  C28      1.0000 0.84777  0.05606  0.98435  Biso   1.000  C
  C29      1.0000 0.02701  0.31949  0.43211  Biso   1.000  C
  C30      1.0000 0.58227  0.49600  0.17311  Biso   1.000  C
  C31      1.0000 0.21185  0.54911  0.48840  Biso   1.000  C
  C32      1.0000 0.02692  0.81830  0.05108  Biso   1.000  C
  C33      1.0000 0.46804  0.99927  0.31324  Biso   1.000  C
  C34      1.0000 0.71047  0.55195  0.98381  Biso   1.000  C
  C35      1.0000 0.52692  0.80866  0.43633  Biso   1.000  C
  C36      1.0000 0.97013  0.99661  0.16590  Biso   1.000  C
  C37      1.0000 0.71006  0.94683  0.48381  Biso   1.000  C
  C38      1.0000 0.51938  0.66594  0.92866  Biso   1.000  C
  C39      1.0000 0.97734  0.47978  0.66517  Biso   1.000  C
  C40      1.0000 0.21211  0.93616  0.00125  Biso   1.000  C
  C41      1.0000 0.01573  0.67317  0.54815  Biso   1.000  C
  C42      1.0000 0.47916  0.49415  0.80680  Biso   1.000  C
  C43      1.0000 0.84676  0.44519  0.49158  Biso   1.000  C
  C44      1.0000 0.03175  0.17103  0.93053  Biso   1.000  C
  C45      1.0000 0.59346  0.99889  0.67656  Biso   1.000  C
  C46      1.0000 0.35572  0.43759  0.99560  Biso   1.000  C
  C47      1.0000 0.53557  0.17006  0.54770  Biso   1.000  C
  C48      1.0000 0.09567  0.99772  0.81336  Biso   1.000  C
  C49      1.0000 0.02993  0.04138  0.80560  Biso   1.000  C
  C50      1.0000 0.84370  0.00112  0.03867  Biso   1.000  C
  C51      1.0000 0.08224  0.81415  0.00082  Biso   1.000  C
  C52      1.0000 0.53008  0.04473  0.67348  Biso   1.000  C
  C53      1.0000 0.34725  0.99179  0.44626  Biso   1.000  C
  C54      1.0000 0.58654  0.81675  0.48348  Biso   1.000  C
  C55      1.0000 0.53783  0.54195  0.79983  Biso   1.000  C
  C56      1.0000 0.71091  0.50084  0.04645  Biso   1.000  C
  C57      1.0000 0.48072  0.31193  0.98314  Biso   1.000  C
  C58      1.0000 0.02175  0.53960  0.66922  Biso   1.000  C
  C59      1.0000 0.21422  0.50510  0.42931  Biso   1.000  C
  C60      1.0000 0.98020  0.32098  0.49333  Biso   1.000  C
  C61      1.0000 0.02725  0.94433  0.17588  Biso   1.000  C
  C62      1.0000 0.21001  0.98783  0.94716  Biso   1.000  C
  C63      1.0000 0.98370  0.17680  0.98761  Biso   1.000  C
  C64      1.0000 0.51584  0.93640  0.31344  Biso   1.000  C
  C65      1.0000 0.71125  0.99987  0.53718  Biso   1.000  C
  C66      1.0000 0.48064  0.17029  0.49704  Biso   1.000  C
  C67      1.0000 0.53013  0.43778  0.17463  Biso   1.000  C
  C68      1.0000 0.35376  0.48704  0.93349  Biso   1.000  C
  C69      1.0000 0.58110  0.66970  0.97202  Biso   1.000  C
  C70      1.0000 0.01742  0.44347  0.30593  Biso   1.000  C
  C71      1.0000 0.84725  0.49978  0.54702  Biso   1.000  C
  C72      1.0000 0.08328  0.67669  0.50676  Biso   1.000  C
  C73      1.0000 0.03513  0.55356  0.31056  Biso   1.000  C
  C74      1.0000 0.35681  0.99058  0.55344  Biso   1.000  C
  C75      1.0000 0.58691  0.31586  0.99716  Biso   1.000  C
  C76      1.0000 0.52098  0.54589  0.16350  Biso   1.000  C
  C77      1.0000 0.85289  0.00508  0.92537  Biso   1.000  C
  C78      1.0000 0.08732  0.32259  0.47958  Biso   1.000  C
  C79      1.0000 0.52916  0.04574  0.30926  Biso   1.000  C
  C80      1.0000 0.21480  0.48878  0.53708  Biso   1.000  C
  C81      1.0000 0.97248  0.81824  0.98967  Biso   1.000  C
  C82      1.0000 0.02170  0.05341  0.17399  Biso   1.000  C
  C83      1.0000 0.70523  0.49622  0.93373  Biso   1.000  C
  C84      1.0000 0.47639  0.80888  0.49600  Biso   1.000  C
  C85      1.0000 0.03064  0.43340  0.66792  Biso   1.000  C
  C86      1.0000 0.70675  0.00420  0.42794  Biso   1.000  C
  C87      1.0000 0.47434  0.67313  0.98435  Biso   1.000  C
  C88      1.0000 0.52590  0.43380  0.80309  Biso   1.000  C
  C89      1.0000 0.20623  0.99233  0.05524  Biso   1.000  C
  C90      1.0000 0.97678  0.67502  0.48266  Biso   1.000  C
  C91      1.0000 0.55813  0.93681  0.67443  Biso   1.000  C
  C92      1.0000 0.84763  0.49871  0.43661  Biso   1.000  C
  C93      1.0000 0.09369  0.17559  0.98239  Biso   1.000  C
  C94      1.0000 0.04788  0.93480  0.80657  Biso   1.000  C
  C95      1.0000 0.35558  0.49236  0.04299  Biso   1.000  C
  C96      1.0000 0.58642  0.17892  0.49256  Biso   1.000  C
  C97      1.0000 0.71198  0.08652  0.47855  Biso   1.000  C
  C98      1.0000 0.52765  0.67157  0.06855  Biso   1.000  C
  C99      1.0000 0.11769  0.49046  0.66563  Biso   1.000  C
  C100     1.0000 0.21431  0.07663  0.99936  Biso   1.000  C
  C101     1.0000 0.04381  0.67977  0.40893  Biso   1.000  C
  C102     1.0000 0.61916  0.48267  0.80533  Biso   1.000  C
  C103     1.0000 0.84683  0.58769  0.48556  Biso   1.000  C
  C104     1.0000 0.03524  0.17560  0.07366  Biso   1.000  C
  C105     1.0000 0.45567  0.98104  0.68039  Biso   1.000  C
  C106     1.0000 0.35375  0.57612  0.97948  Biso   1.000  C
  C107     1.0000 0.52422  0.17193  0.40763  Biso   1.000  C
  C108     1.0000 0.95577  0.98444  0.80369  Biso   1.000  C
  C109     1.0000 0.34848  0.90533  0.50699  Biso   1.000  C
  C110     1.0000 0.55075  0.31822  0.90404  Biso   1.000  C
  C111     1.0000 0.93880  0.50253  0.30799  Biso   1.000  C
  C112     1.0000 0.84550  0.91681  0.97794  Biso   1.000  C
  C113     1.0000 0.03889  0.31692  0.57039  Biso   1.000  C
  C114     1.0000 0.44048  0.49549  0.17257  Biso   1.000  C
  C115     1.0000 0.21832  0.40989  0.48457  Biso   1.000  C
  C116     1.0000 0.03315  0.81231  0.90657  Biso   1.000  C
  C117     1.0000 0.60798  0.97696  0.30867  Biso   1.000  C
  C118     1.0000 0.70996  0.41106  0.99149  Biso   1.000  C
  C119     1.0000 0.54225  0.81132  0.57635  Biso   1.000  C
  C120     1.0000 0.11017  0.00953  0.17884  Biso   1.000  C
  C121     1.0000 0.84131  0.99974  0.07042  Biso   1.000  C
  C122     1.0000 0.11423  0.81344  0.00268  Biso   1.000  C
  C123     1.0000 0.02272  0.07238  0.80699  Biso   1.000  C
  C124     1.0000 0.34533  0.99309  0.41402  Biso   1.000  C
  C125     1.0000 0.61791  0.81675  0.47971  Biso   1.000  C
  C126     1.0000 0.53054  0.07629  0.67362  Biso   1.000  C
  C127     1.0000 0.70965  0.50489  0.07736  Biso   1.000  C
  C128     1.0000 0.44890  0.31171  0.98380  Biso   1.000  C
  C129     1.0000 0.53649  0.57467  0.79992  Biso   1.000  C
  C130     1.0000 0.21186  0.51091  0.39816  Biso   1.000  C
  C131     1.0000 0.94801  0.32202  0.49254  Biso   1.000  C
  C132     1.0000 0.01824  0.57159  0.67078  Biso   1.000  C
  C133     1.0000 0.21337  0.98494  0.91498  Biso   1.000  C
  C134     1.0000 0.95028  0.17741  0.98629  Biso   1.000  C
  C135     1.0000 0.03239  0.91310  0.17448  Biso   1.000  C
  C136     1.0000 0.71262  0.00098  0.56883  Biso   1.000  C
  C137     1.0000 0.44866  0.17188  0.49659  Biso   1.000  C
  C138     1.0000 0.51265  0.90299  0.31182  Biso   1.000  C
  C139     1.0000 0.35383  0.48238  0.90207  Biso   1.000  C
  C140     1.0000 0.61437  0.67043  0.96963  Biso   1.000  C
  C141     1.0000 0.52809  0.40533  0.17530  Biso   1.000  C
  C142     1.0000 0.84735  0.49966  0.57865  Biso   1.000  C
  C143     1.0000 0.11583  0.67488  0.51288  Biso   1.000  C
  C144     1.0000 0.01324  0.41101  0.30516  Biso   1.000  C
  C145     1.0000 0.35178  0.49810  0.07477  Biso   1.000  C
  C146     1.0000 0.11964  0.32137  0.48336  Biso   1.000  C
  C147     1.0000 0.52705  0.07738  0.30971  Biso   1.000  C
  C148     1.0000 0.84489  0.49737  0.40511  Biso   1.000  C
  C149     1.0000 0.61808  0.31698  0.00259  Biso   1.000  C
  C150     1.0000 0.01627  0.08443  0.17007  Biso   1.000  C
  C151     1.0000 0.20636  0.99925  0.08677  Biso   1.000  C
  C152     1.0000 0.44396  0.80925  0.50069  Biso   1.000  C
  C153     1.0000 0.04436  0.58447  0.31377  Biso   1.000  C
  C154     1.0000 0.70540  0.00724  0.39528  Biso   1.000  C
  C155     1.0000 0.94081  0.81950  0.98425  Biso   1.000  C
  C156     1.0000 0.51669  0.57705  0.16372  Biso   1.000  C
  C157     1.0000 0.70610  0.49304  0.90210  Biso   1.000  C
  C158     1.0000 0.94555  0.67701  0.47738  Biso   1.000  C
  C159     1.0000 0.56445  0.90526  0.67241  Biso   1.000  C
  C160     1.0000 0.21390  0.48899  0.57108  Biso   1.000  C
  C161     1.0000 0.44243  0.67205  0.97881  Biso   1.000  C
  C162     1.0000 0.04461  0.90057  0.80631  Biso   1.000  C
  C163     1.0000 0.85461  0.00372  0.89289  Biso   1.000  C
  C164     1.0000 0.61753  0.18115  0.49658  Biso   1.000  C
  C165     1.0000 0.02152  0.40260  0.66696  Biso   1.000  C
  C166     1.0000 0.35908  0.98123  0.58589  Biso   1.000  C
  C167     1.0000 0.12564  0.17495  0.98411  Biso   1.000  C
  C168     1.0000 0.52673  0.40250  0.80257  Biso   1.000  C
  C169     1.0000 0.02760  0.81732  0.08247  Biso   1.000  C
  C170     1.0000 0.12669  0.99706  0.81562  Biso   1.000  C
  C171     1.0000 0.84921  0.08789  0.98361  Biso   1.000  C
  C172     1.0000 0.52504  0.80777  0.40435  Biso   1.000  C
  C173     1.0000 0.62514  0.99590  0.67341  Biso   1.000  C
  C174     1.0000 0.35329  0.07885  0.49528  Biso   1.000  C
  C175     1.0000 0.51699  0.31360  0.07573  Biso   1.000  C
  C176     1.0000 0.44744  0.49592  0.80625  Biso   1.000  C
  C177     1.0000 0.71100  0.58233  0.97453  Biso   1.000  C
  C178     1.0000 0.02147  0.31873  0.40090  Biso   1.000  C
  C179     1.0000 0.94377  0.48027  0.66734  Biso   1.000  C
  C180     1.0000 0.21213  0.58103  0.49179  Biso   1.000  C
  C181     1.0000 0.02838  0.16972  0.89928  Biso   1.000  C
  C182     1.0000 0.93767  0.99312  0.16599  Biso   1.000  C
  C183     1.0000 0.21328  0.90444  0.00444  Biso   1.000  C
  C184     1.0000 0.53630  0.17012  0.58027  Biso   1.000  C
  C185     1.0000 0.43612  0.99828  0.31448  Biso   1.000  C
  C186     1.0000 0.70978  0.91469  0.48145  Biso   1.000  C
  C187     1.0000 0.51812  0.66520  0.89704  Biso   1.000  C
  C188     1.0000 0.61412  0.50084  0.17361  Biso   1.000  C
  C189     1.0000 0.35730  0.40652  0.00564  Biso   1.000  C
  C190     1.0000 0.01417  0.67153  0.58040  Biso   1.000  C
  C191     1.0000 0.11292  0.49334  0.30975  Biso   1.000  C
  C192     1.0000 0.84783  0.41379  0.49011  Biso   1.000  C
  C193     1.0000 0.88256  0.99873  0.87889  Biso   1.000  C
  C194     1.0000 0.92563  0.84695  0.98575  Biso   1.000  C
  C195     1.0000 0.04669  0.88452  0.83372  Biso   1.000  C
  C196     1.0000 0.38698  0.98062  0.60221  Biso   1.000  C
  C197     1.0000 0.42602  0.83576  0.49728  Biso   1.000  C
  C198     1.0000 0.56221  0.88870  0.64579  Biso   1.000  C
  C199     1.0000 0.68082  0.48978  0.88442  Biso   1.000  C
  C200     1.0000 0.63146  0.34462  0.00396  Biso   1.000  C
  C201     1.0000 0.53216  0.38847  0.83065  Biso   1.000  C
  C202     1.0000 0.18823  0.48645  0.58788  Biso   1.000  C
  C203     1.0000 0.13657  0.34773  0.48325  Biso   1.000  C
  C204     1.0000 0.02118  0.38786  0.63994  Biso   1.000  C
  C205     1.0000 0.17796  0.00126  0.10210  Biso   1.000  C
  C206     1.0000 0.14107  0.14785  0.98628  Biso   1.000  C
  C207     1.0000 0.02494  0.09886  0.14269  Biso   1.000  C
  C208     1.0000 0.67758  0.00132  0.38103  Biso   1.000  C
  C209     1.0000 0.63285  0.15361  0.49427  Biso   1.000  C
  C210     1.0000 0.52714  0.09280  0.33820  Biso   1.000  C
  C211     1.0000 0.37683  0.49402  0.09484  Biso   1.000  C
  C212     1.0000 0.42828  0.64351  0.97575  Biso   1.000  C
  C213     1.0000 0.51786  0.59393  0.13678  Biso   1.000  C
  C214     1.0000 0.87237  0.49996  0.38836  Biso   1.000  C
  C215     1.0000 0.92775  0.65155  0.47693  Biso   1.000  C
  C216     1.0000 0.04258  0.60128  0.34064  Biso   1.000  C
  C217     1.0000 0.14070  0.99589  0.84397  Biso   1.000  C
  C218     1.0000 0.87872  0.10202  0.98542  Biso   1.000  C
  C219     1.0000 0.02776  0.84466  0.09787  Biso   1.000  C
  C220     1.0000 0.63902  0.99649  0.64524  Biso   1.000  C
  C221     1.0000 0.38013  0.09420  0.49385  Biso   1.000  C
  C222     1.0000 0.52049  0.83368  0.38855  Biso   1.000  C
  C223     1.0000 0.43004  0.49600  0.83421  Biso   1.000  C
  C224     1.0000 0.68385  0.59797  0.97427  Biso   1.000  C
  C225     1.0000 0.51951  0.33993  0.09262  Biso   1.000  C
  C226     1.0000 0.92966  0.48273  0.64070  Biso   1.000  C
  C227     1.0000 0.18374  0.59556  0.49686  Biso   1.000  C
  C228     1.0000 0.01747  0.34579  0.38334  Biso   1.000  C
  C229     1.0000 0.92135  0.99338  0.13921  Biso   1.000  C
  C230     1.0000 0.18559  0.89009  0.00618  Biso   1.000  C
  C231     1.0000 0.02489  0.14225  0.88350  Biso   1.000  C
  C232     1.0000 0.42188  0.99314  0.34221  Biso   1.000  C
  C233     1.0000 0.68264  0.89881  0.48123  Biso   1.000  C
  C234     1.0000 0.53818  0.14421  0.59607  Biso   1.000  C
  C235     1.0000 0.62835  0.50310  0.14547  Biso   1.000  C
  C236     1.0000 0.38427  0.39177  0.00455  Biso   1.000  C
  C237     1.0000 0.52066  0.63856  0.88082  Biso   1.000  C
  C238     1.0000 0.13110  0.49829  0.33572  Biso   1.000  C
  C239     1.0000 0.87526  0.39817  0.49199  Biso   1.000  C
  C240     1.0000 0.01979  0.64404  0.59521  Biso   1.000  C
  C241     1.0000 0.63260  0.48326  0.83335  Biso   1.000  C
  C242     1.0000 0.87480  0.60291  0.48511  Biso   1.000  C
  C243     1.0000 0.54947  0.83763  0.59354  Biso   1.000  C
  C244     1.0000 0.13490  0.48813  0.63860  Biso   1.000  C
  C245     1.0000 0.37933  0.59338  0.98027  Biso   1.000  C
  C246     1.0000 0.03924  0.83944  0.88968  Biso   1.000  C
  C247     1.0000 0.93877  0.98797  0.83047  Biso   1.000  C
  C248     1.0000 0.68561  0.10362  0.48260  Biso   1.000  C
  C249     1.0000 0.03089  0.34165  0.58730  Biso   1.000  C
  C250     1.0000 0.43889  0.98154  0.65343  Biso   1.000  C
  C251     1.0000 0.18875  0.09466  0.99475  Biso   1.000  C
  C252     1.0000 0.54451  0.34394  0.88706  Biso   1.000  C
  C253     1.0000 0.42431  0.49577  0.14530  Biso   1.000  C
  C254     1.0000 0.19094  0.39434  0.48390  Biso   1.000  C
  C255     1.0000 0.52364  0.14540  0.39106  Biso   1.000  C
  C256     1.0000 0.92214  0.50188  0.33427  Biso   1.000  C
  C257     1.0000 0.68290  0.39673  0.99616  Biso   1.000  C
  C258     1.0000 0.03051  0.14817  0.08851  Biso   1.000  C
  C259     1.0000 0.12647  0.00794  0.15255  Biso   1.000  C
  C260     1.0000 0.37396  0.88734  0.50294  Biso   1.000  C
  C261     1.0000 0.04292  0.65267  0.39243  Biso   1.000  C
  C262     1.0000 0.62475  0.98308  0.33427  Biso   1.000  C
  C263     1.0000 0.87421  0.90087  0.97885  Biso   1.000  C
  C264     1.0000 0.52519  0.64493  0.08498  Biso   1.000  C
  C265     1.0000 0.02704  0.09000  0.83310  Biso   1.000  C
  C266     1.0000 0.87009  0.99824  0.08579  Biso   1.000  C
  C267     1.0000 0.13065  0.84079  0.00314  Biso   1.000  C
  C268     1.0000 0.53412  0.09256  0.64682  Biso   1.000  C
  C269     1.0000 0.37129  0.99204  0.39795  Biso   1.000  C
  C270     1.0000 0.63236  0.84444  0.48250  Biso   1.000  C
  C271     1.0000 0.52919  0.58759  0.82838  Biso   1.000  C
  C272     1.0000 0.68242  0.50518  0.09322  Biso   1.000  C
  C273     1.0000 0.43380  0.33863  0.98968  Biso   1.000  C
  C274     1.0000 0.01791  0.58885  0.64527  Biso   1.000  C
  C275     1.0000 0.18492  0.50571  0.38361  Biso   1.000  C
  C276     1.0000 0.93134  0.34868  0.49006  Biso   1.000  C
  C277     1.0000 0.02939  0.89676  0.14802  Biso   1.000  C
  C278     1.0000 0.18799  0.99343  0.89694  Biso   1.000  C
  C279     1.0000 0.93281  0.15170  0.98597  Biso   1.000  C
  C280     1.0000 0.51505  0.88684  0.33881  Biso   1.000  C
  C281     1.0000 0.68689  0.00495  0.58866  Biso   1.000  C
  C282     1.0000 0.43267  0.14471  0.49755  Biso   1.000  C
  C283     1.0000 0.52237  0.38974  0.14766  Biso   1.000  C
  C284     1.0000 0.38003  0.48461  0.88463  Biso   1.000  C
  C285     1.0000 0.63274  0.64460  0.96985  Biso   1.000  C
  C286     1.0000 0.01528  0.39554  0.33255  Biso   1.000  C
  C287     1.0000 0.87558  0.49600  0.59107  Biso   1.000  C
  C288     1.0000 0.13111  0.64746  0.50688  Biso   1.000  C
  C289     1.0000 0.37249  0.85641  0.50715  Biso   1.000  C
  C290     1.0000 0.54321  0.33934  0.85496  Biso   1.000  C
  C291     1.0000 0.89120  0.50139  0.33412  Biso   1.000  C
  C292     1.0000 0.87382  0.87023  0.97813  Biso   1.000  C
  C293     1.0000 0.03086  0.33809  0.61811  Biso   1.000  C
  C294     1.0000 0.39408  0.50066  0.14726  Biso   1.000  C
  C295     1.0000 0.19100  0.36423  0.48669  Biso   1.000  C
  C296     1.0000 0.04044  0.83406  0.85779  Biso   1.000  C
  C297     1.0000 0.65546  0.98916  0.33051  Biso   1.000  C
  C298     1.0000 0.68378  0.36457  0.00048  Biso   1.000  C
  C299     1.0000 0.55544  0.83556  0.62354  Biso   1.000  C
  C300     1.0000 0.15718  0.00628  0.15411  Biso   1.000  C
  C301     1.0000 0.68646  0.13378  0.48746  Biso   1.000  C
  C302     1.0000 0.52264  0.64555  0.11546  Biso   1.000  C
  C303     1.0000 0.16729  0.48844  0.64007  Biso   1.000  C
  C304     1.0000 0.19253  0.12653  0.99271  Biso   1.000  C
  C305     1.0000 0.04332  0.65280  0.36144  Biso   1.000  C
  C306     1.0000 0.66365  0.48596  0.83323  Biso   1.000  C
  C307     1.0000 0.87519  0.63365  0.48507  Biso   1.000  C
  C308     1.0000 0.02492  0.15065  0.11997  Biso   1.000  C
  C309     1.0000 0.40705  0.98194  0.65500  Biso   1.000  C
  C310     1.0000 0.37486  0.62402  0.98073  Biso   1.000  C
  C311     1.0000 0.52168  0.14598  0.36039  Biso   1.000  C
  C312     1.0000 0.90796  0.99265  0.82864  Biso   1.000  C
  C313     1.0000 0.18541  0.50450  0.35290  Biso   1.000  C
  C314     1.0000 0.40093  0.14539  0.49837  Biso   1.000  C
  C315     1.0000 0.52188  0.35866  0.14520  Biso   1.000  C
  C316     1.0000 0.68211  0.50829  0.12406  Biso   1.000  C
  C317     1.0000 0.90179  0.15324  0.98501  Biso   1.000  C
  C318     1.0000 0.01240  0.36406  0.33148  Biso   1.000  C
  C319     1.0000 0.37002  0.99625  0.36781  Biso   1.000  C
  C320     1.0000 0.16264  0.64660  0.50739  Biso   1.000  C
  C321     1.0000 0.03250  0.86546  0.14914  Biso   1.000  C
  C322     1.0000 0.86928  0.99469  0.11848  Biso   1.000  C
  C323     1.0000 0.66329  0.64946  0.97002  Biso   1.000  C
  C324     1.0000 0.51933  0.85506  0.33628  Biso   1.000  C
  C325     1.0000 0.87635  0.49482  0.62250  Biso   1.000  C
  C326     1.0000 0.66327  0.84399  0.48080  Biso   1.000  C
  C327     1.0000 0.53128  0.61987  0.82856  Biso   1.000  C
  C328     1.0000 0.37809  0.48821  0.85355  Biso   1.000  C
  C329     1.0000 0.16215  0.83849  0.00748  Biso   1.000  C
  C330     1.0000 0.01430  0.62085  0.64855  Biso   1.000  C
  C331     1.0000 0.68917  0.99919  0.61948  Biso   1.000  C
  C332     1.0000 0.89843  0.34571  0.49122  Biso   1.000  C
  C333     1.0000 0.02504  0.12160  0.83207  Biso   1.000  C
  C334     1.0000 0.19245  0.98957  0.86683  Biso   1.000  C
  C335     1.0000 0.40311  0.33879  0.99441  Biso   1.000  C
  C336     1.0000 0.53578  0.12368  0.64834  Biso   1.000  C
  C337     1.0000 0.68401  0.48813  0.85387  Biso   1.000  C
  C338     1.0000 0.89685  0.65369  0.48220  Biso   1.000  C
  C339     1.0000 0.56029  0.85785  0.64476  Biso   1.000  C
  C340     1.0000 0.18918  0.48764  0.61876  Biso   1.000  C
  C341     1.0000 0.39594  0.64450  0.97940  Biso   1.000  C
  C342     1.0000 0.04257  0.85457  0.83480  Biso   1.000  C
  C343     1.0000 0.88434  0.99630  0.84833  Biso   1.000  C
  C344     1.0000 0.66533  0.15470  0.49261  Biso   1.000  C
  C345     1.0000 0.02585  0.35712  0.64089  Biso   1.000  C
  C346     1.0000 0.38555  0.97866  0.63470  Biso   1.000  C
  C347     1.0000 0.17301  0.14928  0.98636  Biso   1.000  C
  C348     1.0000 0.53724  0.35802  0.83238  Biso   1.000  C
  C349     1.0000 0.37306  0.49852  0.12527  Biso   1.000  C
  C350     1.0000 0.16780  0.34385  0.48521  Biso   1.000  C
  C351     1.0000 0.52316  0.12526  0.33786  Biso   1.000  C
  C352     1.0000 0.87087  0.50058  0.35667  Biso   1.000  C
  C353     1.0000 0.66344  0.34292  0.00499  Biso   1.000  C
  C354     1.0000 0.02197  0.12948  0.14182  Biso   1.000  C
  C355     1.0000 0.17900  0.00400  0.13356  Biso   1.000  C
  C356     1.0000 0.39524  0.83536  0.50454  Biso   1.000  C
  C357     1.0000 0.04223  0.63209  0.33966  Biso   1.000  C
  C358     1.0000 0.67706  0.99654  0.35022  Biso   1.000  C
  C359     1.0000 0.89398  0.84712  0.98109  Biso   1.000  C
  C360     1.0000 0.51866  0.62479  0.13751  Biso   1.000  C
  C361     1.0000 0.02393  0.14317  0.85286  Biso   1.000  C
  C362     1.0000 0.89017  0.99356  0.14002  Biso   1.000  C
  C363     1.0000 0.18536  0.85943  0.00673  Biso   1.000  C
  C364     1.0000 0.54009  0.14460  0.62713  Biso   1.000  C
  C365     1.0000 0.39117  0.99709  0.34418  Biso   1.000  C
  C366     1.0000 0.68448  0.86661  0.48059  Biso   1.000  C
  C367     1.0000 0.52679  0.64159  0.84983  Biso   1.000  C
  C368     1.0000 0.65953  0.50638  0.14498  Biso   1.000  C
  C369     1.0000 0.38140  0.36067  0.99971  Biso   1.000  C
  C370     1.0000 0.01482  0.64339  0.62694  Biso   1.000  C
  C371     1.0000 0.16268  0.50240  0.33339  Biso   1.000  C
  C372     1.0000 0.87640  0.36747  0.49053  Biso   1.000  C
  C373     1.0000 0.03183  0.84413  0.12818  Biso   1.000  C
  C374     1.0000 0.17297  0.99232  0.84424  Biso   1.000  C
  C375     1.0000 0.87854  0.13308  0.98394  Biso   1.000  C
  C376     1.0000 0.52032  0.83353  0.35660  Biso   1.000  C
  C377     1.0000 0.66870  0.99661  0.64237  Biso   1.000  C
  C378     1.0000 0.37873  0.12519  0.49623  Biso   1.000  C
  C379     1.0000 0.52021  0.33685  0.12367  Biso   1.000  C
  C380     1.0000 0.39846  0.49352  0.83279  Biso   1.000  C
  C381     1.0000 0.68574  0.62891  0.97250  Biso   1.000  C
  C382     1.0000 0.01344  0.34279  0.35235  Biso   1.000  C
  C383     1.0000 0.89903  0.49081  0.64268  Biso   1.000  C
  C384     1.0000 0.18508  0.62572  0.50302  Biso   1.000  C
  C385     1.0000 0.21991  0.14027  0.99658  Biso   1.000  C
  C386     1.0000 0.02038  0.17710  0.13510  Biso   1.000  C
  C387     1.0000 0.17167  0.00678  0.18139  Biso   1.000  C
  C388     1.0000 0.71344  0.14905  0.48700  Biso   1.000  C
  C389     1.0000 0.52007  0.17253  0.34443  Biso   1.000  C
  C390     1.0000 0.67025  0.98893  0.30267  Biso   1.000  C
  C391     1.0000 0.34747  0.63986  0.98111  Biso   1.000  C
  C392     1.0000 0.52053  0.67386  0.13160  Biso   1.000  C
  C393     1.0000 0.37844  0.50860  0.17273  Biso   1.000  C
  C394     1.0000 0.84846  0.65024  0.48352  Biso   1.000  C
  C395     1.0000 0.04272  0.68032  0.34662  Biso   1.000  C
  C396     1.0000 0.87487  0.50160  0.30889  Biso   1.000  C
  C397     1.0000 0.84643  0.85465  0.97603  Biso   1.000  C
  C398     1.0000 0.03810  0.80669  0.84295  Biso   1.000  C
  C399     1.0000 0.89505  0.99260  0.80038  Biso   1.000  C
  C400     1.0000 0.34714  0.84241  0.51493  Biso   1.000  C
  C401     1.0000 0.55436  0.80997  0.64017  Biso   1.000  C
  C402     1.0000 0.39310  0.98433  0.68194  Biso   1.000  C
  C403     1.0000 0.71117  0.34898  0.99997  Biso   1.000  C
  C404     1.0000 0.54773  0.31211  0.84083  Biso   1.000  C
  C405     1.0000 0.68104  0.48827  0.80679  Biso   1.000  C
  C406     1.0000 0.21744  0.34774  0.48912  Biso   1.000  C
  C407     1.0000 0.03450  0.31028  0.63245  Biso   1.000  C
  C408     1.0000 0.18292  0.49082  0.66756  Biso   1.000  C
  C409     1.0000 0.18958  0.98586  0.81849  Biso   1.000  C
  C410     1.0000 0.85246  0.15059  0.98457  Biso   1.000  C
  C411     1.0000 0.03368  0.81710  0.14263  Biso   1.000  C
  C412     1.0000 0.68745  0.99618  0.66828  Biso   1.000  C
  C413     1.0000 0.35237  0.14150  0.49732  Biso   1.000  C
  C414     1.0000 0.52751  0.80771  0.34123  Biso   1.000  C
  C415     1.0000 0.38313  0.49275  0.80581  Biso   1.000  C
  C416     1.0000 0.71267  0.64601  0.97080  Biso   1.000  C
  C417     1.0000 0.51965  0.30980  0.14017  Biso   1.000  C
  C418     1.0000 0.88443  0.48958  0.67005  Biso   1.000  C
  C419     1.0000 0.21195  0.64266  0.50537  Biso   1.000  C
  C420     1.0000 0.01247  0.31528  0.33686  Biso   1.000  C
  C421     1.0000 0.87415  0.99403  0.16637  Biso   1.000  C
  C422     1.0000 0.21146  0.84220  0.00608  Biso   1.000  C
  C423     1.0000 0.02298  0.16936  0.83709  Biso   1.000  C
  C424     1.0000 0.37347  0.00321  0.31834  Biso   1.000  C
  C425     1.0000 0.71170  0.85198  0.48101  Biso   1.000  C
  C426     1.0000 0.54176  0.17078  0.64263  Biso   1.000  C
  C427     1.0000 0.67480  0.50729  0.17258  Biso   1.000  C
  C428     1.0000 0.35532  0.34419  0.00150  Biso   1.000  C
  C429     1.0000 0.53044  0.66846  0.83579  Biso   1.000  C
  C430     1.0000 0.17666  0.50290  0.30578  Biso   1.000  C
  C431     1.0000 0.84972  0.35183  0.49119  Biso   1.000  C
  C432     1.0000 0.00788  0.66894  0.64310  Biso   1.000  C
  C433     1.0000 0.02203  0.13577  0.80480  Biso   1.000  C
  C434     1.0000 0.84183  0.99546  0.13425  Biso   1.000  C
  C435     1.0000 0.17697  0.81146  0.00724  Biso   1.000  C
  C436     1.0000 0.53705  0.13829  0.67481  Biso   1.000  C
  C437     1.0000 0.34283  0.00049  0.35335  Biso   1.000  C
  C438     1.0000 0.68050  0.81799  0.47966  Biso   1.000  C
  C439     1.0000 0.53892  0.63597  0.80307  Biso   1.000  C
  C440     1.0000 0.70882  0.51044  0.14025  Biso   1.000  C
  C441     1.0000 0.38644  0.31178  0.99295  Biso   1.000  C
  C442     1.0000 0.01117  0.63463  0.67558  Biso   1.000  C
  C443     1.0000 0.21136  0.50814  0.33529  Biso   1.000  C
  C444     1.0000 0.88317  0.31875  0.49154  Biso   1.000  C
  C445     1.0000 0.03838  0.85015  0.17501  Biso   1.000  C
  C446     1.0000 0.21889  0.98190  0.85341  Biso   1.000  C
  C447     1.0000 0.88701  0.18113  0.98778  Biso   1.000  C
  C448     1.0000 0.52223  0.84020  0.30869  Biso   1.000  C
  C449     1.0000 0.71811  0.99684  0.63247  Biso   1.000  C
  C450     1.0000 0.38656  0.17307  0.49863  Biso   1.000  C
  C451     1.0000 0.52534  0.34200  0.17099  Biso   1.000  C
  C452     1.0000 0.35110  0.48688  0.83876  Biso   1.000  C
  C453     1.0000 0.67870  0.67685  0.96971  Biso   1.000  C
  C454     1.0000 0.01094  0.34829  0.30389  Biso   1.000  C
  C455     1.0000 0.85134  0.49864  0.63923  Biso   1.000  C
  C456     1.0000 0.17772  0.67251  0.51513  Biso   1.000  C
  C457     1.0000 0.04173  0.64790  0.31361  Biso   1.000  C
  C458     1.0000 0.35856  0.98031  0.64991  Biso   1.000  C
  C459     1.0000 0.67995  0.31687  0.00585  Biso   1.000  C
  C460     1.0000 0.51721  0.64116  0.16382  Biso   1.000  C
  C461     1.0000 0.85959  0.99820  0.83093  Biso   1.000  C
  C462     1.0000 0.18292  0.31609  0.48733  Biso   1.000  C
  C463     1.0000 0.52216  0.14153  0.31206  Biso   1.000  C
  C464     1.0000 0.21556  0.49012  0.63429  Biso   1.000  C
  C465     1.0000 0.87769  0.82042  0.97874  Biso   1.000  C
  C466     1.0000 0.01320  0.14564  0.16795  Biso   1.000  C
  C467     1.0000 0.71217  0.49104  0.83922  Biso   1.000  C
  C468     1.0000 0.38057  0.80951  0.51161  Biso   1.000  C
  C469     1.0000 0.02530  0.33986  0.66727  Biso   1.000  C
  C470     1.0000 0.70416  0.99779  0.33298  Biso   1.000  C
  C471     1.0000 0.37930  0.67227  0.98117  Biso   1.000  C
  C472     1.0000 0.53815  0.33944  0.80612  Biso   1.000  C
  C473     1.0000 0.20500  0.00342  0.15041  Biso   1.000  C
  C474     1.0000 0.88267  0.68079  0.48444  Biso   1.000  C
  C475     1.0000 0.56156  0.84258  0.67193  Biso   1.000  C
  C476     1.0000 0.84258  0.50025  0.34345  Biso   1.000  C
  C477     1.0000 0.18864  0.17506  0.98599  Biso   1.000  C
  C478     1.0000 0.03907  0.83733  0.80895  Biso   1.000  C
  C479     1.0000 0.34579  0.50824  0.13732  Biso   1.000  C
  C480     1.0000 0.68033  0.18136  0.49351  Biso   1.000  C
  C481     1.0000 0.39654  0.78291  0.51288  Biso   1.000  C
  C482     1.0000 0.53064  0.35248  0.77766  Biso   1.000  C
  C483     1.0000 0.81505  0.49874  0.36041  Biso   1.000  C
  C484     1.0000 0.89365  0.79295  0.98239  Biso   1.000  C
  C485     1.0000 0.01771  0.35625  0.69537  Biso   1.000  C
  C486     1.0000 0.32062  0.51054  0.11865  Biso   1.000  C
  C487     1.0000 0.16480  0.29010  0.48942  Biso   1.000  C
  C488     1.0000 0.03770  0.85135  0.78159  Biso   1.000  C
  C489     1.0000 0.73130  0.00654  0.34705  Biso   1.000  C
  C490     1.0000 0.66560  0.28993  0.00693  Biso   1.000  C
  C491     1.0000 0.56954  0.85770  0.69903  Biso   1.000  C
  C492     1.0000 0.23396  0.99953  0.13413  Biso   1.000  C
  C493     1.0000 0.66337  0.20777  0.49839  Biso   1.000  C
  C494     1.0000 0.51699  0.62531  0.19057  Biso   1.000  C
  C495     1.0000 0.24284  0.49255  0.61828  Biso   1.000  C
  C496     1.0000 0.17455  0.20195  0.98046  Biso   1.000  C
  C497     1.0000 0.04477  0.63267  0.28633  Biso   1.000  C
  C498     1.0000 0.73792  0.49098  0.85543  Biso   1.000  C
  C499     1.0000 0.90039  0.70678  0.48546  Biso   1.000  C
  C500     1.0000 0.00460  0.13116  0.19450  Biso   1.000  C
  C501     1.0000 0.33179  0.97950  0.63355  Biso   1.000  C
  C502     1.0000 0.39471  0.69930  0.98307  Biso   1.000  C
  C503     1.0000 0.52068  0.12440  0.28405  Biso   1.000  C
  C504     1.0000 0.83113  0.00304  0.84362  Biso   1.000  C
  C505     1.0000 0.66712  0.48606  0.77863  Biso   1.000  C
  C506     1.0000 0.82022  0.63535  0.48168  Biso   1.000  C
  C507     1.0000 0.54818  0.78353  0.62382  Biso   1.000  C
  C508     1.0000 0.16541  0.49375  0.69515  Biso   1.000  C
  C509     1.0000 0.32140  0.62370  0.97770  Biso   1.000  C
  C510     1.0000 0.03083  0.78098  0.85957  Biso   1.000  C
  C511     1.0000 0.91290  0.99220  0.77438  Biso   1.000  C
  C512     1.0000 0.74020  0.13367  0.48085  Biso   1.000  C
  C513     1.0000 0.04292  0.28497  0.61531  Biso   1.000  C
  C514     1.0000 0.40988  0.98654  0.70922  Biso   1.000  C
  C515     1.0000 0.24513  0.12158  0.00305  Biso   1.000  C
  C516     1.0000 0.55877  0.28744  0.85730  Biso   1.000  C
  C517     1.0000 0.39261  0.50632  0.19998  Biso   1.000  C
  C518     1.0000 0.24421  0.36344  0.49193  Biso   1.000  C
  C519     1.0000 0.51768  0.19993  0.35931  Biso   1.000  C
  C520     1.0000 0.89047  0.50363  0.28140  Biso   1.000  C
  C521     1.0000 0.73875  0.36480  0.99435  Biso   1.000  C
  C522     1.0000 0.02827  0.20344  0.12012  Biso   1.000  C
  C523     1.0000 0.15517  0.01405  0.20736  Biso   1.000  C
  C524     1.0000 0.32057  0.86031  0.52062  Biso   1.000  C
  C525     1.0000 0.04365  0.70801  0.36178  Biso   1.000  C
  C526     1.0000 0.65419  0.98093  0.27726  Biso   1.000  C
  C527     1.0000 0.81970  0.87089  0.97320  Biso   1.000  C
  C528     1.0000 0.51994  0.70009  0.11578  Biso   1.000  C
  C529     1.0000 0.82526  0.13594  0.98088  Biso   1.000  C
  C530     1.0000 0.03408  0.78909  0.12965  Biso   1.000  C
  C531     1.0000 0.17555  0.98854  0.79071  Biso   1.000  C
  C532     1.0000 0.32505  0.12615  0.49958  Biso   1.000  C
  C533     1.0000 0.53678  0.78165  0.35731  Biso   1.000  C
  C534     1.0000 0.67390  0.99321  0.69582  Biso   1.000  C
  C535     1.0000 0.73857  0.62884  0.96956  Biso   1.000  C
  C536     1.0000 0.51418  0.28342  0.12277  Biso   1.000  C
  C537     1.0000 0.39976  0.49119  0.77837  Biso   1.000  C
  C538     1.0000 0.23958  0.62855  0.49696  Biso   1.000  C
  C539     1.0000 0.01684  0.28815  0.35404  Biso   1.000  C
  C540     1.0000 0.89882  0.48405  0.69750  Biso   1.000  C
  C541     1.0000 0.23986  0.85635  0.00408  Biso   1.000  C
  C542     1.0000 0.02540  0.19711  0.85259  Biso   1.000  C
  C543     1.0000 0.88948  0.99310  0.19439  Biso   1.000  C
  C544     1.0000 0.73750  0.86772  0.48126  Biso   1.000  C
  C545     1.0000 0.54059  0.19761  0.62648  Biso   1.000  C
  C546     1.0000 0.38872  0.00632  0.29029  Biso   1.000  C
  C547     1.0000 0.32868  0.36011  0.00890  Biso   1.000  C
  C548     1.0000 0.52726  0.69524  0.85192  Biso   1.000  C
  C549     1.0000 0.65952  0.50672  0.20127  Biso   1.000  C
  C550     1.0000 0.82135  0.36516  0.49038  Biso   1.000  C
  C551     1.0000 0.00230  0.69592  0.62785  Biso   1.000  C
  C552     1.0000 0.16030  0.49615  0.27992  Biso   1.000  C
  C553     1.0000 0.01719  0.12023  0.77875  Biso   1.000  C
  C554     1.0000 0.81396  0.99945  0.11843  Biso   1.000  C
  C555     1.0000 0.16148  0.78485  0.00425  Biso   1.000  C
  C556     1.0000 0.53798  0.12243  0.70174  Biso   1.000  C
  C557     1.0000 0.31522  0.00132  0.36947  Biso   1.000  C
  C558     1.0000 0.66586  0.79063  0.47958  Biso   1.000  C
  C559     1.0000 0.54440  0.62358  0.77589  Biso   1.000  C
  C560     1.0000 0.73655  0.51030  0.12517  Biso   1.000  C
  C561     1.0000 0.40131  0.28587  0.98224  Biso   1.000  C
  C562     1.0000 0.00888  0.61549  0.70110  Biso   1.000  C
  C563     1.0000 0.23791  0.51552  0.34967  Biso   1.000  C
  C564     1.0000 0.90070  0.29274  0.49594  Biso   1.000  C
  C565     1.0000 0.04363  0.86631  0.20178  Biso   1.000  C
  C566     1.0000 0.24386  0.97743  0.87126  Biso   1.000  C
  C567     1.0000 0.90279  0.20762  0.99061  Biso   1.000  C
  C568     1.0000 0.51939  0.85718  0.28233  Biso   1.000  C
  C569     1.0000 0.74307  0.99578  0.61279  Biso   1.000  C
  C570     1.0000 0.40186  0.20006  0.49556  Biso   1.000  C
  C571     1.0000 0.53221  0.35546  0.19951  Biso   1.000  C
  C572     1.0000 0.32447  0.48383  0.85658  Biso   1.000  C
  C573     1.0000 0.66086  0.70188  0.96857  Biso   1.000  C
  C574     1.0000 0.00840  0.36415  0.27682  Biso   1.000  C
  C575     1.0000 0.82233  0.50059  0.62657  Biso   1.000  C
  C576     1.0000 0.16214  0.69898  0.52252  Biso   1.000  C
  C577     1.0000 0.32381  0.50429  0.08850  Biso   1.000  C
  C578     1.0000 0.13274  0.29179  0.48659  Biso   1.000  C
  C579     1.0000 0.52426  0.09379  0.28203  Biso   1.000  C
  C580     1.0000 0.81712  0.49638  0.39179  Biso   1.000  C
  C581     1.0000 0.63423  0.28974  0.00483  Biso   1.000  C
  C582     1.0000 0.00709  0.10022  0.19587  Biso   1.000  C
  C583     1.0000 0.23343  0.99883  0.10280  Biso   1.000  C
  C584     1.0000 0.42901  0.78308  0.50820  Biso   1.000  C
  C585     1.0000 0.04592  0.60107  0.28665  Biso   1.000  C
  C586     1.0000 0.73220  0.01043  0.37761  Biso   1.000  C
  C587     1.0000 0.92543  0.79150  0.98191  Biso   1.000  C
  C588     1.0000 0.51545  0.59428  0.18970  Biso   1.000  C
  C589     1.0000 0.73364  0.48889  0.88672  Biso   1.000  C
  C590     1.0000 0.93222  0.70492  0.48164  Biso   1.000  C
  C591     1.0000 0.56955  0.88949  0.69933  Biso   1.000  C
  C592     1.0000 0.24099  0.49305  0.58693  Biso   1.000  C
  C593     1.0000 0.42675  0.69871  0.98039  Biso   1.000  C
  C594     1.0000 0.03981  0.88346  0.78021  Biso   1.000  C
  C595     1.0000 0.82798  0.00378  0.87486  Biso   1.000  C
  C596     1.0000 0.63231  0.20800  0.50064  Biso   1.000  C
  C597     1.0000 0.01757  0.38844  0.69450  Biso   1.000  C
  C598     1.0000 0.33079  0.97966  0.60224  Biso   1.000  C
  C599     1.0000 0.14295  0.20218  0.98032  Biso   1.000  C
  C600     1.0000 0.52482  0.38371  0.77745  Biso   1.000  C
  C601     1.0000 0.24146  0.97760  0.90214  Biso   1.000  C
  C602     1.0000 0.93513  0.20518  0.99237  Biso   1.000  C
  C603     1.0000 0.03889  0.89672  0.20134  Biso   1.000  C
  C604     1.0000 0.74076  0.99684  0.58228  Biso   1.000  C
  C605     1.0000 0.43263  0.19940  0.49511  Biso   1.000  C
  C606     1.0000 0.51529  0.88795  0.28329  Biso   1.000  C
  C607     1.0000 0.32644  0.48067  0.88809  Biso   1.000  C
  C608     1.0000 0.62851  0.69833  0.96882  Biso   1.000  C
  C609     1.0000 0.53394  0.38711  0.20049  Biso   1.000  C
  C610     1.0000 0.82042  0.50378  0.59538  Biso   1.000  C
  C611     1.0000 0.13039  0.70058  0.52144  Biso   1.000  C
  C612     1.0000 0.00812  0.39572  0.27802  Biso   1.000  C
  C613     1.0000 0.81490  0.00030  0.08693  Biso   1.000  C
  C614     1.0000 0.12988  0.78521  0.00490  Biso   1.000  C
  C615     1.0000 0.01626  0.08853  0.78028  Biso   1.000  C
  C616     1.0000 0.31808  0.99796  0.39945  Biso   1.000  C
  C617     1.0000 0.63468  0.79041  0.47950  Biso   1.000  C
  C618     1.0000 0.53263  0.09247  0.70050  Biso   1.000  C
  C619     1.0000 0.73621  0.50856  0.09346  Biso   1.000  C
  C620     1.0000 0.43241  0.28703  0.97882  Biso   1.000  C
  C621     1.0000 0.54427  0.59205  0.77381  Biso   1.000  C
  C622     1.0000 0.23938  0.51580  0.38047  Biso   1.000  C
  C623     1.0000 0.93278  0.29415  0.49512  Biso   1.000  C
  C624     1.0000 0.01382  0.58542  0.69904  Biso   1.000  C
  C625     1.0000 0.02629  0.19734  0.88418  Biso   1.000  C
  C626     1.0000 0.92106  0.99355  0.19389  Biso   1.000  C
  C627     1.0000 0.24140  0.88696  0.00303  Biso   1.000  C
  C628     1.0000 0.53790  0.19835  0.59553  Biso   1.000  C
  C629     1.0000 0.42024  0.00264  0.28881  Biso   1.000  C
  C630     1.0000 0.73725  0.89890  0.48057  Biso   1.000  C
  C631     1.0000 0.52155  0.69343  0.88294  Biso   1.000  C
  C632     1.0000 0.62906  0.50368  0.19995  Biso   1.000  C
  C633     1.0000 0.32981  0.39163  0.00824  Biso   1.000  C
  C634     1.0000 0.00431  0.69720  0.59611  Biso   1.000  C
  C635     1.0000 0.12891  0.49247  0.28182  Biso   1.000  C
  C636     1.0000 0.82001  0.39714  0.49107  Biso   1.000  C
  C637     1.0000 0.02943  0.78938  0.09898  Biso   1.000  C
  C638     1.0000 0.14454  0.99246  0.78828  Biso   1.000  C
  C639     1.0000 0.82332  0.10481  0.97938  Biso   1.000  C
  C640     1.0000 0.53404  0.78173  0.38869  Biso   1.000  C
  C641     1.0000 0.64384  0.99428  0.69947  Biso   1.000  C
  C642     1.0000 0.32607  0.09469  0.49786  Biso   1.000  C
  C643     1.0000 0.51324  0.28571  0.09075  Biso   1.000  C
  C644     1.0000 0.43154  0.49440  0.77925  Biso   1.000  C
  C645     1.0000 0.73826  0.59720  0.97268  Biso   1.000  C
  C646     1.0000 0.02050  0.29056  0.38621  Biso   1.000  C
  C647     1.0000 0.93003  0.48024  0.69554  Biso   1.000  C
  C648     1.0000 0.23893  0.59784  0.49076  Biso   1.000  C
  C649     1.0000 0.04441  0.70753  0.39329  Biso   1.000  C
  C650     1.0000 0.44151  0.98574  0.70856  Biso   1.000  C
  C651     1.0000 0.73633  0.39509  0.98961  Biso   1.000  C
  C652     1.0000 0.52263  0.69857  0.08413  Biso   1.000  C
  C653     1.0000 0.94300  0.98607  0.77549  Biso   1.000  C
  C654     1.0000 0.24618  0.39448  0.48804  Biso   1.000  C
  C655     1.0000 0.52072  0.19908  0.39186  Biso   1.000  C
  C656     1.0000 0.13330  0.49029  0.69377  Biso   1.000  C
  C657     1.0000 0.81840  0.90170  0.97239  Biso   1.000  C
  C658     1.0000 0.03693  0.20260  0.09041  Biso   1.000  C
  C659     1.0000 0.63594  0.48302  0.77751  Biso   1.000  C
  C660     1.0000 0.32214  0.89070  0.51516  Biso   1.000  C
  C661     1.0000 0.04626  0.29021  0.58454  Biso   1.000  C
  C662     1.0000 0.62303  0.97790  0.27998  Biso   1.000  C
  C663     1.0000 0.32506  0.59235  0.97679  Biso   1.000  C
  C664     1.0000 0.55665  0.29041  0.89008  Biso   1.000  C
  C665     1.0000 0.12403  0.01303  0.20739  Biso   1.000  C
  C666     1.0000 0.82056  0.60333  0.48250  Biso   1.000  C
  C667     1.0000 0.54144  0.78338  0.59257  Biso   1.000  C
  C668     1.0000 0.92294  0.50227  0.28020  Biso   1.000  C
  C669     1.0000 0.24149  0.09002  0.00418  Biso   1.000  C
  C670     1.0000 0.02806  0.78385  0.89084  Biso   1.000  C
  C671     1.0000 0.42363  0.50018  0.19994  Biso   1.000  C
  C672     1.0000 0.73891  0.10192  0.47466  Biso   1.000  C
  C673     1.0000 0.23583  0.97876  0.80701  Biso   1.000  C
  C674     1.0000 0.84011  0.19716  0.98984  Biso   1.000  C
  C675     1.0000 0.04134  0.80282  0.18731  Biso   1.000  C
  C676     1.0000 0.73672  0.99675  0.67883  Biso   1.000  C
  C677     1.0000 0.33894  0.18751  0.49504  Biso   1.000  C
  C678     1.0000 0.53003  0.79402  0.29343  Biso   1.000  C
  C679     1.0000 0.33415  0.49203  0.79360  Biso   1.000  C
  C680     1.0000 0.72474  0.69332  0.96918  Biso   1.000  C
  C681     1.0000 0.52116  0.29559  0.18707  Biso   1.000  C
  C682     1.0000 0.83833  0.49552  0.68629  Biso   1.000  C
  C683     1.0000 0.22696  0.68492  0.51848  Biso   1.000  C
  C684     1.0000 0.01267  0.30022  0.28948  Biso   1.000  C
  C685     1.0000 0.82594  0.99614  0.17940  Biso   1.000  C
  C686     1.0000 0.22230  0.79367  0.00240  Biso   1.000  C
  C687     1.0000 0.02260  0.18235  0.78945  Biso   1.000  C
  C688     1.0000 0.32636  0.00717  0.30824  Biso   1.000  C
  C689     1.0000 0.72785  0.80652  0.47817  Biso   1.000  C
  C690     1.0000 0.54101  0.18283  0.69047  Biso   1.000  C
  C691     1.0000 0.72188  0.50994  0.18615  Biso   1.000  C
  C692     1.0000 0.34017  0.29768  0.99806  Biso   1.000  C
  C693     1.0000 0.53948  0.68368  0.79147  Biso   1.000  C
  C694     1.0000 0.22316  0.50854  0.28785  Biso   1.000  C
  C695     1.0000 0.83785  0.30282  0.49448  Biso   1.000  C
  C696     1.0000 0.00917  0.67920  0.69278  Biso   1.000  C
  C697     1.0000 0.71550  0.99179  0.28747  Biso   1.000  C
  C698     1.0000 0.33240  0.68514  0.98501  Biso   1.000  C
  C699     1.0000 0.02956  0.29267  0.67926  Biso   1.000  C
  C700     1.0000 0.21792  0.00266  0.19680  Biso   1.000  C
  C701     1.0000 0.83522  0.69763  0.48531  Biso   1.000  C
  C702     1.0000 0.54367  0.29217  0.79588  Biso   1.000  C
  C703     1.0000 0.82783  0.50372  0.29681  Biso   1.000  C
  C704     1.0000 0.23551  0.18647  0.99380  Biso   1.000  C
  C705     1.0000 0.55866  0.79638  0.68656  Biso   1.000  C
  C706     1.0000 0.33156  0.51668  0.18187  Biso   1.000  C
  C707     1.0000 0.72680  0.19685  0.49054  Biso   1.000  C
  C708     1.0000 0.02959  0.79045  0.79752  Biso   1.000  C
  C709     1.0000 0.34434  0.98099  0.69500  Biso   1.000  C
  C710     1.0000 0.72853  0.30468  0.00156  Biso   1.000  C
  C711     1.0000 0.04186  0.69564  0.29976  Biso   1.000  C
  C712     1.0000 0.84870  0.99620  0.78306  Biso   1.000  C
  C713     1.0000 0.23021  0.30039  0.48988  Biso   1.000  C
  C714     1.0000 0.51940  0.68862  0.17863  Biso   1.000  C
  C715     1.0000 0.22927  0.48962  0.68068  Biso   1.000  C
  C716     1.0000 0.82931  0.80907  0.97671  Biso   1.000  C
  C717     1.0000 0.51831  0.18832  0.29721  Biso   1.000  C
  C718     1.0000 0.72865  0.49128  0.79360  Biso   1.000  C
  C719     1.0000 0.33439  0.79487  0.51797  Biso   1.000  C
  C720     1.0000 0.01107  0.19215  0.18219  Biso   1.000  C
  C721     1.0000 0.53812  0.79982  0.26377  Biso   1.000  C
  C722     1.0000 0.33884  0.51306  0.77098  Biso   1.000  C
  C723     1.0000 0.81108  0.30469  0.51323  Biso   1.000  C
  C724     1.0000 0.01835  0.77923  0.18846  Biso   1.000  C
  C725     1.0000 0.81500  0.51719  0.69217  Biso   1.000  C
  C726     1.0000 0.31136  0.30185  0.98598  Biso   1.000  C
  C727     1.0000 0.99540  0.27439  0.29354  Biso   1.000  C
  C728     1.0000 0.26310  0.99306  0.81168  Biso   1.000  C
  C729     1.0000 0.75255  0.80819  0.49670  Biso   1.000  C
  C730     1.0000 0.50889  0.30245  0.21545  Biso   1.000  C
  C731     1.0000 0.76450  0.98173  0.67415  Biso   1.000  C
  C732     1.0000 0.24566  0.79621  0.98184  Biso   1.000  C
  C733     1.0000 0.52402  0.18099  0.71749  Biso   1.000  C
  C734     1.0000 0.71963  0.49484  0.21441  Biso   1.000  C
  C735     1.0000 0.22346  0.71577  0.51145  Biso   1.000  C
  C736     1.0000 0.00896  0.21152  0.79191  Biso   1.000  C
  C737     1.0000 0.25291  0.49728  0.29179  Biso   1.000  C
  C738     1.0000 0.75304  0.68836  0.98420  Biso   1.000  C
  C739     1.0000 0.02498  0.67417  0.72000  Biso   1.000  C
  C740     1.0000 0.79794  0.97999  0.17572  Biso   1.000  C
  C741     1.0000 0.31214  0.18355  0.47867  Biso   1.000  C
  C742     1.0000 0.56547  0.68583  0.77229  Biso   1.000  C
  C743     1.0000 0.30452  0.98463  0.31014  Biso   1.000  C
  C744     1.0000 0.84131  0.22037  0.01042  Biso   1.000  C
  C745     1.0000 0.06038  0.72091  0.29966  Biso   1.000  C
  C746     1.0000 0.31568  0.99516  0.69454  Biso   1.000  C
  C747     1.0000 0.75770  0.31005  0.01320  Biso   1.000  C
  C748     1.0000 0.53798  0.71364  0.17447  Biso   1.000  C
  C749     1.0000 0.84909  0.97391  0.76081  Biso   1.000  C
  C750     1.0000 0.25601  0.29928  0.50914  Biso   1.000  C
  C751     1.0000 0.53387  0.18523  0.27086  Biso   1.000  C
  C752     1.0000 0.25895  0.47755  0.67743  Biso   1.000  C
  C753     1.0000 0.80368  0.81059  0.95949  Biso   1.000  C
  C754     1.0000 0.02283  0.18520  0.21108  Biso   1.000  C
  C755     1.0000 0.72988  0.46904  0.77120  Biso   1.000  C
  C756     1.0000 0.31089  0.79676  0.54049  Biso   1.000  C
  C757     1.0000 0.01548  0.26538  0.67408  Biso   1.000  C
  C758     1.0000 0.71002  0.00763  0.26090  Biso   1.000  C
  C759     1.0000 0.30537  0.67966  0.99990  Biso   1.000  C
  C760     1.0000 0.55639  0.29479  0.76674  Biso   1.000  C
  C761     1.0000 0.24508  0.01865  0.19425  Biso   1.000  C
  C762     1.0000 0.84293  0.72406  0.47037  Biso   1.000  C
  C763     1.0000 0.54362  0.80196  0.71340  Biso   1.000  C
  C764     1.0000 0.80176  0.52105  0.30004  Biso   1.000  C
  C765     1.0000 0.25625  0.18719  0.01494  Biso   1.000  C
  C766     1.0000 0.00959  0.79444  0.77308  Biso   1.000  C
  C767     1.0000 0.33237  0.53617  0.20556  Biso   1.000  C
  C768     1.0000 0.72329  0.22563  0.47863  Biso   1.000  C
  C769     1.0000 0.51764  0.70753  0.78816  Biso   1.000  C
  C770     1.0000 0.83747  0.46890  0.70386  Biso   1.000  C
  C771     1.0000 0.72637  0.78063  0.46033  Biso   1.000  C
  C772     1.0000 0.99266  0.70606  0.69179  Biso   1.000  C
  C773     1.0000 0.30640  0.47597  0.79615  Biso   1.000  C
  C774     1.0000 0.21985  0.76724  0.01916  Biso   1.000  C
  C775     1.0000 0.03433  0.17614  0.75873  Biso   1.000  C
  C776     1.0000 0.73535  0.01217  0.70734  Biso   1.000  C
  C777     1.0000 0.84395  0.27401  0.48051  Biso   1.000  C
  C778     1.0000 0.56124  0.20724  0.68663  Biso   1.000  C
  C779     1.0000 0.23216  0.96347  0.77938  Biso   1.000  C
  C780     1.0000 0.34594  0.26868  0.00860  Biso   1.000  C
  C781     1.0000 0.53016  0.26632  0.18197  Biso   1.000  C
  C782     1.0000 0.21555  0.52357  0.26176  Biso   1.000  C
  C783     1.0000 0.34327  0.21490  0.51058  Biso   1.000  C
  C784     1.0000 0.02983  0.30385  0.26223  Biso   1.000  C
  C785     1.0000 0.75026  0.52467  0.18150  Biso   1.000  C
  C786     1.0000 0.81525  0.19802  0.97168  Biso   1.000  C
  C787     1.0000 0.06411  0.80135  0.20952  Biso   1.000  C
  C788     1.0000 0.32577  0.02822  0.28624  Biso   1.000  C
  C789     1.0000 0.25376  0.67742  0.53084  Biso   1.000  C
  C790     1.0000 0.51959  0.76395  0.29855  Biso   1.000  C
  C791     1.0000 0.82898  0.01337  0.20615  Biso   1.000  C
  C792     1.0000 0.72114  0.72204  0.95668  Biso   1.000  C
  C793     1.0000 0.50029  0.21399  0.30018  Biso   1.000  C
  C794     1.0000 0.30578  0.49955  0.17925  Biso   1.000  C
  C795     1.0000 0.22745  0.27342  0.47307  Biso   1.000  C
  C796     1.0000 0.99884  0.22043  0.17648  Biso   1.000  C
  C797     1.0000 0.83317  0.48959  0.26779  Biso   1.000  C
  C798     1.0000 0.72486  0.27671  0.98730  Biso   1.000  C
  C799     1.0000 0.02266  0.69316  0.27490  Biso   1.000  C
  C800     1.0000 0.21405  0.98818  0.22560  Biso   1.000  C
  C801     1.0000 0.33710  0.76645  0.50536  Biso   1.000  C
  C802     1.0000 0.50356  0.68562  0.20614  Biso   1.000  C
  C803     1.0000 0.74259  0.97591  0.29107  Biso   1.000  C
  C804     1.0000 0.83201  0.78356  0.99447  Biso   1.000  C
  C805     1.0000 0.57272  0.76943  0.68311  Biso   1.000  C
  C806     1.0000 0.75443  0.50854  0.79623  Biso   1.000  C
  C807     1.0000 0.80670  0.69477  0.49819  Biso   1.000  C
  C808     1.0000 0.04212  0.75981  0.80183  Biso   1.000  C
  C809     1.0000 0.22451  0.50915  0.70488  Biso   1.000  C
  C810     1.0000 0.33460  0.71452  0.97467  Biso   1.000  C
  C811     1.0000 0.03768  0.29836  0.70953  Biso   1.000  C
  C812     1.0000 0.82586  0.01706  0.78290  Biso   1.000  C
  C813     1.0000 0.75423  0.19133  0.50433  Biso   1.000  C
  C814     1.0000 0.53385  0.26355  0.80288  Biso   1.000  C
  C815     1.0000 0.35026  0.96587  0.72269  Biso   1.000  C
  C816     1.0000 0.23604  0.20952  0.97238  Biso   1.000  C
  C817     1.0000 0.01053  0.23145  0.77010  Biso   1.000  C
  C818     1.0000 0.77639  0.98085  0.19768  Biso   1.000  C
  C819     1.0000 0.26585  0.77402  0.97912  Biso   1.000  C
  C820     1.0000 0.52822  0.20011  0.73947  Biso   1.000  C
  C821     1.0000 0.28159  0.98483  0.28910  Biso   1.000  C
  C822     1.0000 0.77323  0.78606  0.49654  Biso   1.000  C
  C823     1.0000 0.57103  0.70945  0.75506  Biso   1.000  C
  C824     1.0000 0.74170  0.49406  0.23412  Biso   1.000  C
  C825     1.0000 0.29089  0.28100  0.98853  Biso   1.000  C
  C826     1.0000 0.02499  0.69376  0.74209  Biso   1.000  C
  C827     1.0000 0.27188  0.50244  0.27028  Biso   1.000  C
  C828     1.0000 0.79000  0.28227  0.51169  Biso   1.000  C
  C829     1.0000 0.02016  0.75895  0.20883  Biso   1.000  C
  C830     1.0000 0.28477  0.99224  0.79056  Biso   1.000  C
  C831     1.0000 0.82178  0.24339  0.01094  Biso   1.000  C
  C832     1.0000 0.53942  0.77768  0.24257  Biso   1.000  C
  C833     1.0000 0.78575  0.98174  0.69374  Biso   1.000  C
  C834     1.0000 0.29100  0.20382  0.47665  Biso   1.000  C
  C835     1.0000 0.50707  0.28153  0.23700  Biso   1.000  C
  C836     1.0000 0.31853  0.51436  0.74762  Biso   1.000  C
  C837     1.0000 0.77289  0.71010  0.98497  Biso   1.000  C
  C838     1.0000 0.99588  0.25427  0.27158  Biso   1.000  C
  C839     1.0000 0.79613  0.51356  0.71602  Biso   1.000  C
  C840     1.0000 0.24581  0.73587  0.51421  Biso   1.000  C
  C841     1.0000 0.25378  0.96441  0.75800  Biso   1.000  C
  C842     1.0000 0.79440  0.21935  0.97286  Biso   1.000  C
  C843     1.0000 0.06327  0.78146  0.23097  Biso   1.000  C
  C844     1.0000 0.75882  0.01399  0.72533  Biso   1.000  C
  C845     1.0000 0.32016  0.23361  0.50929  Biso   1.000  C
  C846     1.0000 0.51822  0.74382  0.27460  Biso   1.000  C
  C847     1.0000 0.28805  0.47966  0.77294  Biso   1.000  C
  C848     1.0000 0.74162  0.74258  0.95917  Biso   1.000  C
  C849     1.0000 0.52599  0.24626  0.20268  Biso   1.000  C
  C850     1.0000 0.81790  0.46666  0.72602  Biso   1.000  C
  C851     1.0000 0.27467  0.69815  0.53737  Biso   1.000  C
  C852     1.0000 0.03005  0.28174  0.24214  Biso   1.000  C
  C853     1.0000 0.80663  0.01064  0.22661  Biso   1.000  C
  C854     1.0000 0.24101  0.74529  0.01666  Biso   1.000  C
  C855     1.0000 0.03578  0.19797  0.73775  Biso   1.000  C
  C856     1.0000 0.30300  0.02822  0.26610  Biso   1.000  C
  C857     1.0000 0.74904  0.76140  0.45870  Biso   1.000  C
  C858     1.0000 0.56401  0.22597  0.70993  Biso   1.000  C
  C859     1.0000 0.76966  0.52627  0.20355  Biso   1.000  C
  C860     1.0000 0.32551  0.24616  0.00794  Biso   1.000  C
  C861     1.0000 0.52488  0.73109  0.77010  Biso   1.000  C
  C862     1.0000 0.23636  0.52720  0.24093  Biso   1.000  C
  C863     1.0000 0.82263  0.25295  0.48279  Biso   1.000  C
  C864     1.0000 0.99459  0.72699  0.71418  Biso   1.000  C
  C865     1.0000 0.75263  0.46838  0.75067  Biso   1.000  C
  C866     1.0000 0.82296  0.74569  0.46918  Biso   1.000  C
  C867     1.0000 0.53979  0.78121  0.73424  Biso   1.000  C
  C868     1.0000 0.27758  0.47951  0.70166  Biso   1.000  C
  C869     1.0000 0.28305  0.69952  0.00233  Biso   1.000  C
  C870     1.0000 0.00372  0.77201  0.75468  Biso   1.000  C
  C871     1.0000 0.82745  0.97403  0.74101  Biso   1.000  C
  C872     1.0000 0.74644  0.24484  0.47901  Biso   1.000  C
  C873     1.0000 0.01681  0.24343  0.69546  Biso   1.000  C
  C874     1.0000 0.29592  0.99474  0.71830  Biso   1.000  C
  C875     1.0000 0.27724  0.20766  0.01660  Biso   1.000  C
  C876     1.0000 0.55982  0.27227  0.74810  Biso   1.000  C
  C877     1.0000 0.30982  0.53788  0.22551  Biso   1.000  C
  C878     1.0000 0.27558  0.27715  0.51053  Biso   1.000  C
  C879     1.0000 0.53330  0.20693  0.24987  Biso   1.000  C
  C880     1.0000 0.78296  0.52259  0.27568  Biso   1.000  C
  C881     1.0000 0.78102  0.29107  0.00873  Biso   1.000  C
  C882     1.0000 0.02109  0.20628  0.23226  Biso   1.000  C
  C883     1.0000 0.26423  0.01921  0.21689  Biso   1.000  C
  C884     1.0000 0.29165  0.77482  0.54490  Biso   1.000  C
  C885     1.0000 0.06064  0.73943  0.27682  Biso   1.000  C
  C886     1.0000 0.73200  0.00852  0.23961  Biso   1.000  C
  C887     1.0000 0.78430  0.78699  0.95858  Biso   1.000  C
  C888     1.0000 0.54056  0.73252  0.19794  Biso   1.000  C
  C889     1.0000 0.76456  0.97931  0.26919  Biso   1.000  C
  C890     1.0000 0.31248  0.73464  0.97736  Biso   1.000  C
  C891     1.0000 0.03625  0.27610  0.73103  Biso   1.000  C
  C892     1.0000 0.23469  0.99018  0.24750  Biso   1.000  C
  C893     1.0000 0.78646  0.71758  0.49593  Biso   1.000  C
  C894     1.0000 0.53829  0.24020  0.78497  Biso   1.000  C
  C895     1.0000 0.81355  0.49255  0.24572  Biso   1.000  C
  C896     1.0000 0.25610  0.23148  0.97462  Biso   1.000  C
  C897     1.0000 0.57003  0.75031  0.70596  Biso   1.000  C
  C898     1.0000 0.28368  0.50010  0.19956  Biso   1.000  C
  C899     1.0000 0.77585  0.21078  0.50654  Biso   1.000  C
  C900     1.0000 0.03377  0.73850  0.78297  Biso   1.000  C
  C901     1.0000 0.32922  0.96410  0.74394  Biso   1.000  C
  C902     1.0000 0.74733  0.25576  0.98613  Biso   1.000  C
  C903     1.0000 0.02367  0.71283  0.25205  Biso   1.000  C
  C904     1.0000 0.80563  0.01738  0.76184  Biso   1.000  C
  C905     1.0000 0.24801  0.25091  0.47618  Biso   1.000  C
  C906     1.0000 0.50932  0.70417  0.22805  Biso   1.000  C
  C907     1.0000 0.24562  0.51334  0.72611  Biso   1.000  C
  C908     1.0000 0.81228  0.76010  0.99351  Biso   1.000  C
  C909     1.0000 0.50033  0.23494  0.27798  Biso   1.000  C
  C910     1.0000 0.77862  0.50614  0.77721  Biso   1.000  C
  C911     1.0000 0.31682  0.74484  0.51145  Biso   1.000  C
  C912     1.0000 0.00062  0.24106  0.19741  Biso   1.000  C
  C913     1.0000 0.79869  0.48960  0.73296  Biso   1.000  C
  C914     1.0000 0.77137  0.76355  0.47818  Biso   1.000  C
  C915     1.0000 0.55026  0.73211  0.75237  Biso   1.000  C
  C916     1.0000 0.29272  0.49932  0.74966  Biso   1.000  C
  C917     1.0000 0.26437  0.74973  0.99606  Biso   1.000  C
  C918     1.0000 0.01061  0.72071  0.73862  Biso   1.000  C
  C919     1.0000 0.78296  0.99762  0.71943  Biso   1.000  C
  C920     1.0000 0.79484  0.25813  0.49429  Biso   1.000  C
  C921     1.0000 0.02623  0.22545  0.74471  Biso   1.000  C
  C922     1.0000 0.28004  0.97830  0.76469  Biso   1.000  C
  C923     1.0000 0.29801  0.25317  0.99813  Biso   1.000  C
  C924     1.0000 0.54659  0.22390  0.73404  Biso   1.000  C
  C925     1.0000 0.26466  0.51805  0.24541  Biso   1.000  C
  C926     1.0000 0.29547  0.22958  0.49162  Biso   1.000  C
  C927     1.0000 0.51448  0.25329  0.22911  Biso   1.000  C
  C928     1.0000 0.76685  0.50923  0.22803  Biso   1.000  C
  C929     1.0000 0.79651  0.24165  0.99399  Biso   1.000  C
  C930     1.0000 0.01245  0.25805  0.24591  Biso   1.000  C
  C931     1.0000 0.28175  0.00647  0.26653  Biso   1.000  C
  C932     1.0000 0.26992  0.72705  0.52935  Biso   1.000  C
  C933     1.0000 0.04186  0.75944  0.23005  Biso   1.000  C
  C934     1.0000 0.78078  0.99693  0.22123  Biso   1.000  C
  C935     1.0000 0.76805  0.73713  0.97200  Biso   1.000  C
  C936     1.0000 0.52739  0.75096  0.24732  Biso   1.000  C
  C937     1.0000 0.77549  0.26458  0.99565  Biso   1.000  C
  C938     1.0000 0.04268  0.73711  0.25329  Biso   1.000  C
  C939     1.0000 0.30332  0.97921  0.74282  Biso   1.000  C
  C940     1.0000 0.27190  0.25230  0.49399  Biso   1.000  C
  C941     1.0000 0.52619  0.72723  0.22418  Biso   1.000  C
  C942     1.0000 0.80600  0.99632  0.74032  Biso   1.000  C
  C943     1.0000 0.78791  0.76203  0.97560  Biso   1.000  C
  C944     1.0000 0.51610  0.23146  0.25260  Biso   1.000  C
  C945     1.0000 0.27253  0.49918  0.72445  Biso   1.000  C
  C946     1.0000 0.29485  0.74814  0.53091  Biso   1.000  C
  C947     1.0000 0.01052  0.23457  0.22470  Biso   1.000  C
  C948     1.0000 0.77776  0.48509  0.75611  Biso   1.000  C
  C949     1.0000 0.28682  0.72701  0.99061  Biso   1.000  C
  C950     1.0000 0.02796  0.24856  0.72245  Biso   1.000  C
  C951     1.0000 0.75937  0.99573  0.24466  Biso   1.000  C
  C952     1.0000 0.79494  0.74282  0.48052  Biso   1.000  C
  C953     1.0000 0.54969  0.24561  0.75742  Biso   1.000  C
  C954     1.0000 0.25942  0.00663  0.24389  Biso   1.000  C
  C955     1.0000 0.27614  0.23029  0.99682  Biso   1.000  C
  C956     1.0000 0.55395  0.75569  0.73164  Biso   1.000  C
  C957     1.0000 0.78804  0.50768  0.25112  Biso   1.000  C
  C958     1.0000 0.77258  0.23662  0.49199  Biso   1.000  C
  C959     1.0000 0.01614  0.74401  0.75869  Biso   1.000  C
  C960     1.0000 0.28587  0.52060  0.22096  Biso   1.000  C
  Cu1      1.0000 0.03000  0.48801  0.63824  Biso   1.000  Cu
  Cu2      1.0000 0.68416  0.00139  0.48375  Biso   1.000  Cu
  Cu3      1.0000 0.52707  0.64168  0.98207  Biso   1.000  Cu
  Cu4      1.0000 0.53347  0.48856  0.83089  Biso   1.000  Cu
  Cu5      1.0000 0.18223  0.98975  0.00058  Biso   1.000  Cu
  Cu6      1.0000 0.02917  0.64810  0.49392  Biso   1.000  Cu
  Cu7      1.0000 0.54067  0.98843  0.64844  Biso   1.000  Cu
  Cu8      1.0000 0.87381  0.50097  0.49052  Biso   1.000  Cu
  Cu9      1.0000 0.03694  0.14977  0.98687  Biso   1.000  Cu
  Cu10     1.0000 0.03855  0.98825  0.83377  Biso   1.000  Cu
  Cu11     1.0000 0.38348  0.48982  0.98805  Biso   1.000  Cu
  Cu12     1.0000 0.53624  0.14597  0.49372  Biso   1.000  Cu
  Cu13     1.0000 0.02459  0.49781  0.33552  Biso   1.000  Cu
  Cu14     1.0000 0.37914  0.98885  0.49646  Biso   1.000  Cu
  Cu15     1.0000 0.53184  0.34236  0.98996  Biso   1.000  Cu
  Cu16     1.0000 0.52787  0.49175  0.14355  Biso   1.000  Cu
  Cu17     1.0000 0.87501  0.00140  0.98421  Biso   1.000  Cu
  Cu18     1.0000 0.03294  0.34601  0.48476  Biso   1.000  Cu
  Cu19     1.0000 0.52269  0.99250  0.33829  Biso   1.000  Cu
  Cu20     1.0000 0.18823  0.49551  0.48419  Biso   1.000  Cu
  Cu21     1.0000 0.02803  0.84666  0.99559  Biso   1.000  Cu
  Cu22     1.0000 0.02572  0.99767  0.14631  Biso   1.000  Cu
  Cu23     1.0000 0.68315  0.49791  0.99081  Biso   1.000  Cu
  Cu24     1.0000 0.52831  0.83674  0.48906  Biso   1.000  Cu
  Cu25     1.0000 0.23749  0.99060  0.00161  Biso   1.000  Cu
  Cu26     1.0000 0.03889  0.20259  0.98421  Biso   1.000  Cu
  Cu27     1.0000 0.02121  0.99927  0.19934  Biso   1.000  Cu
  Cu28     1.0000 0.73719  0.99986  0.48140  Biso   1.000  Cu
  Cu29     1.0000 0.53197  0.19870  0.49484  Biso   1.000  Cu
  Cu30     1.0000 0.51941  0.99111  0.28406  Biso   1.000  Cu
  Cu31     1.0000 0.32646  0.49213  0.98817  Biso   1.000  Cu
  Cu32     1.0000 0.52645  0.69721  0.97943  Biso   1.000  Cu
  Cu33     1.0000 0.52543  0.49213  0.19788  Biso   1.000  Cu
  Cu34     1.0000 0.81876  0.50198  0.49193  Biso   1.000  Cu
  Cu35     1.0000 0.02822  0.70160  0.49648  Biso   1.000  Cu
  Cu36     1.0000 0.02558  0.49934  0.28144  Biso   1.000  Cu
  Cu37     1.0000 0.82128  0.00468  0.98115  Biso   1.000  Cu
  Cu38     1.0000 0.02473  0.79225  0.99766  Biso   1.000  Cu
  Cu39     1.0000 0.04183  0.98893  0.77889  Biso   1.000  Cu
  Cu40     1.0000 0.32528  0.99528  0.50205  Biso   1.000  Cu
  Cu41     1.0000 0.53228  0.78341  0.49133  Biso   1.000  Cu
  Cu42     1.0000 0.54236  0.99248  0.70262  Biso   1.000  Cu
  Cu43     1.0000 0.73795  0.49669  0.98812  Biso   1.000  Cu
  Cu44     1.0000 0.53452  0.29064  0.98830  Biso   1.000  Cu
  Cu45     1.0000 0.53270  0.48775  0.77664  Biso   1.000  Cu
  Cu46     1.0000 0.24294  0.49675  0.48302  Biso   1.000  Cu
  Cu47     1.0000 0.03345  0.29398  0.48502  Biso   1.000  Cu
  Cu48     1.0000 0.03083  0.48608  0.69312  Biso   1.000  Cu
  H1       1.0000 0.27393  0.78071  0.55952  Biso   1.000  H
  H2       1.0000 0.56952  0.27628  0.72748  Biso   1.000  H
  H3       1.0000 0.76447  0.53672  0.27772  Biso   1.000  H
  H4       1.0000 0.76889  0.78747  0.94203  Biso   1.000  H
  H5       1.0000 0.00970  0.22277  0.68980  Biso   1.000  H
  H6       1.0000 0.30956  0.55320  0.24410  Biso   1.000  H
  H7       1.0000 0.29432  0.28020  0.52473  Biso   1.000  H
  H8       1.0000 0.99295  0.77712  0.73495  Biso   1.000  H
  H9       1.0000 0.73133  0.02211  0.22110  Biso   1.000  H
  H10      1.0000 0.80249  0.29922  0.01338  Biso   1.000  H
  H11      1.0000 0.52924  0.78808  0.75345  Biso   1.000  H
  H12      1.0000 0.28515  0.02945  0.21505  Biso   1.000  H
  H13      1.0000 0.74479  0.26535  0.46640  Biso   1.000  H
  H14      1.0000 0.55545  0.74940  0.19284  Biso   1.000  H
  H15      1.0000 0.29853  0.47014  0.69992  Biso   1.000  H
  H16      1.0000 0.29322  0.20525  0.03437  Biso   1.000  H
  H17      1.0000 0.07465  0.75699  0.27778  Biso   1.000  H
  H18      1.0000 0.75050  0.45492  0.73229  Biso   1.000  H
  H19      1.0000 0.82790  0.76487  0.45767  Biso   1.000  H
  H20      1.0000 0.02893  0.20134  0.25492  Biso   1.000  H
  H21      1.0000 0.27422  0.00590  0.71719  Biso   1.000  H
  H22      1.0000 0.26306  0.69399  0.01182  Biso   1.000  H
  H23      1.0000 0.54884  0.20572  0.23196  Biso   1.000  H
  H24      1.0000 0.82863  0.95519  0.72637  Biso   1.000  H
  H25      1.0000 0.30478  0.00379  0.79413  Biso   1.000  H
  H26      1.0000 0.82709  0.26250  0.02375  Biso   1.000  H
  H27      1.0000 0.00479  0.74093  0.21109  Biso   1.000  H
  H28      1.0000 0.80597  0.97107  0.68688  Biso   1.000  H
  H29      1.0000 0.27224  0.19894  0.46395  Biso   1.000  H
  H30      1.0000 0.54947  0.78390  0.22264  Biso   1.000  H
  H31      1.0000 0.32247  0.52896  0.72976  Biso   1.000  H
  H32      1.0000 0.79474  0.70419  0.99417  Biso   1.000  H
  H33      1.0000 0.49622  0.28783  0.25735  Biso   1.000  H
  H34      1.0000 0.78075  0.53179  0.71837  Biso   1.000  H
  H35      1.0000 0.24232  0.75803  0.50852  Biso   1.000  H
  H36      1.0000 0.98039  0.23530  0.27379  Biso   1.000  H
  H37      1.0000 0.75555  0.96897  0.19505  Biso   1.000  H
  H38      1.0000 0.28191  0.77690  0.96083  Biso   1.000  H
  H39      1.0000 0.99714  0.25099  0.77165  Biso   1.000  H
  H40      1.0000 0.26293  0.96846  0.28969  Biso   1.000  H
  H41      1.0000 0.79267  0.78681  0.51021  Biso   1.000  H
  H42      1.0000 0.51501  0.19605  0.75846  Biso   1.000  H
  H43      1.0000 0.73924  0.48064  0.25281  Biso   1.000  H
  H44      1.0000 0.26855  0.28787  0.98198  Biso   1.000  H
  H45      1.0000 0.59015  0.70949  0.74123  Biso   1.000  H
  H46      1.0000 0.29394  0.49528  0.27144  Biso   1.000  H
  H47      1.0000 0.76760  0.28544  0.52312  Biso   1.000  H
  H48      1.0000 0.03505  0.68661  0.76209  Biso   1.000  H
  H49      1.0000 0.22932  0.53660  0.22055  Biso   1.000  H
  H50      1.0000 0.32081  0.25384  0.52323  Biso   1.000  H
  H51      1.0000 0.52911  0.22425  0.19510  Biso   1.000  H
  H52      1.0000 0.78742  0.54145  0.20384  Biso   1.000  H
  H53      1.0000 0.77454  0.21879  0.95839  Biso   1.000  H
  H54      1.0000 0.04243  0.28431  0.22262  Biso   1.000  H
  H55      1.0000 0.30238  0.04751  0.25253  Biso   1.000  H
  H56      1.0000 0.29451  0.69214  0.54740  Biso   1.000  H
  H57      1.0000 0.07832  0.78299  0.24868  Biso   1.000  H
  H58      1.0000 0.80856  0.02301  0.24836  Biso   1.000  H
  H59      1.0000 0.73530  0.76245  0.94918  Biso   1.000  H
  H60      1.0000 0.50946  0.72306  0.28093  Biso   1.000  H
  H61      1.0000 0.81676  0.44526  0.73645  Biso   1.000  H
  H62      1.0000 0.74917  0.74372  0.44327  Biso   1.000  H
  H63      1.0000 0.51001  0.75008  0.76829  Biso   1.000  H
  H64      1.0000 0.26873  0.46730  0.77403  Biso   1.000  H
  H65      1.0000 0.24123  0.72529  0.03011  Biso   1.000  H
  H66      1.0000 0.98214  0.74819  0.71295  Biso   1.000  H
  H67      1.0000 0.75820  0.02406  0.74752  Biso   1.000  H
  H68      1.0000 0.82661  0.23429  0.46668  Biso   1.000  H
  H69      1.0000 0.04381  0.19148  0.71694  Biso   1.000  H
  H70      1.0000 0.25312  0.95478  0.73575  Biso   1.000  H
  H71      1.0000 0.33039  0.22600  0.01779  Biso   1.000  H
  H72      1.0000 0.57882  0.24374  0.70746  Biso   1.000  H
  H73      1.0000 0.79728  0.51985  0.78178  Biso   1.000  H
  H74      1.0000 0.76364  0.71537  0.50753  Biso   1.000  H
  H75      1.0000 0.58162  0.72965  0.70600  Biso   1.000  H
  H76      1.0000 0.23766  0.52676  0.74427  Biso   1.000  H
  H77      1.0000 0.31682  0.75726  0.97125  Biso   1.000  H
  H78      1.0000 0.04354  0.71764  0.78698  Biso   1.000  H
  H79      1.0000 0.79078  0.03793  0.76309  Biso   1.000  H
  H80      1.0000 0.79529  0.20615  0.51689  Biso   1.000  H
  H81      1.0000 0.04086  0.27955  0.75335  Biso   1.000  H
  H82      1.0000 0.33345  0.95028  0.76342  Biso   1.000  H
  H83      1.0000 0.26026  0.24697  0.95604  Biso   1.000  H
  H84      1.0000 0.53255  0.21868  0.79149  Biso   1.000  H
  H85      1.0000 0.26440  0.48666  0.19716  Biso   1.000  H
  H86      1.0000 0.24592  0.23106  0.46530  Biso   1.000  H
  H87      1.0000 0.48737  0.25498  0.28329  Biso   1.000  H
  H88      1.0000 0.81582  0.48408  0.22308  Biso   1.000  H
  H89      1.0000 0.74289  0.23624  0.97502  Biso   1.000  H
  H90      1.0000 0.99012  0.26164  0.19025  Biso   1.000  H
  H91      1.0000 0.23234  0.97979  0.26823  Biso   1.000  H
  H92      1.0000 0.31748  0.72416  0.49902  Biso   1.000  H
  H93      1.0000 0.00985  0.71191  0.23435  Biso   1.000  H
  H94      1.0000 0.78378  0.96727  0.27082  Biso   1.000  H
  H95      1.0000 0.81506  0.74326  0.00997  Biso   1.000  H
  H96      1.0000 0.49729  0.70112  0.24914  Biso   1.000  H
  H97      1.0000 0.90265  0.99517  0.88962  Biso   1.000  H
  H98      1.0000 0.93787  0.86623  0.98636  Biso   1.000  H
  H99      1.0000 0.05152  0.89438  0.85468  Biso   1.000  H
  H100     1.0000 0.40704  0.98166  0.59093  Biso   1.000  H
  H101     1.0000 0.43798  0.85703  0.49219  Biso   1.000  H
  H102     1.0000 0.55803  0.90056  0.62601  Biso   1.000  H
  H103     1.0000 0.66166  0.49037  0.89775  Biso   1.000  H
  H104     1.0000 0.62019  0.36434  0.00380  Biso   1.000  H
  H105     1.0000 0.53300  0.40013  0.85165  Biso   1.000  H
  H106     1.0000 0.16700  0.48713  0.57767  Biso   1.000  H
  H107     1.0000 0.12609  0.36865  0.48090  Biso   1.000  H
  H108     1.0000 0.02157  0.39940  0.61829  Biso   1.000  H
  H109     1.0000 0.15637  0.00204  0.09031  Biso   1.000  H
  H110     1.0000 0.13041  0.12752  0.99088  Biso   1.000  H
  H111     1.0000 0.02885  0.08678  0.12229  Biso   1.000  H
  H112     1.0000 0.65699  0.00109  0.39515  Biso   1.000  H
  H113     1.0000 0.62199  0.13285  0.49322  Biso   1.000  H
  H114     1.0000 0.52875  0.08265  0.35923  Biso   1.000  H
  H115     1.0000 0.39771  0.49141  0.08546  Biso   1.000  H
  H116     1.0000 0.43999  0.62455  0.97062  Biso   1.000  H
  H117     1.0000 0.51667  0.58256  0.11623  Biso   1.000  H
  H118     1.0000 0.89361  0.49982  0.39835  Biso   1.000  H
  H119     1.0000 0.93717  0.63036  0.47248  Biso   1.000  H
  H120     1.0000 0.04094  0.58896  0.35994  Biso   1.000  H
  H121     1.0000 0.12901  0.99889  0.86349  Biso   1.000  H
  H122     1.0000 0.89991  0.09035  0.98712  Biso   1.000  H
  H123     1.0000 0.02516  0.86462  0.08556  Biso   1.000  H
  H124     1.0000 0.62562  0.99704  0.62597  Biso   1.000  H
  H125     1.0000 0.40132  0.08309  0.49387  Biso   1.000  H
  H126     1.0000 0.51448  0.85390  0.40021  Biso   1.000  H
  H127     1.0000 0.43907  0.49830  0.85541  Biso   1.000  H
  H128     1.0000 0.66312  0.58737  0.97719  Biso   1.000  H
  H129     1.0000 0.52041  0.36008  0.08016  Biso   1.000  H
  H130     1.0000 0.93903  0.48361  0.61894  Biso   1.000  H
  H131     1.0000 0.16176  0.58540  0.49603  Biso   1.000  H
  H132     1.0000 0.01989  0.36683  0.39238  Biso   1.000  H
  H133     1.0000 0.93274  0.99460  0.11892  Biso   1.000  H
  H134     1.0000 0.16555  0.90358  0.00602  Biso   1.000  H
  H135     1.0000 0.02749  0.12050  0.89264  Biso   1.000  H
  H136     1.0000 0.43693  0.98799  0.36157  Biso   1.000  H
  H137     1.0000 0.66130  0.90662  0.48063  Biso   1.000  H
  H138     1.0000 0.53465  0.12480  0.58516  Biso   1.000  H
  H139     1.0000 0.61636  0.50390  0.12472  Biso   1.000  H
  H140     1.0000 0.40319  0.40516  0.00495  Biso   1.000  H
  H141     1.0000 0.51766  0.61774  0.89114  Biso   1.000  H
  H142     1.0000 0.12183  0.49956  0.35746  Biso   1.000  H
  H143     1.0000 0.89459  0.40959  0.49495  Biso   1.000  H
  H144     1.0000 0.02625  0.62397  0.58515  Biso   1.000  H
  H145     1.0000 0.62030  0.48252  0.85374  Biso   1.000  H
  H146     1.0000 0.89460  0.58984  0.48349  Biso   1.000  H
  H147     1.0000 0.55057  0.85773  0.58034  Biso   1.000  H
  H148     1.0000 0.12506  0.48950  0.61698  Biso   1.000  H
  H149     1.0000 0.40091  0.58377  0.97956  Biso   1.000  H
  H150     1.0000 0.04146  0.86085  0.89989  Biso   1.000  H
  H151     1.0000 0.94820  0.98654  0.85240  Biso   1.000  H
  H152     1.0000 0.66512  0.09399  0.48412  Biso   1.000  H
  H153     1.0000 0.02621  0.36057  0.57488  Biso   1.000  H
  H154     1.0000 0.45136  0.97940  0.63351  Biso   1.000  H
  H155     1.0000 0.16669  0.08525  0.99136  Biso   1.000  H
  H156     1.0000 0.54355  0.36449  0.89785  Biso   1.000  H
  H157     1.0000 0.43386  0.49013  0.12489  Biso   1.000  H
  H158     1.0000 0.17231  0.40675  0.48049  Biso   1.000  H
  H159     1.0000 0.52580  0.12581  0.40203  Biso   1.000  H
  H160     1.0000 0.92935  0.50194  0.35721  Biso   1.000  H
  H161     1.0000 0.66115  0.40805  0.99605  Biso   1.000  H
  H162     1.0000 0.03006  0.12755  0.07718  Biso   1.000  H
  H163     1.0000 0.11949  0.01019  0.12991  Biso   1.000  H
  H164     1.0000 0.39487  0.89597  0.49574  Biso   1.000  H
  H165     1.0000 0.04363  0.63188  0.40368  Biso   1.000  H
  H166     1.0000 0.61348  0.98520  0.35478  Biso   1.000  H
  H167     1.0000 0.89506  0.91248  0.98331  Biso   1.000  H
  H168     1.0000 0.52417  0.62292  0.07544  Biso   1.000  H
  H169     1.0000 0.03199  0.07800  0.85209  Biso   1.000  H
  H170     1.0000 0.88832  0.00028  0.07147  Biso   1.000  H
  H171     1.0000 0.12113  0.86251  0.00082  Biso   1.000  H
  H172     1.0000 0.53589  0.08124  0.62623  Biso   1.000  H
  H173     1.0000 0.39235  0.98787  0.40753  Biso   1.000  H
  H174     1.0000 0.61996  0.86546  0.48173  Biso   1.000  H
  H175     1.0000 0.52337  0.57631  0.84918  Biso   1.000  H
  H176     1.0000 0.66201  0.50271  0.08240  Biso   1.000  H
  H177     1.0000 0.44560  0.36095  0.99113  Biso   1.000  H
  H178     1.0000 0.02103  0.57794  0.62554  Biso   1.000  H
  H179     1.0000 0.16494  0.50240  0.39520  Biso   1.000  H
  H180     1.0000 0.93950  0.37102  0.48926  Biso   1.000  H
  H181     1.0000 0.02945  0.90913  0.12727  Biso   1.000  H
  H182     1.0000 0.16807  0.00098  0.90649  Biso   1.000  H
  H183     1.0000 0.94151  0.13093  0.98599  Biso   1.000  H
  H184     1.0000 0.51517  0.89736  0.35956  Biso   1.000  H
  H185     1.0000 0.66566  0.01150  0.58069  Biso   1.000  H
  H186     1.0000 0.44484  0.12436  0.49746  Biso   1.000  H
  H187     1.0000 0.51555  0.40290  0.12864  Biso   1.000  H
  H188     1.0000 0.40138  0.48528  0.89375  Biso   1.000  H
  H189     1.0000 0.62501  0.62249  0.97295  Biso   1.000  H
  H190     1.0000 0.01757  0.40332  0.35428  Biso   1.000  H
  H191     1.0000 0.89648  0.49236  0.58046  Biso   1.000  H
  H192     1.0000 0.11956  0.62739  0.50138  Biso   1.000  H
  H193     1.0000 0.30151  0.85059  0.52949  Biso   1.000  H
  H194     1.0000 0.56667  0.26759  0.84672  Biso   1.000  H
  H195     1.0000 0.87917  0.50770  0.25975  Biso   1.000  H
  H196     1.0000 0.79707  0.86114  0.97245  Biso   1.000  H
  H197     1.0000 0.04704  0.26380  0.62476  Biso   1.000  H
  H198     1.0000 0.37934  0.51059  0.21928  Biso   1.000  H
  H199     1.0000 0.26508  0.35145  0.49539  Biso   1.000  H
  H200     1.0000 0.02630  0.76006  0.85007  Biso   1.000  H
  H201     1.0000 0.66691  0.98119  0.25757  Biso   1.000  H
  H202     1.0000 0.76156  0.35574  0.99317  Biso   1.000  H
  H203     1.0000 0.54732  0.76366  0.63582  Biso   1.000  H
  H204     1.0000 0.16621  0.01841  0.22816  Biso   1.000  H
  H205     1.0000 0.76071  0.14428  0.47884  Biso   1.000  H
  H206     1.0000 0.51638  0.72181  0.12570  Biso   1.000  H
  H207     1.0000 0.17536  0.49513  0.71716  Biso   1.000  H
  H208     1.0000 0.26591  0.13021  0.00179  Biso   1.000  H
  H209     1.0000 0.04465  0.72790  0.34941  Biso   1.000  H
  H210     1.0000 0.68023  0.48387  0.75861  Biso   1.000  H
  H211     1.0000 0.80018  0.64808  0.47947  Biso   1.000  H
  H212     1.0000 0.02769  0.22416  0.13092  Biso   1.000  H
  H213     1.0000 0.39815  0.99022  0.72927  Biso   1.000  H
  H214     1.0000 0.30070  0.63375  0.97277  Biso   1.000  H
  H215     1.0000 0.51384  0.22038  0.34794  Biso   1.000  H
  H216     1.0000 0.90190  0.99392  0.75328  Biso   1.000  H
  H217     1.0000 0.25846  0.52075  0.33878  Biso   1.000  H
  H218     1.0000 0.38914  0.22039  0.49464  Biso   1.000  H
  H219     1.0000 0.53667  0.34331  0.21881  Biso   1.000  H
  H220     1.0000 0.75821  0.50943  0.13415  Biso   1.000  H
  H221     1.0000 0.89163  0.22804  0.99397  Biso   1.000  H
  H222     1.0000 0.00561  0.35349  0.25690  Biso   1.000  H
  H223     1.0000 0.29624  0.00798  0.35811  Biso   1.000  H
  H224     1.0000 0.17395  0.71783  0.52998  Biso   1.000  H
  H225     1.0000 0.04758  0.85535  0.22311  Biso   1.000  H
  H226     1.0000 0.79378  0.00223  0.13146  Biso   1.000  H
  H227     1.0000 0.66747  0.72326  0.97118  Biso   1.000  H
  H228     1.0000 0.52013  0.84830  0.26004  Biso   1.000  H
  H229     1.0000 0.80161  0.50221  0.63743  Biso   1.000  H
  H230     1.0000 0.67710  0.76916  0.47952  Biso   1.000  H
  H231     1.0000 0.55055  0.63378  0.75452  Biso   1.000  H
  H232     1.0000 0.30261  0.48543  0.84754  Biso   1.000  H
  H233     1.0000 0.17448  0.76608  0.00315  Biso   1.000  H
  H234     1.0000 0.00437  0.62333  0.72265  Biso   1.000  H
  H235     1.0000 0.76358  0.99493  0.62171  Biso   1.000  H
  H236     1.0000 0.88785  0.27320  0.50253  Biso   1.000  H
  H237     1.0000 0.01299  0.13254  0.75953  Biso   1.000  H
  H238     1.0000 0.26343  0.97170  0.86034  Biso   1.000  H
  H239     1.0000 0.39123  0.26612  0.97768  Biso   1.000  H
  H240     1.0000 0.53919  0.13334  0.72191  Biso   1.000  H
  H241     1.0000 0.75976  0.49233  0.84795  Biso   1.000  H
  H242     1.0000 0.88923  0.72819  0.49137  Biso   1.000  H
  H243     1.0000 0.57518  0.84646  0.71870  Biso   1.000  H
  H244     1.0000 0.26458  0.49190  0.62777  Biso   1.000  H
  H245     1.0000 0.38337  0.71854  0.98824  Biso   1.000  H
  H246     1.0000 0.03496  0.83838  0.76094  Biso   1.000  H
  H247     1.0000 0.81363  0.00552  0.82890  Biso   1.000  H
  H248     1.0000 0.67554  0.22779  0.50099  Biso   1.000  H
  H249     1.0000 0.01347  0.34552  0.71588  Biso   1.000  H
  H250     1.0000 0.31134  0.98227  0.64265  Biso   1.000  H
  H251     1.0000 0.18467  0.22307  0.98058  Biso   1.000  H
  H252     1.0000 0.52725  0.34091  0.75564  Biso   1.000  H
  H253     1.0000 0.30115  0.51911  0.12809  Biso   1.000  H
  H254     1.0000 0.17682  0.26951  0.49197  Biso   1.000  H
  H255     1.0000 0.51581  0.13663  0.26425  Biso   1.000  H
  H256     1.0000 0.79342  0.50064  0.35021  Biso   1.000  H
  H257     1.0000 0.67551  0.26921  0.00758  Biso   1.000  H
  H258     1.0000 0.99554  0.14387  0.21220  Biso   1.000  H
  H259     1.0000 0.25560  0.99932  0.14424  Biso   1.000  H
  H260     1.0000 0.38715  0.76323  0.52026  Biso   1.000  H
  H261     1.0000 0.04616  0.64473  0.26676  Biso   1.000  H
  H262     1.0000 0.75211  0.00922  0.33542  Biso   1.000  H
  H263     1.0000 0.88287  0.77216  0.98437  Biso   1.000  H
  H264     1.0000 0.51849  0.63580  0.21120  Biso   1.000  H
  H265     1.0000 0.02316  0.21773  0.84224  Biso   1.000  H
  H266     1.0000 0.87756  0.99114  0.21350  Biso   1.000  H
  H267     1.0000 0.26122  0.84543  0.00498  Biso   1.000  H
  H268     1.0000 0.53762  0.21831  0.63742  Biso   1.000  H
  H269     1.0000 0.37622  0.00912  0.27090  Biso   1.000  H
  H270     1.0000 0.75961  0.85851  0.47938  Biso   1.000  H
  H271     1.0000 0.53026  0.71524  0.84132  Biso   1.000  H
  H272     1.0000 0.66970  0.51023  0.22253  Biso   1.000  H
  H273     1.0000 0.30903  0.34911  0.01626  Biso   1.000  H
  H274     1.0000 0.99772  0.71738  0.63877  Biso   1.000  H
  H275     1.0000 0.16839  0.49381  0.25760  Biso   1.000  H
  H276     1.0000 0.80224  0.35068  0.48698  Biso   1.000  H
  H277     1.0000 0.03840  0.76795  0.14179  Biso   1.000  H
  H278     1.0000 0.18629  0.98371  0.77147  Biso   1.000  H
  H279     1.0000 0.80477  0.14673  0.98122  Biso   1.000  H
  H280     1.0000 0.54645  0.76273  0.34474  Biso   1.000  H
  H281     1.0000 0.68526  0.98821  0.71610  Biso   1.000  H
  H282     1.0000 0.30393  0.13744  0.50323  Biso   1.000  H
  H283     1.0000 0.51278  0.26031  0.13191  Biso   1.000  H
  H284     1.0000 0.38726  0.49053  0.75811  Biso   1.000  H
  H285     1.0000 0.75894  0.63900  0.96483  Biso   1.000  H
  H286     1.0000 0.01891  0.26593  0.34444  Biso   1.000  H
  H287     1.0000 0.88599  0.48368  0.71786  Biso   1.000  H
  H288     1.0000 0.26001  0.63841  0.49794  Biso   1.000  H
  H289     1.0000 0.13068  0.22175  0.97776  Biso   1.000  H
  H290     1.0000 0.00097  0.08721  0.21311  Biso   1.000  H
  H291     1.0000 0.25439  0.99936  0.09197  Biso   1.000  H
  H292     1.0000 0.62134  0.22862  0.50480  Biso   1.000  H
  H293     1.0000 0.52444  0.08389  0.26034  Biso   1.000  H
  H294     1.0000 0.75263  0.01726  0.38828  Biso   1.000  H
  H295     1.0000 0.43815  0.71886  0.98332  Biso   1.000  H
  H296     1.0000 0.51374  0.58301  0.21098  Biso   1.000  H
  H297     1.0000 0.30355  0.50647  0.07543  Biso   1.000  H
  H298     1.0000 0.94550  0.72377  0.48377  Biso   1.000  H
  H299     1.0000 0.05320  0.59006  0.26742  Biso   1.000  H
  H300     1.0000 0.79847  0.49478  0.40693  Biso   1.000  H
  H301     1.0000 0.93760  0.77209  0.97995  Biso   1.000  H
  H302     1.0000 0.03514  0.89340  0.76003  Biso   1.000  H
  H303     1.0000 0.80648  0.00687  0.88525  Biso   1.000  H
  H304     1.0000 0.44092  0.76269  0.50667  Biso   1.000  H
  H305     1.0000 0.57224  0.89823  0.72040  Biso   1.000  H
  H306     1.0000 0.31011  0.98096  0.58924  Biso   1.000  H
  H307     1.0000 0.62216  0.26924  0.00280  Biso   1.000  H
  H308     1.0000 0.51668  0.39421  0.75687  Biso   1.000  H
  H309     1.0000 0.75414  0.48647  0.89860  Biso   1.000  H
  H310     1.0000 0.12294  0.27119  0.48314  Biso   1.000  H
  H311     1.0000 0.01609  0.40031  0.71395  Biso   1.000  H
  H312     1.0000 0.26226  0.49247  0.57522  Biso   1.000  H
  H313     1.0000 0.25825  0.97224  0.91596  Biso   1.000  H
  H314     1.0000 0.94669  0.22512  0.99741  Biso   1.000  H
  H315     1.0000 0.03694  0.90923  0.22162  Biso   1.000  H
  H316     1.0000 0.75900  0.99454  0.56698  Biso   1.000  H
  H317     1.0000 0.44316  0.21984  0.49584  Biso   1.000  H
  H318     1.0000 0.51469  0.89934  0.26211  Biso   1.000  H
  H319     1.0000 0.30607  0.47463  0.89921  Biso   1.000  H
  H320     1.0000 0.61563  0.71761  0.96712  Biso   1.000  H
  H321     1.0000 0.54009  0.39715  0.22200  Biso   1.000  H
  H322     1.0000 0.79839  0.50684  0.58647  Biso   1.000  H
  H323     1.0000 0.11720  0.72004  0.52687  Biso   1.000  H
  H324     1.0000 0.00363  0.40951  0.25993  Biso   1.000  H
  H325     1.0000 0.79428  0.00518  0.07922  Biso   1.000  H
  H326     1.0000 0.11773  0.76520  0.00318  Biso   1.000  H
  H327     1.0000 0.01337  0.07736  0.75925  Biso   1.000  H
  H328     1.0000 0.29791  0.00176  0.41190  Biso   1.000  H
  H329     1.0000 0.62529  0.76890  0.48023  Biso   1.000  H
  H330     1.0000 0.52936  0.08031  0.72058  Biso   1.000  H
  H331     1.0000 0.75686  0.50971  0.08216  Biso   1.000  H
  H332     1.0000 0.44447  0.26747  0.97026  Biso   1.000  H
  H333     1.0000 0.55164  0.58192  0.75379  Biso   1.000  H
  H334     1.0000 0.25979  0.52151  0.39169  Biso   1.000  H
  H335     1.0000 0.94270  0.27415  0.49686  Biso   1.000  H
  H336     1.0000 0.01642  0.57401  0.71976  Biso   1.000  H
  H337     1.0000 0.02495  0.21672  0.89671  Biso   1.000  H
  H338     1.0000 0.93123  0.99364  0.21491  Biso   1.000  H
  H339     1.0000 0.26286  0.89887  0.00376  Biso   1.000  H
  H340     1.0000 0.53774  0.21838  0.58330  Biso   1.000  H
  H341     1.0000 0.43330  0.00468  0.26746  Biso   1.000  H
  H342     1.0000 0.75634  0.91034  0.47972  Biso   1.000  H
  H343     1.0000 0.52263  0.71357  0.89517  Biso   1.000  H
  H344     1.0000 0.61814  0.50230  0.22205  Biso   1.000  H
  H345     1.0000 0.31004  0.40402  0.01090  Biso   1.000  H
  H346     1.0000 0.99851  0.71655  0.58497  Biso   1.000  H
  H347     1.0000 0.11781  0.49081  0.26238  Biso   1.000  H
  H348     1.0000 0.79845  0.40793  0.49117  Biso   1.000  H
  H349     1.0000 0.03035  0.76993  0.08774  Biso   1.000  H
  H350     1.0000 0.13411  0.99259  0.76713  Biso   1.000  H
  H351     1.0000 0.80256  0.09559  0.97700  Biso   1.000  H
  H352     1.0000 0.53676  0.76367  0.40274  Biso   1.000  H
  H353     1.0000 0.63618  0.99333  0.72025  Biso   1.000  H
  H354     1.0000 0.30733  0.08084  0.49894  Biso   1.000  H
  H355     1.0000 0.50979  0.26511  0.07819  Biso   1.000  H
  H356     1.0000 0.44166  0.49300  0.75719  Biso   1.000  H
  H357     1.0000 0.75699  0.58510  0.96930  Biso   1.000  H
  H358     1.0000 0.02664  0.27154  0.39859  Biso   1.000  H
  H359     1.0000 0.94308  0.47937  0.71461  Biso   1.000  H
  H360     1.0000 0.25827  0.58511  0.48645  Biso   1.000  H
  H361     1.0000 0.04510  0.72591  0.40675  Biso   1.000  H
  H362     1.0000 0.45336  0.98712  0.72810  Biso   1.000  H
  H363     1.0000 0.75663  0.40788  0.98480  Biso   1.000  H
  H364     1.0000 0.51823  0.71615  0.07146  Biso   1.000  H
  H365     1.0000 0.95432  0.98400  0.75468  Biso   1.000  H
  H366     1.0000 0.26724  0.40384  0.48707  Biso   1.000  H
  H367     1.0000 0.52506  0.22051  0.40180  Biso   1.000  H
  H368     1.0000 0.12092  0.48986  0.71352  Biso   1.000  H
  H369     1.0000 0.79795  0.91144  0.96755  Biso   1.000  H
  H370     1.0000 0.04520  0.22165  0.08244  Biso   1.000  H
  H371     1.0000 0.62497  0.48052  0.75647  Biso   1.000  H
  H372     1.0000 0.30082  0.90355  0.51893  Biso   1.000  H
  H373     1.0000 0.05392  0.27273  0.57063  Biso   1.000  H
  H374     1.0000 0.61331  0.97608  0.25873  Biso   1.000  H
  H375     1.0000 0.30475  0.58184  0.97224  Biso   1.000  H
  H376     1.0000 0.56044  0.27223  0.90448  Biso   1.000  H
  H377     1.0000 0.10911  0.01602  0.22606  Biso   1.000  H
  H378     1.0000 0.80034  0.59144  0.48003  Biso   1.000  H
  H379     1.0000 0.53723  0.76297  0.58191  Biso   1.000  H
  H380     1.0000 0.93525  0.50143  0.26000  Biso   1.000  H
  H381     1.0000 0.25940  0.07727  0.00994  Biso   1.000  H
  H382     1.0000 0.02435  0.76481  0.90361  Biso   1.000  H
  H383     1.0000 0.43557  0.50018  0.22093  Biso   1.000  H
  H384     1.0000 0.75905  0.09120  0.47146  Biso   1.000  H
  H385     1.0000 0.26021  0.48542  0.31115  Biso   1.000  H
  H386     1.0000 0.30978  0.16304  0.46659  Biso   1.000  H
  H387     1.0000 0.50067  0.32455  0.21970  Biso   1.000  H
  H388     1.0000 0.70183  0.47941  0.21986  Biso   1.000  H
  H389     1.0000 0.85497  0.22090  0.02859  Biso   1.000  H
  H390     1.0000 0.97968  0.26965  0.31062  Biso   1.000  H
  H391     1.0000 0.30331  0.96720  0.32725  Biso   1.000  H
  H392     1.0000 0.20572  0.72393  0.50018  Biso   1.000  H
  H393     1.0000 0.00068  0.77853  0.17249  Biso   1.000  H
  H394     1.0000 0.79379  0.96686  0.15718  Biso   1.000  H
  H395     1.0000 0.76110  0.66733  0.99426  Biso   1.000  H
  H396     1.0000 0.54706  0.82094  0.25767  Biso   1.000  H
  H397     1.0000 0.81413  0.53731  0.68218  Biso   1.000  H
  H398     1.0000 0.75383  0.82635  0.51149  Biso   1.000  H
  H399     1.0000 0.58069  0.66785  0.77179  Biso   1.000  H
  H400     1.0000 0.35793  0.52669  0.77246  Biso   1.000  H
  H401     1.0000 0.24730  0.81331  0.96607  Biso   1.000  H
  H402     1.0000 0.04007  0.65606  0.72040  Biso   1.000  H
  H403     1.0000 0.76848  0.97069  0.65397  Biso   1.000  H
  H404     1.0000 0.81011  0.32225  0.52839  Biso   1.000  H
  H405     1.0000 0.99622  0.21814  0.81136  Biso   1.000  H
  H406     1.0000 0.26556  0.00605  0.83144  Biso   1.000  H
  H407     1.0000 0.30432  0.32318  0.97875  Biso   1.000  H
  H408     1.0000 0.50729  0.16408  0.72164  Biso   1.000  H
  H409     1.0000 0.30323  0.48565  0.16149  Biso   1.000  H
  H410     1.0000 0.20817  0.27252  0.45966  Biso   1.000  H
  H411     1.0000 0.48663  0.21930  0.31924  Biso   1.000  H
  H412     1.0000 0.85132  0.47646  0.26364  Biso   1.000  H
  H413     1.0000 0.70630  0.27062  0.97598  Biso   1.000  H
  H414     1.0000 0.98752  0.22498  0.15637  Biso   1.000  H
  H415     1.0000 0.19490  0.97498  0.23062  Biso   1.000  H
  H416     1.0000 0.35515  0.75887  0.49218  Biso   1.000  H
  H417     1.0000 0.00613  0.67516  0.27474  Biso   1.000  H
  H418     1.0000 0.74846  0.96289  0.30966  Biso   1.000  H
  H419     1.0000 0.85009  0.78398  0.01086  Biso   1.000  H
  H420     1.0000 0.48813  0.66929  0.20809  Biso   1.000  H
  H421     1.0000 0.75457  0.52367  0.81563  Biso   1.000  H
  H422     1.0000 0.79898  0.67675  0.51172  Biso   1.000  H
  H423     1.0000 0.58674  0.76574  0.66364  Biso   1.000  H
  H424     1.0000 0.20646  0.52438  0.70768  Biso   1.000  H
  H425     1.0000 0.35253  0.72208  0.95970  Biso   1.000  H
  H426     1.0000 0.05556  0.75509  0.82066  Biso   1.000  H
  H427     1.0000 0.82341  0.03479  0.79944  Biso   1.000  H
  H428     1.0000 0.75896  0.17028  0.51450  Biso   1.000  H
  H429     1.0000 0.04799  0.31895  0.71404  Biso   1.000  H
  H430     1.0000 0.37020  0.95512  0.72851  Biso   1.000  H
  H431     1.0000 0.22379  0.20812  0.95096  Biso   1.000  H
  H432     1.0000 0.52089  0.26032  0.82250  Biso   1.000  H
  H433     1.0000 0.30961  0.00662  0.67531  Biso   1.000  H
  H434     1.0000 0.76211  0.33024  0.02493  Biso   1.000  H
  H435     1.0000 0.07724  0.72385  0.31680  Biso   1.000  H
  H436     1.0000 0.86480  0.95627  0.76051  Biso   1.000  H
  H437     1.0000 0.26099  0.31920  0.52226  Biso   1.000  H
  H438     1.0000 0.55542  0.71131  0.15747  Biso   1.000  H
  H439     1.0000 0.26766  0.46457  0.65897  Biso   1.000  H
  H440     1.0000 0.79814  0.82817  0.94629  Biso   1.000  H
  H441     1.0000 0.54595  0.16581  0.26695  Biso   1.000  H
  H442     1.0000 0.70984  0.45519  0.76738  Biso   1.000  H
  H443     1.0000 0.30889  0.81737  0.55158  Biso   1.000  H
  H444     1.0000 0.03317  0.16403  0.21466  Biso   1.000  H
  H445     1.0000 0.68848  0.01939  0.26127  Biso   1.000  H
  H446     1.0000 0.29985  0.65993  0.01202  Biso   1.000  H
  H447     1.0000 0.00670  0.26073  0.65321  Biso   1.000  H
  H448     1.0000 0.25166  0.03430  0.17704  Biso   1.000  H
  H449     1.0000 0.86373  0.72830  0.45979  Biso   1.000  H
  H450     1.0000 0.56564  0.31516  0.76028  Biso   1.000  H
  H451     1.0000 0.79600  0.53100  0.32074  Biso   1.000  H
  H452     1.0000 0.25795  0.17211  0.03316  Biso   1.000  H
  H453     1.0000 0.53272  0.82213  0.71859  Biso   1.000  H
  H454     1.0000 0.35006  0.55106  0.20864  Biso   1.000  H
  H455     1.0000 0.70394  0.23459  0.46561  Biso   1.000  H
  H456     1.0000 0.99984  0.81655  0.76961  Biso   1.000  H
  H457     1.0000 0.70719  0.77761  0.44579  Biso   1.000  H
  H458     1.0000 0.50045  0.70913  0.80348  Biso   1.000  H
  H459     1.0000 0.85159  0.45119  0.70018  Biso   1.000  H
  H460     1.0000 0.20161  0.76457  0.03426  Biso   1.000  H
  H461     1.0000 0.98036  0.71204  0.67333  Biso   1.000  H
  H462     1.0000 0.30161  0.46177  0.81424  Biso   1.000  H
  H463     1.0000 0.86217  0.26976  0.46594  Biso   1.000  H
  H464     1.0000 0.04401  0.15569  0.75655  Biso   1.000  H
  H465     1.0000 0.71470  0.02160  0.71102  Biso   1.000  H
  H466     1.0000 0.36747  0.26504  0.01971  Biso   1.000  H
  H467     1.0000 0.57342  0.21138  0.66661  Biso   1.000  H
  H468     1.0000 0.21153  0.95206  0.77771  Biso   1.000  H
  H469     1.0000 0.36191  0.21463  0.52432  Biso   1.000  H
  H470     1.0000 0.53921  0.25556  0.16193  Biso   1.000  H
  H471     1.0000 0.19280  0.52936  0.25563  Biso   1.000  H
  H472     1.0000 0.81480  0.18098  0.95595  Biso   1.000  H
  H473     1.0000 0.04492  0.32181  0.25930  Biso   1.000  H
  H474     1.0000 0.75278  0.53724  0.16292  Biso   1.000  H
  H475     1.0000 0.25832  0.65440  0.53682  Biso   1.000  H
  H476     1.0000 0.07799  0.82072  0.21070  Biso   1.000  H
  H477     1.0000 0.34213  0.04499  0.28792  Biso   1.000  H
  H478     1.0000 0.70335  0.72698  0.94247  Biso   1.000  H
  H479     1.0000 0.51062  0.75574  0.31868  Biso   1.000  H
  H480     1.0000 0.84712  0.02579  0.21059  Biso   1.000  H
  N1       1.0000 0.70788  0.17643  0.49035  Biso   1.000  N
  N2       1.0000 0.51943  0.66859  0.15913  Biso   1.000  N
  N3       1.0000 0.20998  0.49004  0.66163  Biso   1.000  N
  N4       1.0000 0.21552  0.16799  0.99233  Biso   1.000  N
  N5       1.0000 0.04199  0.67553  0.31914  Biso   1.000  N
  N6       1.0000 0.70854  0.49038  0.81193  Biso   1.000  N
  N7       1.0000 0.85424  0.67778  0.48357  Biso   1.000  N
  N8       1.0000 0.01421  0.17307  0.16189  Biso   1.000  N
  N9       1.0000 0.36493  0.98281  0.67779  Biso   1.000  N
  N10      1.0000 0.35255  0.66653  0.98237  Biso   1.000  N
  N11      1.0000 0.52012  0.16883  0.31683  Biso   1.000  N
  N12      1.0000 0.86667  0.99636  0.80430  Biso   1.000  N
  N13      1.0000 0.35243  0.81495  0.51552  Biso   1.000  N
  N14      1.0000 0.54295  0.31360  0.81291  Biso   1.000  N
  N15      1.0000 0.84790  0.50218  0.31587  Biso   1.000  N
  N16      1.0000 0.85034  0.82700  0.97536  Biso   1.000  N
  N17      1.0000 0.03064  0.31340  0.66027  Biso   1.000  N
  N18      1.0000 0.35209  0.51239  0.16440  Biso   1.000  N
  N19      1.0000 0.21107  0.32055  0.48878  Biso   1.000  N
  N20      1.0000 0.03691  0.81068  0.81482  Biso   1.000  N
  N21      1.0000 0.69714  0.99349  0.30679  Biso   1.000  N
  N22      1.0000 0.70756  0.32222  0.00393  Biso   1.000  N
  N23      1.0000 0.55858  0.81548  0.66679  Biso   1.000  N
  N24      1.0000 0.19923  0.00377  0.17729  Biso   1.000  N
  N25      1.0000 0.85709  0.49479  0.66584  Biso   1.000  N
  N26      1.0000 0.70727  0.82485  0.47945  Biso   1.000  N
  N27      1.0000 0.53672  0.66324  0.80913  Biso   1.000  N
  N28      1.0000 0.35545  0.48947  0.81152  Biso   1.000  N
  N29      1.0000 0.20419  0.81534  0.00588  Biso   1.000  N
  N30      1.0000 0.00903  0.66199  0.67092  Biso   1.000  N
  N31      1.0000 0.71489  0.99651  0.66097  Biso   1.000  N
  N32      1.0000 0.85555  0.32394  0.49290  Biso   1.000  N
  N33      1.0000 0.02203  0.16380  0.80955  Biso   1.000  N
  N34      1.0000 0.21494  0.98122  0.82610  Biso   1.000  N
  N35      1.0000 0.35900  0.31720  0.99787  Biso   1.000  N
  N36      1.0000 0.53985  0.16583  0.66983  Biso   1.000  N
  N37      1.0000 0.20468  0.50627  0.30843  Biso   1.000  N
  N38      1.0000 0.35927  0.16868  0.49789  Biso   1.000  N
  N39      1.0000 0.52212  0.31446  0.16709  Biso   1.000  N
  N40      1.0000 0.70218  0.50937  0.16715  Biso   1.000  N
  N41      1.0000 0.85906  0.17688  0.98753  Biso   1.000  N
  N42      1.0000 0.01116  0.32061  0.30853  Biso   1.000  N
  N43      1.0000 0.34626  0.00485  0.32596  Biso   1.000  N
  N44      1.0000 0.20564  0.66827  0.51437  Biso   1.000  N
  N45      1.0000 0.03885  0.82285  0.16930  Biso   1.000  N
  N46      1.0000 0.84695  0.99536  0.16108  Biso   1.000  N
  N47      1.0000 0.70643  0.67357  0.96984  Biso   1.000  N
  N48      1.0000 0.52709  0.81345  0.31369  Biso   1.000  N
  O1       1.0000 0.37939  0.53307  0.98651  Biso   1.000  O
  O2       1.0000 0.03651  0.34445  0.52651  Biso   1.000  O
  O3       1.0000 0.56429  0.98423  0.33537  Biso   1.000  O
  O4       1.0000 0.87087  0.54264  0.48769  Biso   1.000  O
  O5       1.0000 0.54261  0.34221  0.94932  Biso   1.000  O
  O6       1.0000 0.06824  0.00036  0.15388  Biso   1.000  O
  O7       1.0000 0.18710  0.03457  0.99745  Biso   1.000  O
  O8       1.0000 0.53212  0.83603  0.53163  Biso   1.000  O
  O9       1.0000 0.98293  0.49801  0.33226  Biso   1.000  O
  O10      1.0000 0.68789  0.04285  0.48603  Biso   1.000  O
  O11      1.0000 0.02994  0.84041  0.95150  Biso   1.000  O
  O12      1.0000 0.48448  0.49495  0.14579  Biso   1.000  O
  O13      1.0000 0.68652  0.45653  0.99435  Biso   1.000  O
  O14      1.0000 0.03614  0.65146  0.45029  Biso   1.000  O
  O15      1.0000 0.50029  0.97992  0.65363  Biso   1.000  O
  O16      1.0000 0.19150  0.45398  0.47794  Biso   1.000  O
  O17      1.0000 0.52905  0.64667  0.02342  Biso   1.000  O
  O18      1.0000 0.99839  0.97842  0.83034  Biso   1.000  O
  O19      1.0000 0.87178  0.95936  0.97864  Biso   1.000  O
  O20      1.0000 0.53843  0.15016  0.45149  Biso   1.000  O
  O21      1.0000 0.07198  0.49327  0.64139  Biso   1.000  O
  O22      1.0000 0.37420  0.94858  0.50313  Biso   1.000  O
  O23      1.0000 0.04128  0.15053  0.02892  Biso   1.000  O
  O24      1.0000 0.57389  0.48569  0.82922  Biso   1.000  O
  O25      1.0000 0.98479  0.99811  0.14263  Biso   1.000  O
  O26      1.0000 0.18882  0.94958  0.00051  Biso   1.000  O
  O27      1.0000 0.03459  0.14779  0.94395  Biso   1.000  O
  O28      1.0000 0.48227  0.99861  0.33646  Biso   1.000  O
  O29      1.0000 0.68484  0.95941  0.48149  Biso   1.000  O
  O30      1.0000 0.53366  0.14530  0.53609  Biso   1.000  O
  O31      1.0000 0.57131  0.49380  0.14815  Biso   1.000  O
  O32      1.0000 0.38065  0.44966  0.99009  Biso   1.000  O
  O33      1.0000 0.51971  0.64188  0.94120  Biso   1.000  O
  O34      1.0000 0.06633  0.49444  0.33349  Biso   1.000  O
  O35      1.0000 0.87186  0.45722  0.48976  Biso   1.000  O
  O36      1.0000 0.01633  0.65002  0.53353  Biso   1.000  O
  O37      1.0000 0.08096  0.99473  0.83637  Biso   1.000  O
  O38      1.0000 0.87211  0.04332  0.98794  Biso   1.000  O
  O39      1.0000 0.02608  0.84210  0.03805  Biso   1.000  O
  O40      1.0000 0.58004  0.00211  0.65248  Biso   1.000  O
  O41      1.0000 0.37619  0.03208  0.48950  Biso   1.000  O
  O42      1.0000 0.52254  0.83286  0.44882  Biso   1.000  O
  O43      1.0000 0.49238  0.49585  0.83123  Biso   1.000  O
  O44      1.0000 0.68525  0.53934  0.98659  Biso   1.000  O
  O45      1.0000 0.52174  0.33798  0.03061  Biso   1.000  O
  O46      1.0000 0.98841  0.48067  0.63971  Biso   1.000  O
  O47      1.0000 0.18613  0.53653  0.48812  Biso   1.000  O
  O48      1.0000 0.02979  0.34384  0.44503  Biso   1.000  O
  O49      1.0000 0.02779  0.95596  0.15188  Biso   1.000  O
  O50      1.0000 0.18527  0.98623  0.95787  Biso   1.000  O
  O51      1.0000 0.99572  0.15202  0.98942  Biso   1.000  O
  O52      1.0000 0.51817  0.95027  0.33768  Biso   1.000  O
  O53      1.0000 0.68666  0.00118  0.52562  Biso   1.000  O
  O54      1.0000 0.49277  0.14760  0.49000  Biso   1.000  O
  O55      1.0000 0.52756  0.45027  0.14992  Biso   1.000  O
  O56      1.0000 0.37808  0.48968  0.94535  Biso   1.000  O
  O57      1.0000 0.56878  0.64485  0.97411  Biso   1.000  O
  O58      1.0000 0.02052  0.45525  0.32987  Biso   1.000  O
  O59      1.0000 0.87143  0.50000  0.53401  Biso   1.000  O
  O60      1.0000 0.07071  0.65177  0.50396  Biso   1.000  O
  O61      1.0000 0.02861  0.02765  0.82947  Biso   1.000  O
  O62      1.0000 0.86915  0.00033  0.02792  Biso   1.000  O
  O63      1.0000 0.06998  0.83906  0.00045  Biso   1.000  O
  O64      1.0000 0.53160  0.03091  0.64914  Biso   1.000  O
  O65      1.0000 0.37231  0.98552  0.45564  Biso   1.000  O
  O66      1.0000 0.57344  0.83999  0.48497  Biso   1.000  O
  O67      1.0000 0.53826  0.53115  0.82563  Biso   1.000  O
  O68      1.0000 0.68769  0.50178  0.03282  Biso   1.000  O
  O69      1.0000 0.49222  0.33788  0.98121  Biso   1.000  O
  O70      1.0000 0.02594  0.52887  0.64464  Biso   1.000  O
  O71      1.0000 0.19075  0.50183  0.44158  Biso   1.000  O
  O72      1.0000 0.99258  0.34377  0.48792  Biso   1.000  O
  O73      1.0000 0.03230  0.44727  0.64457  Biso   1.000  O
  O74      1.0000 0.68327  0.00358  0.44231  Biso   1.000  O
  O75      1.0000 0.48600  0.64860  0.98846  Biso   1.000  O
  O76      1.0000 0.52911  0.44624  0.82722  Biso   1.000  O
  O77      1.0000 0.18286  0.99060  0.04287  Biso   1.000  O
  O78      1.0000 0.98848  0.64967  0.48488  Biso   1.000  O
  O79      1.0000 0.55692  0.94878  0.65044  Biso   1.000  O
  O80      1.0000 0.87232  0.49883  0.44871  Biso   1.000  O
  O81      1.0000 0.07990  0.15221  0.97944  Biso   1.000  O
  O82      1.0000 0.04853  0.94701  0.83024  Biso   1.000  O
  O83      1.0000 0.38053  0.48960  0.03217  Biso   1.000  O
  O84      1.0000 0.57605  0.15407  0.49572  Biso   1.000  O
  O85      1.0000 0.02880  0.53994  0.33363  Biso   1.000  O
  O86      1.0000 0.38085  0.99350  0.53906  Biso   1.000  O
  O87      1.0000 0.57280  0.33869  0.99948  Biso   1.000  O
  O88      1.0000 0.52482  0.53358  0.13936  Biso   1.000  O
  O89      1.0000 0.87654  0.00392  0.93935  Biso   1.000  O
  O90      1.0000 0.07617  0.34702  0.47960  Biso   1.000  O
  O91      1.0000 0.53078  0.03487  0.33441  Biso   1.000  O
  O92      1.0000 0.19040  0.48815  0.52444  Biso   1.000  O
  O93      1.0000 0.98657  0.84256  0.99183  Biso   1.000  O
  O94      1.0000 0.02531  0.03983  0.15065  Biso   1.000  O
  O95      1.0000 0.68164  0.49667  0.94874  Biso   1.000  O
  O96      1.0000 0.48828  0.83221  0.49440  Biso   1.000  O
  O97      1.0000 0.49216  0.19393  0.50319  Biso   1.000  O
  O98      1.0000 0.53259  0.45102  0.19780  Biso   1.000  O
  O99      1.0000 0.23866  0.50109  0.44163  Biso   1.000  O
  O100     1.0000 0.99659  0.20097  0.98732  Biso   1.000  O
  O101     1.0000 0.01949  0.45650  0.28220  Biso   1.000  O
  O102     1.0000 0.73519  0.49535  0.03371  Biso   1.000  O
  O103     1.0000 0.06962  0.70037  0.50606  Biso   1.000  O
  O104     1.0000 0.02280  0.95691  0.19901  Biso   1.000  O
  O105     1.0000 0.32391  0.99684  0.45980  Biso   1.000  O
  O106     1.0000 0.56797  0.69362  0.97473  Biso   1.000  O
  O107     1.0000 0.51681  0.94905  0.28884  Biso   1.000  O
  O108     1.0000 0.82008  0.00693  0.02549  Biso   1.000  O
  O109     1.0000 0.57513  0.79206  0.48489  Biso   1.000  O
  O110     1.0000 0.53797  0.52835  0.77581  Biso   1.000  O
  O111     1.0000 0.82351  0.49884  0.53395  Biso   1.000  O
  O112     1.0000 0.06698  0.79189  0.00160  Biso   1.000  O
  O113     1.0000 0.02325  0.52582  0.69313  Biso   1.000  O
  O114     1.0000 0.33014  0.48922  0.94742  Biso   1.000  O
  O115     1.0000 0.99296  0.29676  0.49626  Biso   1.000  O
  O116     1.0000 0.03415  0.02972  0.77983  Biso   1.000  O
  O117     1.0000 0.73540  0.99859  0.52433  Biso   1.000  O
  O118     1.0000 0.49409  0.28787  0.98470  Biso   1.000  O
  O119     1.0000 0.52757  0.03180  0.69770  Biso   1.000  O
  O120     1.0000 0.23338  0.98845  0.96080  Biso   1.000  O
  O121     1.0000 0.07336  0.48560  0.68860  Biso   1.000  O
  O122     1.0000 0.73627  0.04250  0.48558  Biso   1.000  O
  O123     1.0000 0.53069  0.69609  0.02337  Biso   1.000  O
  O124     1.0000 0.57422  0.48014  0.77923  Biso   1.000  O
  O125     1.0000 0.23613  0.03179  0.00096  Biso   1.000  O
  O126     1.0000 0.04092  0.70103  0.45570  Biso   1.000  O
  O127     1.0000 0.50151  0.98160  0.70314  Biso   1.000  O
  O128     1.0000 0.82245  0.54350  0.49236  Biso   1.000  O
  O129     1.0000 0.04102  0.19945  0.02751  Biso   1.000  O
  O130     1.0000 0.00167  0.98567  0.78283  Biso   1.000  O
  O131     1.0000 0.33086  0.53189  0.98604  Biso   1.000  O
  O132     1.0000 0.52580  0.19678  0.45395  Biso   1.000  O
  O133     1.0000 0.98435  0.50182  0.28529  Biso   1.000  O
  O134     1.0000 0.32508  0.95052  0.50342  Biso   1.000  O
  O135     1.0000 0.53993  0.29394  0.94768  Biso   1.000  O
  O136     1.0000 0.48468  0.48711  0.19485  Biso   1.000  O
  O137     1.0000 0.82212  0.96284  0.98239  Biso   1.000  O
  O138     1.0000 0.04642  0.29645  0.52500  Biso   1.000  O
  O139     1.0000 0.56244  0.98595  0.28553  Biso   1.000  O
  O140     1.0000 0.23976  0.45588  0.47947  Biso   1.000  O
  O141     1.0000 0.03197  0.79215  0.95451  Biso   1.000  O
  O142     1.0000 0.06319  0.00319  0.20135  Biso   1.000  O
  O143     1.0000 0.73466  0.45631  0.98835  Biso   1.000  O
  O144     1.0000 0.53694  0.78785  0.53343  Biso   1.000  O
  O145     1.0000 0.56795  0.49245  0.19528  Biso   1.000  O
  O146     1.0000 0.23703  0.53753  0.48773  Biso   1.000  O
  O147     1.0000 0.53604  0.19473  0.53622  Biso   1.000  O
  O148     1.0000 0.06805  0.49593  0.28610  Biso   1.000  O
  O149     1.0000 0.73394  0.53786  0.98484  Biso   1.000  O
  O150     1.0000 0.03535  0.19508  0.94257  Biso   1.000  O
  O151     1.0000 0.98089  0.99608  0.19098  Biso   1.000  O
  O152     1.0000 0.32946  0.03650  0.50378  Biso   1.000  O
  O153     1.0000 0.01517  0.69710  0.53613  Biso   1.000  O
  O154     1.0000 0.47998  0.00102  0.28952  Biso   1.000  O
  O155     1.0000 0.82376  0.04516  0.97941  Biso   1.000  O
  O156     1.0000 0.51844  0.69080  0.94034  Biso   1.000  O
  O157     1.0000 0.49072  0.49356  0.78206  Biso   1.000  O
  O158     1.0000 0.82129  0.45789  0.49134  Biso   1.000  O
  O159     1.0000 0.52952  0.78390  0.44887  Biso   1.000  O
  O160     1.0000 0.98983  0.47964  0.68946  Biso   1.000  O
  O161     1.0000 0.33162  0.45016  0.99178  Biso   1.000  O
  O162     1.0000 0.02291  0.79401  0.03978  Biso   1.000  O
  O163     1.0000 0.08501  0.99899  0.78813  Biso   1.000  O
  O164     1.0000 0.73522  0.95889  0.48642  Biso   1.000  O
  O165     1.0000 0.02600  0.29556  0.44505  Biso   1.000  O
  O166     1.0000 0.58282  0.00126  0.70211  Biso   1.000  O
  O167     1.0000 0.23670  0.94780  0.00177  Biso   1.000  O
  O168     1.0000 0.52197  0.28909  0.02920  Biso   1.000  O
  O169     1.0000 0.02096  0.04140  0.19921  Biso   1.000  O
  O170     1.0000 0.23074  0.99357  0.04280  Biso   1.000  O
  O171     1.0000 0.08130  0.19967  0.98269  Biso   1.000  O
  O172     1.0000 0.52852  0.03334  0.28455  Biso   1.000  O
  O173     1.0000 0.73129  0.00212  0.44059  Biso   1.000  O
  O174     1.0000 0.57263  0.20122  0.48766  Biso   1.000  O
  O175     1.0000 0.52026  0.53553  0.18829  Biso   1.000  O
  O176     1.0000 0.33106  0.49394  0.03108  Biso   1.000  O
  O177     1.0000 0.48474  0.69853  0.98193  Biso   1.000  O
  O178     1.0000 0.03242  0.54268  0.28457  Biso   1.000  O
  O179     1.0000 0.82379  0.50111  0.45155  Biso   1.000  O
  O180     1.0000 0.98921  0.69829  0.48769  Biso   1.000  O
  O181     1.0000 0.04958  0.94769  0.78297  Biso   1.000  O
  O182     1.0000 0.82763  0.00711  0.93754  Biso   1.000  O
  O183     1.0000 0.98381  0.79290  0.99202  Biso   1.000  O
  O184     1.0000 0.55442  0.94913  0.69859  Biso   1.000  O
  O185     1.0000 0.33133  0.99385  0.54442  Biso   1.000  O
  O186     1.0000 0.48934  0.78408  0.49449  Biso   1.000  O
  O187     1.0000 0.52370  0.44625  0.77828  Biso   1.000  O
  O188     1.0000 0.73045  0.49685  0.94549  Biso   1.000  O
  O189     1.0000 0.57503  0.29097  0.99307  Biso   1.000  O
  O190     1.0000 0.03395  0.44455  0.69209  Biso   1.000  O
  O191     1.0000 0.23963  0.49265  0.52486  Biso   1.000  O
  O192     1.0000 0.07396  0.29921  0.47468  Biso   1.000  O
