data_image0
_cell_length_a       46.475
_cell_length_b       46.5885
_cell_length_c       46.6117
_cell_angle_alpha    90
_cell_angle_beta     90
_cell_angle_gamma    90

_symmetry_space_group_name_H-M    "P 1"
_symmetry_int_tables_number       1

loop_
  _symmetry_equiv_pos_as_xyz
  'x, y, z'

loop_
  _atom_site_label
  _atom_site_occupancy
  _atom_site_fract_x
  _atom_site_fract_y
  _atom_site_fract_z
  _atom_site_thermal_displace_type
  _atom_site_B_iso_or_equiv
  _atom_site_type_symbol
  C1       1.0000 0.58787  0.97784  0.36856  Biso   1.000  C
  C2       1.0000 0.33900  0.53393  0.04250  Biso   1.000  C
  C3       1.0000 0.02438  0.29640  0.59805  Biso   1.000  C
  C4       1.0000 0.09273  0.96164  0.21721  Biso   1.000  C
  C5       1.0000 0.83199  0.52227  0.54486  Biso   1.000  C
  C6       1.0000 0.50942  0.29751  0.99444  Biso   1.000  C
  C7       1.0000 0.96975  0.47011  0.36104  Biso   1.000  C
  C8       1.0000 0.19491  0.02931  0.02596  Biso   1.000  C
  C9       1.0000 0.51811  0.79513  0.59667  Biso   1.000  C
  C10      1.0000 0.46772  0.48141  0.22653  Biso   1.000  C
  C11      1.0000 0.69989  0.02377  0.56062  Biso   1.000  C
  C12      1.0000 0.01863  0.79999  0.98411  Biso   1.000  C
  C13      1.0000 0.44542  0.97704  0.71489  Biso   1.000  C
  C14      1.0000 0.69931  0.41443  0.03569  Biso   1.000  C
  C15      1.0000 0.00893  0.65092  0.48884  Biso   1.000  C
  C16      1.0000 0.94667  0.97165  0.86462  Biso   1.000  C
  C17      1.0000 0.19792  0.42620  0.54312  Biso   1.000  C
  C18      1.0000 0.52164  0.65644  0.08983  Biso   1.000  C
  C19      1.0000 0.06409  0.46384  0.73285  Biso   1.000  C
  C20      1.0000 0.83505  0.91522  0.06164  Biso   1.000  C
  C21      1.0000 0.51578  0.15279  0.48824  Biso   1.000  C
  C22      1.0000 0.56392  0.48127  0.86092  Biso   1.000  C
  C23      1.0000 0.33109  0.92431  0.52126  Biso   1.000  C
  C24      1.0000 0.00965  0.14549  0.09847  Biso   1.000  C
  C25      1.0000 0.33001  0.03323  0.53546  Biso   1.000  C
  C26      1.0000 0.51394  0.29687  0.10356  Biso   1.000  C
  C27      1.0000 0.07753  0.46213  0.36410  Biso   1.000  C
  C28      1.0000 0.83174  0.02268  0.05635  Biso   1.000  C
  C29      1.0000 0.01440  0.29251  0.49012  Biso   1.000  C
  C30      1.0000 0.57818  0.47328  0.22603  Biso   1.000  C
  C31      1.0000 0.19775  0.53585  0.55322  Biso   1.000  C
  C32      1.0000 0.01987  0.78613  0.09345  Biso   1.000  C
  C33      1.0000 0.47918  0.96660  0.36384  Biso   1.000  C
  C34      1.0000 0.70280  0.52327  0.04133  Biso   1.000  C
  C35      1.0000 0.50151  0.78780  0.48865  Biso   1.000  C
  C36      1.0000 0.98114  0.96823  0.22628  Biso   1.000  C
  C37      1.0000 0.69556  0.91219  0.56264  Biso   1.000  C
  C38      1.0000 0.51932  0.65496  0.98226  Biso   1.000  C
  C39      1.0000 0.95751  0.47315  0.72047  Biso   1.000  C
  C40      1.0000 0.19951  0.92251  0.02863  Biso   1.000  C
  C41      1.0000 0.01394  0.65064  0.59729  Biso   1.000  C
  C42      1.0000 0.45622  0.46093  0.86514  Biso   1.000  C
  C43      1.0000 0.83872  0.41316  0.52474  Biso   1.000  C
  C44      1.0000 0.01351  0.15121  0.99093  Biso   1.000  C
  C45      1.0000 0.55509  0.96997  0.72992  Biso   1.000  C
  C46      1.0000 0.33205  0.42341  0.05312  Biso   1.000  C
  C47      1.0000 0.52344  0.15272  0.59586  Biso   1.000  C
  C48      1.0000 0.05567  0.97852  0.85089  Biso   1.000  C
  C49      1.0000 0.99766  0.02613  0.86656  Biso   1.000  C
  C50      1.0000 0.83953  0.96722  0.11300  Biso   1.000  C
  C51      1.0000 0.07481  0.79108  0.04146  Biso   1.000  C
  C52      1.0000 0.49768  0.03211  0.72101  Biso   1.000  C
  C53      1.0000 0.33741  0.98459  0.47250  Biso   1.000  C
  C54      1.0000 0.56669  0.78933  0.53605  Biso   1.000  C
  C55      1.0000 0.50340  0.52534  0.86217  Biso   1.000  C
  C56      1.0000 0.70170  0.46679  0.09004  Biso   1.000  C
  C57      1.0000 0.45735  0.29736  0.05702  Biso   1.000  C
  C58      1.0000 0.01441  0.52526  0.72469  Biso   1.000  C
  C59      1.0000 0.19835  0.48174  0.49602  Biso   1.000  C
  C60      1.0000 0.96602  0.29245  0.54731  Biso   1.000  C
  C61      1.0000 0.03302  0.91048  0.22071  Biso   1.000  C
  C62      1.0000 0.18828  0.98099  0.97260  Biso   1.000  C
  C63      1.0000 0.95640  0.14877  0.04048  Biso   1.000  C
  C64      1.0000 0.53323  0.91547  0.36856  Biso   1.000  C
  C65      1.0000 0.69521  0.97101  0.61678  Biso   1.000  C
  C66      1.0000 0.46428  0.15447  0.54627  Biso   1.000  C
  C67      1.0000 0.52094  0.42239  0.23275  Biso   1.000  C
  C68      1.0000 0.33622  0.47477  0.99570  Biso   1.000  C
  C69      1.0000 0.57468  0.65213  0.03300  Biso   1.000  C
  C70      1.0000 0.01790  0.41101  0.36237  Biso   1.000  C
  C71      1.0000 0.83114  0.45783  0.58963  Biso   1.000  C
  C72      1.0000 0.06472  0.65170  0.54069  Biso   1.000  C
  C73      1.0000 0.02818  0.52210  0.36625  Biso   1.000  C
  C74      1.0000 0.32570  0.96967  0.57872  Biso   1.000  C
  C75      1.0000 0.56501  0.29530  0.04878  Biso   1.000  C
  C76      1.0000 0.52620  0.53333  0.22380  Biso   1.000  C
  C77      1.0000 0.83000  0.96658  0.00374  Biso   1.000  C
  C78      1.0000 0.07518  0.29266  0.54127  Biso   1.000  C
  C79      1.0000 0.52546  0.02644  0.36570  Biso   1.000  C
  C80      1.0000 0.19254  0.47764  0.60488  Biso   1.000  C
  C81      1.0000 0.96637  0.79464  0.03829  Biso   1.000  C
  C82      1.0000 0.03893  0.02031  0.22098  Biso   1.000  C
  C83      1.0000 0.69662  0.47211  0.98129  Biso   1.000  C
  C84      1.0000 0.45745  0.79528  0.54979  Biso   1.000  C
  C85      1.0000 0.00637  0.41611  0.72825  Biso   1.000  C
  C86      1.0000 0.70393  0.96861  0.50616  Biso   1.000  C
  C87      1.0000 0.46675  0.66182  0.03857  Biso   1.000  C
  C88      1.0000 0.51249  0.41734  0.86604  Biso   1.000  C
  C89      1.0000 0.20063  0.97432  0.07914  Biso   1.000  C
  C90      1.0000 0.95568  0.64715  0.54360  Biso   1.000  C
  C91      1.0000 0.49727  0.92124  0.72472  Biso   1.000  C
  C92      1.0000 0.83755  0.47279  0.48292  Biso   1.000  C
  C93      1.0000 0.06690  0.15226  0.04647  Biso   1.000  C
  C94      1.0000 0.00751  0.91813  0.85733  Biso   1.000  C
  C95      1.0000 0.33830  0.48334  0.10285  Biso   1.000  C
  C96      1.0000 0.57164  0.14896  0.54002  Biso   1.000  C
  C97      1.0000 0.70066  0.05653  0.55689  Biso   1.000  C
  C98      1.0000 0.51738  0.65690  0.12178  Biso   1.000  C
  C99      1.0000 0.09640  0.46381  0.73348  Biso   1.000  C
  C100     1.0000 0.19372  0.06073  0.02874  Biso   1.000  C
  C101     1.0000 0.00694  0.65054  0.45697  Biso   1.000  C
  C102     1.0000 0.59525  0.48352  0.86145  Biso   1.000  C
  C103     1.0000 0.83078  0.55399  0.55034  Biso   1.000  C
  C104     1.0000 0.00769  0.14583  0.13125  Biso   1.000  C
  C105     1.0000 0.41284  0.97858  0.71093  Biso   1.000  C
  C106     1.0000 0.34118  0.56571  0.03923  Biso   1.000  C
  C107     1.0000 0.50978  0.15543  0.45676  Biso   1.000  C
  C108     1.0000 0.91506  0.97465  0.86725  Biso   1.000  C
  C109     1.0000 0.33131  0.89200  0.52767  Biso   1.000  C
  C110     1.0000 0.51466  0.29605  0.96360  Biso   1.000  C
  C111     1.0000 0.93821  0.46993  0.35923  Biso   1.000  C
  C112     1.0000 0.83616  0.88408  0.06105  Biso   1.000  C
  C113     1.0000 0.02816  0.29393  0.63028  Biso   1.000  C
  C114     1.0000 0.43573  0.47932  0.22821  Biso   1.000  C
  C115     1.0000 0.19844  0.39377  0.53716  Biso   1.000  C
  C116     1.0000 0.01745  0.79706  0.95232  Biso   1.000  C
  C117     1.0000 0.61947  0.97568  0.37107  Biso   1.000  C
  C118     1.0000 0.69698  0.38196  0.03677  Biso   1.000  C
  C119     1.0000 0.51782  0.79639  0.62972  Biso   1.000  C
  C120     1.0000 0.12538  0.96560  0.21491  Biso   1.000  C
  C121     1.0000 0.84148  0.96636  0.14526  Biso   1.000  C
  C122     1.0000 0.10718  0.79180  0.04173  Biso   1.000  C
  C123     1.0000 0.99912  0.05879  0.86618  Biso   1.000  C
  C124     1.0000 0.34086  0.98492  0.44070  Biso   1.000  C
  C125     1.0000 0.59840  0.78830  0.53794  Biso   1.000  C
  C126     1.0000 0.49518  0.06421  0.72202  Biso   1.000  C
  C127     1.0000 0.70323  0.46640  0.12155  Biso   1.000  C
  C128     1.0000 0.42622  0.29660  0.05801  Biso   1.000  C
  C129     1.0000 0.50413  0.55765  0.85931  Biso   1.000  C
  C130     1.0000 0.20125  0.47950  0.46337  Biso   1.000  C
  C131     1.0000 0.93356  0.29174  0.54233  Biso   1.000  C
  C132     1.0000 0.01372  0.55809  0.72291  Biso   1.000  C
  C133     1.0000 0.18560  0.98435  0.94023  Biso   1.000  C
  C134     1.0000 0.92377  0.14829  0.04125  Biso   1.000  C
  C135     1.0000 0.02702  0.87897  0.22160  Biso   1.000  C
  C136     1.0000 0.69065  0.97429  0.64781  Biso   1.000  C
  C137     1.0000 0.43287  0.15676  0.54488  Biso   1.000  C
  C138     1.0000 0.53568  0.88337  0.36839  Biso   1.000  C
  C139     1.0000 0.33462  0.47419  0.96263  Biso   1.000  C
  C140     1.0000 0.60726  0.65136  0.02997  Biso   1.000  C
  C141     1.0000 0.52198  0.38985  0.23478  Biso   1.000  C
  C142     1.0000 0.82972  0.45480  0.62153  Biso   1.000  C
  C143     1.0000 0.09581  0.65362  0.54594  Biso   1.000  C
  C144     1.0000 0.01441  0.37917  0.36180  Biso   1.000  C
  C145     1.0000 0.33647  0.48384  0.13499  Biso   1.000  C
  C146     1.0000 0.10765  0.29279  0.54105  Biso   1.000  C
  C147     1.0000 0.51750  0.05686  0.36636  Biso   1.000  C
  C148     1.0000 0.84056  0.47031  0.45011  Biso   1.000  C
  C149     1.0000 0.59776  0.29430  0.05058  Biso   1.000  C
  C150     1.0000 0.03477  0.05258  0.22275  Biso   1.000  C
  C151     1.0000 0.20692  0.96745  0.11028  Biso   1.000  C
  C152     1.0000 0.42537  0.79647  0.55051  Biso   1.000  C
  C153     1.0000 0.02744  0.55448  0.36810  Biso   1.000  C
  C154     1.0000 0.70829  0.96908  0.47363  Biso   1.000  C
  C155     1.0000 0.93495  0.79379  0.03835  Biso   1.000  C
  C156     1.0000 0.52390  0.56612  0.22090  Biso   1.000  C
  C157     1.0000 0.69313  0.47238  0.94893  Biso   1.000  C
  C158     1.0000 0.92295  0.64872  0.54600  Biso   1.000  C
  C159     1.0000 0.49539  0.88950  0.72487  Biso   1.000  C
  C160     1.0000 0.19115  0.47959  0.63662  Biso   1.000  C
  C161     1.0000 0.43449  0.66182  0.03890  Biso   1.000  C
  C162     1.0000 0.00492  0.88648  0.85718  Biso   1.000  C
  C163     1.0000 0.82666  0.96871  0.97208  Biso   1.000  C
  C164     1.0000 0.60311  0.14871  0.54436  Biso   1.000  C
  C165     1.0000 0.00804  0.38357  0.72750  Biso   1.000  C
  C166     1.0000 0.32113  0.96601  0.60985  Biso   1.000  C
  C167     1.0000 0.09748  0.15102  0.05186  Biso   1.000  C
  C168     1.0000 0.51422  0.38576  0.86621  Biso   1.000  C
  C169     1.0000 0.02234  0.78421  0.12586  Biso   1.000  C
  C170     1.0000 0.08701  0.98880  0.84912  Biso   1.000  C
  C171     1.0000 0.83034  0.05546  0.05561  Biso   1.000  C
  C172     1.0000 0.50518  0.78531  0.45692  Biso   1.000  C
  C173     1.0000 0.58624  0.96634  0.73328  Biso   1.000  C
  C174     1.0000 0.33041  0.06502  0.53904  Biso   1.000  C
  C175     1.0000 0.51735  0.29685  0.13463  Biso   1.000  C
  C176     1.0000 0.42367  0.45514  0.86573  Biso   1.000  C
  C177     1.0000 0.70229  0.55541  0.04194  Biso   1.000  C
  C178     1.0000 0.00840  0.29282  0.45912  Biso   1.000  C
  C179     1.0000 0.92493  0.47002  0.71747  Biso   1.000  C
  C180     1.0000 0.19727  0.56813  0.55301  Biso   1.000  C
  C181     1.0000 0.01589  0.15394  0.95821  Biso   1.000  C
  C182     1.0000 0.94794  0.96517  0.23074  Biso   1.000  C
  C183     1.0000 0.19799  0.89144  0.02804  Biso   1.000  C
  C184     1.0000 0.52134  0.15371  0.62880  Biso   1.000  C
  C185     1.0000 0.44891  0.96130  0.36063  Biso   1.000  C
  C186     1.0000 0.69443  0.88028  0.56006  Biso   1.000  C
  C187     1.0000 0.51738  0.65387  0.95016  Biso   1.000  C
  C188     1.0000 0.61079  0.47107  0.22261  Biso   1.000  C
  C189     1.0000 0.33148  0.39116  0.05272  Biso   1.000  C
  C190     1.0000 0.02202  0.65074  0.62944  Biso   1.000  C
  C191     1.0000 0.10925  0.46319  0.36577  Biso   1.000  C
  C192     1.0000 0.84017  0.38273  0.51671  Biso   1.000  C
  C193     1.0000 0.85387  0.97110  0.95361  Biso   1.000  C
  C194     1.0000 0.91844  0.82017  0.04562  Biso   1.000  C
  C195     1.0000 0.01024  0.87324  0.88419  Biso   1.000  C
  C196     1.0000 0.34702  0.96950  0.62730  Biso   1.000  C
  C197     1.0000 0.41002  0.82240  0.54153  Biso   1.000  C
  C198     1.0000 0.49970  0.87335  0.69739  Biso   1.000  C
  C199     1.0000 0.66522  0.47784  0.93342  Biso   1.000  C
  C200     1.0000 0.61624  0.32079  0.04415  Biso   1.000  C
  C201     1.0000 0.50984  0.37117  0.89291  Biso   1.000  C
  C202     1.0000 0.16343  0.47935  0.65222  Biso   1.000  C
  C203     1.0000 0.12290  0.32068  0.54022  Biso   1.000  C
  C204     1.0000 0.01515  0.36961  0.70038  Biso   1.000  C
  C205     1.0000 0.18099  0.96624  0.13001  Biso   1.000  C
  C206     1.0000 0.11433  0.12419  0.04725  Biso   1.000  C
  C207     1.0000 0.02891  0.06869  0.19749  Biso   1.000  C
  C208     1.0000 0.68097  0.97196  0.45498  Biso   1.000  C
  C209     1.0000 0.61864  0.12133  0.54832  Biso   1.000  C
  C210     1.0000 0.51450  0.07299  0.39327  Biso   1.000  C
  C211     1.0000 0.36506  0.48284  0.15024  Biso   1.000  C
  C212     1.0000 0.41813  0.63499  0.03913  Biso   1.000  C
  C213     1.0000 0.52129  0.58002  0.19257  Biso   1.000  C
  C214     1.0000 0.86812  0.47354  0.43539  Biso   1.000  C
  C215     1.0000 0.90802  0.62181  0.54472  Biso   1.000  C
  C216     1.0000 0.01833  0.57132  0.39291  Biso   1.000  C
  C217     1.0000 0.10243  0.99019  0.87643  Biso   1.000  C
  C218     1.0000 0.85647  0.07063  0.05200  Biso   1.000  C
  C219     1.0000 0.02177  0.81305  0.14112  Biso   1.000  C
  C220     1.0000 0.60390  0.96681  0.70717  Biso   1.000  C
  C221     1.0000 0.35865  0.07891  0.54111  Biso   1.000  C
  C222     1.0000 0.51137  0.81338  0.44179  Biso   1.000  C
  C223     1.0000 0.40808  0.45811  0.89323  Biso   1.000  C
  C224     1.0000 0.67537  0.57162  0.03984  Biso   1.000  C
  C225     1.0000 0.51937  0.32364  0.15314  Biso   1.000  C
  C226     1.0000 0.91022  0.46421  0.69104  Biso   1.000  C
  C227     1.0000 0.16986  0.58249  0.55267  Biso   1.000  C
  C228     1.0000 0.00987  0.31813  0.44231  Biso   1.000  C
  C229     1.0000 0.92844  0.96529  0.20598  Biso   1.000  C
  C230     1.0000 0.17111  0.87552  0.02936  Biso   1.000  C
  C231     1.0000 0.01103  0.12746  0.94198  Biso   1.000  C
  C232     1.0000 0.42962  0.96561  0.38473  Biso   1.000  C
  C233     1.0000 0.66803  0.86575  0.55418  Biso   1.000  C
  C234     1.0000 0.51620  0.12664  0.64397  Biso   1.000  C
  C235     1.0000 0.62595  0.47170  0.19420  Biso   1.000  C
  C236     1.0000 0.35862  0.37454  0.05216  Biso   1.000  C
  C237     1.0000 0.51499  0.62631  0.93608  Biso   1.000  C
  C238     1.0000 0.12381  0.46688  0.39336  Biso   1.000  C
  C239     1.0000 0.86736  0.36791  0.52029  Biso   1.000  C
  C240     1.0000 0.01950  0.62399  0.64422  Biso   1.000  C
  C241     1.0000 0.61369  0.48472  0.88780  Biso   1.000  C
  C242     1.0000 0.85719  0.57020  0.54741  Biso   1.000  C
  C243     1.0000 0.51510  0.82263  0.64673  Biso   1.000  C
  C244     1.0000 0.11194  0.46912  0.70688  Biso   1.000  C
  C245     1.0000 0.36750  0.58300  0.04326  Biso   1.000  C
  C246     1.0000 0.01349  0.82301  0.93705  Biso   1.000  C
  C247     1.0000 0.90342  0.97418  0.89620  Biso   1.000  C
  C248     1.0000 0.67322  0.07125  0.55419  Biso   1.000  C
  C249     1.0000 0.02747  0.31972  0.64863  Biso   1.000  C
  C250     1.0000 0.39785  0.97513  0.68267  Biso   1.000  C
  C251     1.0000 0.16705  0.07542  0.03478  Biso   1.000  C
  C252     1.0000 0.51080  0.32255  0.94786  Biso   1.000  C
  C253     1.0000 0.41822  0.48118  0.20143  Biso   1.000  C
  C254     1.0000 0.17183  0.37646  0.53840  Biso   1.000  C
  C255     1.0000 0.50491  0.12772  0.44189  Biso   1.000  C
  C256     1.0000 0.92044  0.47181  0.38408  Biso   1.000  C
  C257     1.0000 0.66847  0.36600  0.03314  Biso   1.000  C
  C258     1.0000 0.01382  0.11938  0.14715  Biso   1.000  C
  C259     1.0000 0.13688  0.96744  0.18594  Biso   1.000  C
  C260     1.0000 0.35827  0.87506  0.53155  Biso   1.000  C
  C261     1.0000 0.00821  0.62299  0.44219  Biso   1.000  C
  C262     1.0000 0.63395  0.97336  0.39943  Biso   1.000  C
  C263     1.0000 0.86347  0.86972  0.05530  Biso   1.000  C
  C264     1.0000 0.51828  0.63114  0.13891  Biso   1.000  C
  C265     1.0000 0.00394  0.07420  0.89411  Biso   1.000  C
  C266     1.0000 0.87011  0.96564  0.15954  Biso   1.000  C
  C267     1.0000 0.12183  0.81917  0.03647  Biso   1.000  C
  C268     1.0000 0.49939  0.07855  0.69422  Biso   1.000  C
  C269     1.0000 0.36975  0.98359  0.42808  Biso   1.000  C
  C270     1.0000 0.61520  0.81587  0.54089  Biso   1.000  C
  C271     1.0000 0.50728  0.57502  0.88536  Biso   1.000  C
  C272     1.0000 0.67737  0.47360  0.13917  Biso   1.000  C
  C273     1.0000 0.40880  0.32190  0.05812  Biso   1.000  C
  C274     1.0000 0.01602  0.57470  0.69629  Biso   1.000  C
  C275     1.0000 0.17531  0.47606  0.44612  Biso   1.000  C
  C276     1.0000 0.91860  0.31802  0.53666  Biso   1.000  C
  C277     1.0000 0.02494  0.86386  0.19530  Biso   1.000  C
  C278     1.0000 0.15577  0.98322  0.92603  Biso   1.000  C
  C279     1.0000 0.90736  0.12158  0.04658  Biso   1.000  C
  C280     1.0000 0.53216  0.86664  0.39429  Biso   1.000  C
  C281     1.0000 0.66200  0.96956  0.66084  Biso   1.000  C
  C282     1.0000 0.41533  0.12907  0.54459  Biso   1.000  C
  C283     1.0000 0.52489  0.37353  0.20637  Biso   1.000  C
  C284     1.0000 0.36082  0.47048  0.94590  Biso   1.000  C
  C285     1.0000 0.62117  0.62454  0.03058  Biso   1.000  C
  C286     1.0000 0.01423  0.36434  0.38940  Biso   1.000  C
  C287     1.0000 0.85692  0.45726  0.63783  Biso   1.000  C
  C288     1.0000 0.11333  0.62663  0.54778  Biso   1.000  C
  C289     1.0000 0.35635  0.84464  0.53996  Biso   1.000  C
  C290     1.0000 0.51117  0.32019  0.91556  Biso   1.000  C
  C291     1.0000 0.88972  0.46864  0.38262  Biso   1.000  C
  C292     1.0000 0.86484  0.83854  0.05208  Biso   1.000  C
  C293     1.0000 0.02090  0.31838  0.67953  Biso   1.000  C
  C294     1.0000 0.38677  0.48081  0.20244  Biso   1.000  C
  C295     1.0000 0.17368  0.34519  0.53983  Biso   1.000  C
  C296     1.0000 0.01748  0.82150  0.90670  Biso   1.000  C
  C297     1.0000 0.66502  0.97519  0.40148  Biso   1.000  C
  C298     1.0000 0.67023  0.33634  0.03875  Biso   1.000  C
  C299     1.0000 0.51326  0.82224  0.67746  Biso   1.000  C
  C300     1.0000 0.16782  0.96766  0.18349  Biso   1.000  C
  C301     1.0000 0.67400  0.10208  0.55226  Biso   1.000  C
  C302     1.0000 0.51875  0.63246  0.17001  Biso   1.000  C
  C303     1.0000 0.14398  0.46936  0.70746  Biso   1.000  C
  C304     1.0000 0.16778  0.10657  0.03944  Biso   1.000  C
  C305     1.0000 0.01452  0.62494  0.41185  Biso   1.000  C
  C306     1.0000 0.64373  0.48294  0.88212  Biso   1.000  C
  C307     1.0000 0.85566  0.60121  0.55033  Biso   1.000  C
  C308     1.0000 0.01850  0.12042  0.17833  Biso   1.000  C
  C309     1.0000 0.36653  0.97251  0.68133  Biso   1.000  C
  C310     1.0000 0.36700  0.61441  0.03873  Biso   1.000  C
  C311     1.0000 0.50910  0.12796  0.41099  Biso   1.000  C
  C312     1.0000 0.87193  0.97293  0.89845  Biso   1.000  C
  C313     1.0000 0.17752  0.47567  0.41436  Biso   1.000  C
  C314     1.0000 0.38393  0.13205  0.54281  Biso   1.000  C
  C315     1.0000 0.52678  0.34312  0.20680  Biso   1.000  C
  C316     1.0000 0.67829  0.46779  0.17004  Biso   1.000  C
  C317     1.0000 0.87650  0.12178  0.04501  Biso   1.000  C
  C318     1.0000 0.01391  0.33324  0.38935  Biso   1.000  C
  C319     1.0000 0.37347  0.97658  0.39803  Biso   1.000  C
  C320     1.0000 0.14528  0.63130  0.54976  Biso   1.000  C
  C321     1.0000 0.02401  0.83339  0.19443  Biso   1.000  C
  C322     1.0000 0.87355  0.96688  0.19097  Biso   1.000  C
  C323     1.0000 0.65372  0.62399  0.03409  Biso   1.000  C
  C324     1.0000 0.52788  0.83518  0.39198  Biso   1.000  C
  C325     1.0000 0.85678  0.46251  0.66824  Biso   1.000  C
  C326     1.0000 0.64632  0.81500  0.54579  Biso   1.000  C
  C327     1.0000 0.50632  0.60618  0.88363  Biso   1.000  C
  C328     1.0000 0.35777  0.46530  0.91512  Biso   1.000  C
  C329     1.0000 0.15246  0.82141  0.03633  Biso   1.000  C
  C330     1.0000 0.01738  0.60583  0.69836  Biso   1.000  C
  C331     1.0000 0.65900  0.96988  0.69128  Biso   1.000  C
  C332     1.0000 0.88630  0.31539  0.53301  Biso   1.000  C
  C333     1.0000 0.00570  0.10587  0.89175  Biso   1.000  C
  C334     1.0000 0.15746  0.98669  0.89467  Biso   1.000  C
  C335     1.0000 0.37687  0.32111  0.05692  Biso   1.000  C
  C336     1.0000 0.50509  0.10886  0.69573  Biso   1.000  C
  C337     1.0000 0.66541  0.48087  0.90223  Biso   1.000  C
  C338     1.0000 0.87662  0.62328  0.54807  Biso   1.000  C
  C339     1.0000 0.50572  0.84326  0.69882  Biso   1.000  C
  C340     1.0000 0.16556  0.47396  0.68368  Biso   1.000  C
  C341     1.0000 0.38768  0.63652  0.03693  Biso   1.000  C
  C342     1.0000 0.01407  0.84265  0.88480  Biso   1.000  C
  C343     1.0000 0.85155  0.97188  0.92217  Biso   1.000  C
  C344     1.0000 0.65133  0.12245  0.54786  Biso   1.000  C
  C345     1.0000 0.01457  0.33835  0.70141  Biso   1.000  C
  C346     1.0000 0.34527  0.97021  0.65886  Biso   1.000  C
  C347     1.0000 0.14617  0.12721  0.04506  Biso   1.000  C
  C348     1.0000 0.51093  0.34058  0.89359  Biso   1.000  C
  C349     1.0000 0.36397  0.48184  0.18182  Biso   1.000  C
  C350     1.0000 0.15335  0.32189  0.54217  Biso   1.000  C
  C351     1.0000 0.51152  0.10483  0.39040  Biso   1.000  C
  C352     1.0000 0.86748  0.46857  0.40399  Biso   1.000  C
  C353     1.0000 0.64708  0.31698  0.04252  Biso   1.000  C
  C354     1.0000 0.02265  0.09992  0.19931  Biso   1.000  C
  C355     1.0000 0.18665  0.96878  0.16078  Biso   1.000  C
  C356     1.0000 0.37779  0.82386  0.54587  Biso   1.000  C
  C357     1.0000 0.01838  0.60287  0.39129  Biso   1.000  C
  C358     1.0000 0.68565  0.97317  0.42476  Biso   1.000  C
  C359     1.0000 0.88705  0.81888  0.04831  Biso   1.000  C
  C360     1.0000 0.52064  0.61199  0.19240  Biso   1.000  C
  C361     1.0000 0.01238  0.12776  0.91127  Biso   1.000  C
  C362     1.0000 0.89738  0.96669  0.21022  Biso   1.000  C
  C363     1.0000 0.17212  0.84440  0.03203  Biso   1.000  C
  C364     1.0000 0.51195  0.12947  0.67501  Biso   1.000  C
  C365     1.0000 0.39705  0.97043  0.37832  Biso   1.000  C
  C366     1.0000 0.66803  0.83471  0.55117  Biso   1.000  C
  C367     1.0000 0.50902  0.62772  0.90538  Biso   1.000  C
  C368     1.0000 0.65721  0.46607  0.19206  Biso   1.000  C
  C369     1.0000 0.35484  0.34280  0.05455  Biso   1.000  C
  C370     1.0000 0.01915  0.62593  0.67695  Biso   1.000  C
  C371     1.0000 0.15693  0.47162  0.39319  Biso   1.000  C
  C372     1.0000 0.86586  0.33657  0.52482  Biso   1.000  C
  C373     1.0000 0.02297  0.81247  0.17219  Biso   1.000  C
  C374     1.0000 0.13471  0.98982  0.87409  Biso   1.000  C
  C375     1.0000 0.85428  0.10110  0.04646  Biso   1.000  C
  C376     1.0000 0.52078  0.81320  0.41285  Biso   1.000  C
  C377     1.0000 0.63504  0.96681  0.70977  Biso   1.000  C
  C378     1.0000 0.36076  0.11042  0.54066  Biso   1.000  C
  C379     1.0000 0.52615  0.32215  0.18442  Biso   1.000  C
  C380     1.0000 0.37704  0.46049  0.89319  Biso   1.000  C
  C381     1.0000 0.67544  0.60332  0.03829  Biso   1.000  C
  C382     1.0000 0.01104  0.31338  0.41128  Biso   1.000  C
  C383     1.0000 0.87906  0.46570  0.69010  Biso   1.000  C
  C384     1.0000 0.16888  0.61321  0.55018  Biso   1.000  C
  C385     1.0000 0.19563  0.12377  0.04039  Biso   1.000  C
  C386     1.0000 0.01412  0.14697  0.19448  Biso   1.000  C
  C387     1.0000 0.18618  0.96735  0.20883  Biso   1.000  C
  C388     1.0000 0.70130  0.11829  0.55049  Biso   1.000  C
  C389     1.0000 0.51242  0.15474  0.39438  Biso   1.000  C
  C390     1.0000 0.68298  0.97545  0.37592  Biso   1.000  C
  C391     1.0000 0.33997  0.62921  0.03275  Biso   1.000  C
  C392     1.0000 0.51831  0.66077  0.18455  Biso   1.000  C
  C393     1.0000 0.37189  0.48005  0.22990  Biso   1.000  C
  C394     1.0000 0.82846  0.61742  0.55431  Biso   1.000  C
  C395     1.0000 0.01894  0.65193  0.39575  Biso   1.000  C
  C396     1.0000 0.87482  0.46335  0.35507  Biso   1.000  C
  C397     1.0000 0.83856  0.82174  0.05124  Biso   1.000  C
  C398     1.0000 0.02180  0.79442  0.89122  Biso   1.000  C
  C399     1.0000 0.85358  0.97309  0.87344  Biso   1.000  C
  C400     1.0000 0.32819  0.83108  0.54210  Biso   1.000  C
  C401     1.0000 0.51495  0.79537  0.69376  Biso   1.000  C
  C402     1.0000 0.34939  0.97160  0.70734  Biso   1.000  C
  C403     1.0000 0.69574  0.31935  0.04258  Biso   1.000  C
  C404     1.0000 0.51409  0.29312  0.89995  Biso   1.000  C
  C405     1.0000 0.65814  0.48319  0.85474  Biso   1.000  C
  C406     1.0000 0.20203  0.33100  0.54109  Biso   1.000  C
  C407     1.0000 0.02001  0.29048  0.69327  Biso   1.000  C
  C408     1.0000 0.16116  0.46464  0.73281  Biso   1.000  C
  C409     1.0000 0.14854  0.98982  0.84550  Biso   1.000  C
  C410     1.0000 0.82837  0.11736  0.04447  Biso   1.000  C
  C411     1.0000 0.02189  0.78427  0.18831  Biso   1.000  C
  C412     1.0000 0.64867  0.96552  0.73849  Biso   1.000  C
  C413     1.0000 0.33410  0.12771  0.53800  Biso   1.000  C
  C414     1.0000 0.51922  0.78780  0.39615  Biso   1.000  C
  C415     1.0000 0.36046  0.45704  0.86753  Biso   1.000  C
  C416     1.0000 0.70163  0.61894  0.04150  Biso   1.000  C
  C417     1.0000 0.52902  0.29446  0.19817  Biso   1.000  C
  C418     1.0000 0.86159  0.46881  0.71651  Biso   1.000  C
  C419     1.0000 0.19487  0.63043  0.55101  Biso   1.000  C
  C420     1.0000 0.00978  0.28634  0.39677  Biso   1.000  C
  C421     1.0000 0.88419  0.96896  0.23906  Biso   1.000  C
  C422     1.0000 0.19939  0.83031  0.03296  Biso   1.000  C
  C423     1.0000 0.01306  0.15403  0.89531  Biso   1.000  C
  C424     1.0000 0.38547  0.97013  0.35043  Biso   1.000  C
  C425     1.0000 0.69296  0.81788  0.55864  Biso   1.000  C
  C426     1.0000 0.51410  0.15604  0.69107  Biso   1.000  C
  C427     1.0000 0.67498  0.45999  0.21654  Biso   1.000  C
  C428     1.0000 0.32787  0.32799  0.05395  Biso   1.000  C
  C429     1.0000 0.50655  0.65371  0.89001  Biso   1.000  C
  C430     1.0000 0.17292  0.47224  0.36768  Biso   1.000  C
  C431     1.0000 0.83841  0.32210  0.52232  Biso   1.000  C
  C432     1.0000 0.02186  0.65232  0.69178  Biso   1.000  C
  C433     1.0000 0.00643  0.12120  0.86343  Biso   1.000  C
  C434     1.0000 0.84789  0.96979  0.20823  Biso   1.000  C
  C435     1.0000 0.16900  0.79518  0.03659  Biso   1.000  C
  C436     1.0000 0.50298  0.12556  0.72253  Biso   1.000  C
  C437     1.0000 0.34962  0.97819  0.37932  Biso   1.000  C
  C438     1.0000 0.65934  0.78738  0.54944  Biso   1.000  C
  C439     1.0000 0.50270  0.62175  0.85646  Biso   1.000  C
  C440     1.0000 0.70639  0.46017  0.18321  Biso   1.000  C
  C441     1.0000 0.36121  0.29508  0.05783  Biso   1.000  C
  C442     1.0000 0.01799  0.62115  0.72514  Biso   1.000  C
  C443     1.0000 0.20539  0.47629  0.40052  Biso   1.000  C
  C444     1.0000 0.86995  0.28869  0.53324  Biso   1.000  C
  C445     1.0000 0.02437  0.81650  0.21984  Biso   1.000  C
  C446     1.0000 0.18274  0.98769  0.87750  Biso   1.000  C
  C447     1.0000 0.86108  0.14844  0.04055  Biso   1.000  C
  C448     1.0000 0.52961  0.82030  0.36514  Biso   1.000  C
  C449     1.0000 0.68326  0.97267  0.71059  Biso   1.000  C
  C450     1.0000 0.36924  0.15969  0.54042  Biso   1.000  C
  C451     1.0000 0.52943  0.32613  0.23234  Biso   1.000  C
  C452     1.0000 0.33032  0.46600  0.90058  Biso   1.000  C
  C453     1.0000 0.66951  0.65223  0.03791  Biso   1.000  C
  C454     1.0000 0.01261  0.31624  0.36360  Biso   1.000  C
  C455     1.0000 0.82947  0.46373  0.68418  Biso   1.000  C
  C456     1.0000 0.15894  0.65979  0.55273  Biso   1.000  C
  C457     1.0000 0.02609  0.61955  0.36514  Biso   1.000  C
  C458     1.0000 0.31801  0.96967  0.67366  Biso   1.000  C
  C459     1.0000 0.65972  0.28957  0.04783  Biso   1.000  C
  C460     1.0000 0.52226  0.62919  0.21837  Biso   1.000  C
  C461     1.0000 0.82299  0.97099  0.90859  Biso   1.000  C
  C462     1.0000 0.17062  0.29642  0.54340  Biso   1.000  C
  C463     1.0000 0.51523  0.11897  0.36258  Biso   1.000  C
  C464     1.0000 0.19288  0.47108  0.69861  Biso   1.000  C
  C465     1.0000 0.87160  0.79072  0.04507  Biso   1.000  C
  C466     1.0000 0.02266  0.11532  0.22590  Biso   1.000  C
  C467     1.0000 0.69238  0.47956  0.88659  Biso   1.000  C
  C468     1.0000 0.36015  0.79939  0.55328  Biso   1.000  C
  C469     1.0000 0.01108  0.32091  0.72757  Biso   1.000  C
  C470     1.0000 0.71277  0.97143  0.41080  Biso   1.000  C
  C471     1.0000 0.37197  0.66313  0.03280  Biso   1.000  C
  C472     1.0000 0.51506  0.32353  0.86730  Biso   1.000  C
  C473     1.0000 0.21579  0.96808  0.17313  Biso   1.000  C
  C474     1.0000 0.86076  0.65010  0.55221  Biso   1.000  C
  C475     1.0000 0.50475  0.82832  0.72556  Biso   1.000  C
  C476     1.0000 0.84154  0.46399  0.38684  Biso   1.000  C
  C477     1.0000 0.16151  0.15424  0.05022  Biso   1.000  C
  C478     1.0000 0.01573  0.82505  0.85916  Biso   1.000  C
  C479     1.0000 0.33712  0.48227  0.19839  Biso   1.000  C
  C480     1.0000 0.66648  0.14871  0.54498  Biso   1.000  C
  C481     1.0000 0.37505  0.77323  0.56372  Biso   1.000  C
  C482     1.0000 0.51697  0.33743  0.83945  Biso   1.000  C
  C483     1.0000 0.81448  0.46077  0.40204  Biso   1.000  C
  C484     1.0000 0.88712  0.76555  0.03786  Biso   1.000  C
  C485     1.0000 0.00316  0.33482  0.75385  Biso   1.000  C
  C486     1.0000 0.30906  0.48693  0.18307  Biso   1.000  C
  C487     1.0000 0.15577  0.26813  0.54452  Biso   1.000  C
  C488     1.0000 0.01167  0.83824  0.83048  Biso   1.000  C
  C489     1.0000 0.73859  0.96997  0.42905  Biso   1.000  C
  C490     1.0000 0.64384  0.26288  0.05448  Biso   1.000  C
  C491     1.0000 0.49541  0.84316  0.75111  Biso   1.000  C
  C492     1.0000 0.24138  0.96520  0.15420  Biso   1.000  C
  C493     1.0000 0.65064  0.17480  0.54424  Biso   1.000  C
  C494     1.0000 0.52859  0.61407  0.24618  Biso   1.000  C
  C495     1.0000 0.22124  0.47387  0.68222  Biso   1.000  C
  C496     1.0000 0.14446  0.17946  0.05657  Biso   1.000  C
  C497     1.0000 0.03568  0.60284  0.33991  Biso   1.000  C
  C498     1.0000 0.72183  0.47670  0.90062  Biso   1.000  C
  C499     1.0000 0.87806  0.67719  0.55251  Biso   1.000  C
  C500     1.0000 0.03211  0.09858  0.25171  Biso   1.000  C
  C501     1.0000 0.29211  0.96516  0.65417  Biso   1.000  C
  C502     1.0000 0.38857  0.69070  0.03592  Biso   1.000  C
  C503     1.0000 0.51496  0.10092  0.33576  Biso   1.000  C
  C504     1.0000 0.79679  0.97047  0.92648  Biso   1.000  C
  C505     1.0000 0.64112  0.48762  0.82924  Biso   1.000  C
  C506     1.0000 0.80111  0.60069  0.55732  Biso   1.000  C
  C507     1.0000 0.52066  0.76915  0.67753  Biso   1.000  C
  C508     1.0000 0.14630  0.46008  0.75967  Biso   1.000  C
  C509     1.0000 0.31228  0.61096  0.03023  Biso   1.000  C
  C510     1.0000 0.02598  0.76793  0.90786  Biso   1.000  C
  C511     1.0000 0.86566  0.97522  0.84373  Biso   1.000  C
  C512     1.0000 0.72993  0.10366  0.55211  Biso   1.000  C
  C513     1.0000 0.02234  0.26299  0.67496  Biso   1.000  C
  C514     1.0000 0.36226  0.97495  0.73549  Biso   1.000  C
  C515     1.0000 0.22129  0.10914  0.03313  Biso   1.000  C
  C516     1.0000 0.52023  0.26843  0.91668  Biso   1.000  C
  C517     1.0000 0.38819  0.47704  0.25626  Biso   1.000  C
  C518     1.0000 0.22864  0.34867  0.54080  Biso   1.000  C
  C519     1.0000 0.51638  0.18064  0.40961  Biso   1.000  C
  C520     1.0000 0.89263  0.46468  0.32756  Biso   1.000  C
  C521     1.0000 0.72383  0.33485  0.04144  Biso   1.000  C
  C522     1.0000 0.00567  0.17305  0.17912  Biso   1.000  C
  C523     1.0000 0.17352  0.96849  0.23922  Biso   1.000  C
  C524     1.0000 0.30229  0.84752  0.53580  Biso   1.000  C
  C525     1.0000 0.01328  0.67806  0.41132  Biso   1.000  C
  C526     1.0000 0.66882  0.97442  0.34776  Biso   1.000  C
  C527     1.0000 0.80971  0.83580  0.05668  Biso   1.000  C
  C528     1.0000 0.51490  0.68654  0.16688  Biso   1.000  C
  C529     1.0000 0.80132  0.10164  0.05063  Biso   1.000  C
  C530     1.0000 0.02212  0.75657  0.17241  Biso   1.000  C
  C531     1.0000 0.13083  0.98851  0.81816  Biso   1.000  C
  C532     1.0000 0.30568  0.11409  0.53600  Biso   1.000  C
  C533     1.0000 0.51408  0.75995  0.41076  Biso   1.000  C
  C534     1.0000 0.63121  0.96114  0.76312  Biso   1.000  C
  C535     1.0000 0.72836  0.60238  0.04194  Biso   1.000  C
  C536     1.0000 0.52552  0.26615  0.18009  Biso   1.000  C
  C537     1.0000 0.37636  0.45149  0.83967  Biso   1.000  C
  C538     1.0000 0.22277  0.61660  0.55161  Biso   1.000  C
  C539     1.0000 0.00679  0.26089  0.41398  Biso   1.000  C
  C540     1.0000 0.87781  0.47207  0.74354  Biso   1.000  C
  C541     1.0000 0.22659  0.84540  0.03298  Biso   1.000  C
  C542     1.0000 0.01772  0.18245  0.91173  Biso   1.000  C
  C543     1.0000 0.90348  0.97061  0.26450  Biso   1.000  C
  C544     1.0000 0.72120  0.83253  0.56427  Biso   1.000  C
  C545     1.0000 0.52216  0.18273  0.67585  Biso   1.000  C
  C546     1.0000 0.40458  0.96431  0.32614  Biso   1.000  C
  C547     1.0000 0.30114  0.34506  0.05590  Biso   1.000  C
  C548     1.0000 0.51165  0.68072  0.90586  Biso   1.000  C
  C549     1.0000 0.66092  0.46170  0.24585  Biso   1.000  C
  C550     1.0000 0.81207  0.33642  0.51381  Biso   1.000  C
  C551     1.0000 0.02719  0.67782  0.67634  Biso   1.000  C
  C552     1.0000 0.15753  0.46889  0.34040  Biso   1.000  C
  C553     1.0000 0.99841  0.10517  0.83785  Biso   1.000  C
  C554     1.0000 0.81959  0.97247  0.19551  Biso   1.000  C
  C555     1.0000 0.15581  0.76707  0.04177  Biso   1.000  C
  C556     1.0000 0.49720  0.11081  0.74922  Biso   1.000  C
  C557     1.0000 0.32024  0.98489  0.38962  Biso   1.000  C
  C558     1.0000 0.64300  0.76043  0.54988  Biso   1.000  C
  C559     1.0000 0.49589  0.60266  0.83099  Biso   1.000  C
  C560     1.0000 0.73297  0.45389  0.16609  Biso   1.000  C
  C561     1.0000 0.37814  0.26846  0.05854  Biso   1.000  C
  C562     1.0000 0.01484  0.60571  0.75198  Biso   1.000  C
  C563     1.0000 0.23205  0.47907  0.41809  Biso   1.000  C
  C564     1.0000 0.88499  0.26172  0.53960  Biso   1.000  C
  C565     1.0000 0.02267  0.83063  0.24840  Biso   1.000  C
  C566     1.0000 0.21078  0.98446  0.89243  Biso   1.000  C
  C567     1.0000 0.87776  0.17588  0.03290  Biso   1.000  C
  C568     1.0000 0.53436  0.83886  0.33835  Biso   1.000  C
  C569     1.0000 0.71190  0.98059  0.69890  Biso   1.000  C
  C570     1.0000 0.38656  0.18641  0.54000  Biso   1.000  C
  C571     1.0000 0.53097  0.34321  0.25975  Biso   1.000  C
  C572     1.0000 0.30449  0.47052  0.91822  Biso   1.000  C
  C573     1.0000 0.65415  0.67994  0.03636  Biso   1.000  C
  C574     1.0000 0.01315  0.33130  0.33503  Biso   1.000  C
  C575     1.0000 0.80331  0.45774  0.66811  Biso   1.000  C
  C576     1.0000 0.14214  0.68599  0.55298  Biso   1.000  C
  C577     1.0000 0.30876  0.48534  0.15065  Biso   1.000  C
  C578     1.0000 0.12379  0.26625  0.54087  Biso   1.000  C
  C579     1.0000 0.51280  0.06993  0.33793  Biso   1.000  C
  C580     1.0000 0.81472  0.46472  0.43376  Biso   1.000  C
  C581     1.0000 0.61187  0.26577  0.05461  Biso   1.000  C
  C582     1.0000 0.03626  0.06787  0.24943  Biso   1.000  C
  C583     1.0000 0.23606  0.96654  0.12279  Biso   1.000  C
  C584     1.0000 0.40742  0.77294  0.56241  Biso   1.000  C
  C585     1.0000 0.03902  0.57157  0.34237  Biso   1.000  C
  C586     1.0000 0.73578  0.96689  0.45985  Biso   1.000  C
  C587     1.0000 0.91834  0.76615  0.03671  Biso   1.000  C
  C588     1.0000 0.52934  0.58307  0.24668  Biso   1.000  C
  C589     1.0000 0.72167  0.47263  0.93239  Biso   1.000  C
  C590     1.0000 0.90892  0.67609  0.54992  Biso   1.000  C
  C591     1.0000 0.49062  0.87370  0.75129  Biso   1.000  C
  C592     1.0000 0.21902  0.47919  0.65103  Biso   1.000  C
  C593     1.0000 0.42046  0.68901  0.03954  Biso   1.000  C
  C594     1.0000 0.00596  0.86867  0.83016  Biso   1.000  C
  C595     1.0000 0.79868  0.96755  0.95797  Biso   1.000  C
  C596     1.0000 0.61914  0.17559  0.54361  Biso   1.000  C
  C597     1.0000 0.00202  0.36625  0.75331  Biso   1.000  C
  C598     1.0000 0.29238  0.96264  0.62352  Biso   1.000  C
  C599     1.0000 0.11283  0.17943  0.05796  Biso   1.000  C
  C600     1.0000 0.51673  0.36815  0.83915  Biso   1.000  C
  C601     1.0000 0.21189  0.98322  0.92439  Biso   1.000  C
  C602     1.0000 0.90891  0.17514  0.03518  Biso   1.000  C
  C603     1.0000 0.02566  0.86309  0.24876  Biso   1.000  C
  C604     1.0000 0.71441  0.97991  0.66737  Biso   1.000  C
  C605     1.0000 0.41742  0.18443  0.54342  Biso   1.000  C
  C606     1.0000 0.53562  0.87030  0.34069  Biso   1.000  C
  C607     1.0000 0.30674  0.47650  0.94887  Biso   1.000  C
  C608     1.0000 0.62336  0.68046  0.03252  Biso   1.000  C
  C609     1.0000 0.52499  0.37446  0.26306  Biso   1.000  C
  C610     1.0000 0.80300  0.45464  0.63669  Biso   1.000  C
  C611     1.0000 0.10994  0.68311  0.54905  Biso   1.000  C
  C612     1.0000 0.01368  0.36352  0.33458  Biso   1.000  C
  C613     1.0000 0.81706  0.97080  0.16411  Biso   1.000  C
  C614     1.0000 0.12394  0.76522  0.04593  Biso   1.000  C
  C615     1.0000 0.99648  0.07296  0.83837  Biso   1.000  C
  C616     1.0000 0.31583  0.98816  0.42172  Biso   1.000  C
  C617     1.0000 0.61244  0.76090  0.54261  Biso   1.000  C
  C618     1.0000 0.49340  0.07973  0.74917  Biso   1.000  C
  C619     1.0000 0.73175  0.45901  0.13451  Biso   1.000  C
  C620     1.0000 0.41109  0.26956  0.05880  Biso   1.000  C
  C621     1.0000 0.49824  0.57132  0.83273  Biso   1.000  C
  C622     1.0000 0.22978  0.48305  0.44987  Biso   1.000  C
  C623     1.0000 0.91649  0.26462  0.54379  Biso   1.000  C
  C624     1.0000 0.01413  0.57406  0.75090  Biso   1.000  C
  C625     1.0000 0.02096  0.18092  0.94272  Biso   1.000  C
  C626     1.0000 0.93503  0.96785  0.26021  Biso   1.000  C
  C627     1.0000 0.22467  0.87663  0.02899  Biso   1.000  C
  C628     1.0000 0.52460  0.18157  0.64486  Biso   1.000  C
  C629     1.0000 0.43514  0.95942  0.33081  Biso   1.000  C
  C630     1.0000 0.72179  0.86429  0.56524  Biso   1.000  C
  C631     1.0000 0.51658  0.68259  0.93663  Biso   1.000  C
  C632     1.0000 0.62894  0.46421  0.24858  Biso   1.000  C
  C633     1.0000 0.30375  0.37643  0.05485  Biso   1.000  C
  C634     1.0000 0.02768  0.67740  0.64512  Biso   1.000  C
  C635     1.0000 0.12556  0.46124  0.33919  Biso   1.000  C
  C636     1.0000 0.81269  0.36696  0.51027  Biso   1.000  C
  C637     1.0000 0.02219  0.75692  0.14090  Biso   1.000  C
  C638     1.0000 0.10086  0.98778  0.82025  Biso   1.000  C
  C639     1.0000 0.80294  0.07131  0.05705  Biso   1.000  C
  C640     1.0000 0.50406  0.75784  0.44127  Biso   1.000  C
  C641     1.0000 0.59967  0.96375  0.76146  Biso   1.000  C
  C642     1.0000 0.30349  0.08285  0.53758  Biso   1.000  C
  C643     1.0000 0.51828  0.26915  0.14748  Biso   1.000  C
  C644     1.0000 0.40761  0.45293  0.83890  Biso   1.000  C
  C645     1.0000 0.72987  0.57069  0.04301  Biso   1.000  C
  C646     1.0000 0.00532  0.26402  0.44594  Biso   1.000  C
  C647     1.0000 0.90828  0.47500  0.74418  Biso   1.000  C
  C648     1.0000 0.22521  0.58555  0.55261  Biso   1.000  C
  C649     1.0000 0.00802  0.67695  0.44174  Biso   1.000  C
  C650     1.0000 0.39403  0.97705  0.73664  Biso   1.000  C
  C651     1.0000 0.72407  0.36536  0.03973  Biso   1.000  C
  C652     1.0000 0.51551  0.68573  0.13564  Biso   1.000  C
  C653     1.0000 0.89689  0.97660  0.84080  Biso   1.000  C
  C654     1.0000 0.22641  0.37970  0.53674  Biso   1.000  C
  C655     1.0000 0.51431  0.18231  0.44102  Biso   1.000  C
  C656     1.0000 0.11458  0.45854  0.76004  Biso   1.000  C
  C657     1.0000 0.80867  0.86678  0.06132  Biso   1.000  C
  C658     1.0000 0.00246  0.17178  0.14730  Biso   1.000  C
  C659     1.0000 0.60977  0.48749  0.83373  Biso   1.000  C
  C660     1.0000 0.30437  0.87652  0.52862  Biso   1.000  C
  C661     1.0000 0.02578  0.26578  0.64299  Biso   1.000  C
  C662     1.0000 0.63800  0.97448  0.34451  Biso   1.000  C
  C663     1.0000 0.31278  0.58014  0.03262  Biso   1.000  C
  C664     1.0000 0.51964  0.26945  0.94849  Biso   1.000  C
  C665     1.0000 0.14219  0.97002  0.24152  Biso   1.000  C
  C666     1.0000 0.80156  0.56839  0.55463  Biso   1.000  C
  C667     1.0000 0.52062  0.76872  0.64600  Biso   1.000  C
  C668     1.0000 0.92447  0.46633  0.32988  Biso   1.000  C
  C669     1.0000 0.22128  0.07865  0.02671  Biso   1.000  C
  C670     1.0000 0.02441  0.76964  0.93929  Biso   1.000  C
  C671     1.0000 0.41963  0.47587  0.25518  Biso   1.000  C
  C672     1.0000 0.72752  0.07171  0.55637  Biso   1.000  C
  C673     1.0000 0.19511  0.98446  0.83048  Biso   1.000  C
  C674     1.0000 0.81561  0.16331  0.04129  Biso   1.000  C
  C675     1.0000 0.02489  0.77068  0.23671  Biso   1.000  C
  C676     1.0000 0.69506  0.96855  0.75598  Biso   1.000  C
  C677     1.0000 0.32359  0.17540  0.53525  Biso   1.000  C
  C678     1.0000 0.52624  0.77556  0.34699  Biso   1.000  C
  C679     1.0000 0.31255  0.45877  0.85530  Biso   1.000  C
  C680     1.0000 0.71758  0.66544  0.04108  Biso   1.000  C
  C681     1.0000 0.52947  0.27874  0.24504  Biso   1.000  C
  C682     1.0000 0.81533  0.47238  0.73250  Biso   1.000  C
  C683     1.0000 0.20443  0.67757  0.55458  Biso   1.000  C
  C684     1.0000 0.00892  0.27027  0.34992  Biso   1.000  C
  C685     1.0000 0.83898  0.97282  0.25600  Biso   1.000  C
  C686     1.0000 0.21664  0.78442  0.03611  Biso   1.000  C
  C687     1.0000 0.01188  0.16717  0.84797  Biso   1.000  C
  C688     1.0000 0.34032  0.97477  0.33021  Biso   1.000  C
  C689     1.0000 0.70468  0.76929  0.55886  Biso   1.000  C
  C690     1.0000 0.51059  0.17172  0.73759  Biso   1.000  C
  C691     1.0000 0.72157  0.45455  0.23026  Biso   1.000  C
  C692     1.0000 0.31373  0.28208  0.05921  Biso   1.000  C
  C693     1.0000 0.50292  0.66770  0.84401  Biso   1.000  C
  C694     1.0000 0.21941  0.47279  0.35387  Biso   1.000  C
  C695     1.0000 0.82246  0.27461  0.52987  Biso   1.000  C
  C696     1.0000 0.02192  0.66796  0.73900  Biso   1.000  C
  C697     1.0000 0.73111  0.97830  0.36630  Biso   1.000  C
  C698     1.0000 0.32449  0.67607  0.02823  Biso   1.000  C
  C699     1.0000 0.01354  0.27285  0.73830  Biso   1.000  C
  C700     1.0000 0.23385  0.96751  0.21878  Biso   1.000  C
  C701     1.0000 0.81412  0.66511  0.55921  Biso   1.000  C
  C702     1.0000 0.51489  0.27465  0.85498  Biso   1.000  C
  C703     1.0000 0.82907  0.45840  0.33921  Biso   1.000  C
  C704     1.0000 0.20802  0.17003  0.04815  Biso   1.000  C
  C705     1.0000 0.50898  0.78164  0.74038  Biso   1.000  C
  C706     1.0000 0.32693  0.48313  0.24624  Biso   1.000  C
  C707     1.0000 0.71463  0.16585  0.54849  Biso   1.000  C
  C708     1.0000 0.02261  0.77815  0.84557  Biso   1.000  C
  C709     1.0000 0.30041  0.96901  0.71827  Biso   1.000  C
  C710     1.0000 0.70686  0.27176  0.04608  Biso   1.000  C
  C711     1.0000 0.02672  0.66641  0.34937  Biso   1.000  C
  C712     1.0000 0.80527  0.97239  0.86289  Biso   1.000  C
  C713     1.0000 0.21848  0.28606  0.54340  Biso   1.000  C
  C714     1.0000 0.52121  0.67518  0.23247  Biso   1.000  C
  C715     1.0000 0.20739  0.46554  0.74395  Biso   1.000  C
  C716     1.0000 0.82529  0.77407  0.04630  Biso   1.000  C
  C717     1.0000 0.51871  0.16504  0.34840  Biso   1.000  C
  C718     1.0000 0.70403  0.47841  0.83889  Biso   1.000  C
  C719     1.0000 0.31217  0.78720  0.55547  Biso   1.000  C
  C720     1.0000 0.01801  0.16108  0.24213  Biso   1.000  C
  C721     1.0000 0.54819  0.77892  0.32483  Biso   1.000  C
  C722     1.0000 0.31833  0.46987  0.82661  Biso   1.000  C
  C723     1.0000 0.79516  0.28236  0.54335  Biso   1.000  C
  C724     1.0000 0.00721  0.74415  0.23653  Biso   1.000  C
  C725     1.0000 0.78763  0.48591  0.72578  Biso   1.000  C
  C726     1.0000 0.28832  0.28485  0.04062  Biso   1.000  C
  C727     1.0000 0.99167  0.24335  0.35052  Biso   1.000  C
  C728     1.0000 0.22421  0.99768  0.83214  Biso   1.000  C
  C729     1.0000 0.72877  0.77194  0.57963  Biso   1.000  C
  C730     1.0000 0.51007  0.27898  0.27097  Biso   1.000  C
  C731     1.0000 0.72340  0.95690  0.75098  Biso   1.000  C
  C732     1.0000 0.23966  0.78360  0.01473  Biso   1.000  C
  C733     1.0000 0.48963  0.17226  0.76134  Biso   1.000  C
  C734     1.0000 0.71632  0.43726  0.25579  Biso   1.000  C
  C735     1.0000 0.20062  0.70510  0.53975  Biso   1.000  C
  C736     1.0000 0.99942  0.19568  0.85276  Biso   1.000  C
  C737     1.0000 0.24790  0.45843  0.35668  Biso   1.000  C
  C738     1.0000 0.73854  0.66664  0.06565  Biso   1.000  C
  C739     1.0000 0.03950  0.66444  0.76487  Biso   1.000  C
  C740     1.0000 0.81189  0.95596  0.25264  Biso   1.000  C
  C741     1.0000 0.29946  0.17512  0.51448  Biso   1.000  C
  C742     1.0000 0.51571  0.66162  0.81462  Biso   1.000  C
  C743     1.0000 0.34386  0.95327  0.30723  Biso   1.000  C
  C744     1.0000 0.82048  0.19095  0.05667  Biso   1.000  C
  C745     1.0000 0.03790  0.69510  0.35511  Biso   1.000  C
  C746     1.0000 0.27472  0.98613  0.71629  Biso   1.000  C
  C747     1.0000 0.73518  0.27437  0.05953  Biso   1.000  C
  C748     1.0000 0.53536  0.70345  0.22721  Biso   1.000  C
  C749     1.0000 0.80560  0.95392  0.83795  Biso   1.000  C
  C750     1.0000 0.24664  0.29059  0.55540  Biso   1.000  C
  C751     1.0000 0.53754  0.16025  0.32348  Biso   1.000  C
  C752     1.0000 0.23367  0.44682  0.74031  Biso   1.000  C
  C753     1.0000 0.79593  0.77709  0.03255  Biso   1.000  C
  C754     1.0000 0.03638  0.15968  0.26845  Biso   1.000  C
  C755     1.0000 0.69835  0.46742  0.80989  Biso   1.000  C
  C756     1.0000 0.28362  0.79319  0.56672  Biso   1.000  C
  C757     1.0000 0.99625  0.24702  0.73316  Biso   1.000  C
  C758     1.0000 0.72698  0.99707  0.34026  Biso   1.000  C
  C759     1.0000 0.29638  0.67164  0.04336  Biso   1.000  C
  C760     1.0000 0.53357  0.27752  0.82859  Biso   1.000  C
  C761     1.0000 0.25887  0.98693  0.21446  Biso   1.000  C
  C762     1.0000 0.81144  0.68793  0.53849  Biso   1.000  C
  C763     1.0000 0.48542  0.78006  0.75997  Biso   1.000  C
  C764     1.0000 0.79996  0.47194  0.34032  Biso   1.000  C
  C765     1.0000 0.23721  0.16386  0.05929  Biso   1.000  C
  C766     1.0000 0.01200  0.74904  0.84964  Biso   1.000  C
  C767     1.0000 0.33115  0.49976  0.27247  Biso   1.000  C
  C768     1.0000 0.71267  0.18931  0.52974  Biso   1.000  C
  C769     1.0000 0.49030  0.69529  0.84788  Biso   1.000  C
  C770     1.0000 0.81883  0.46044  0.76117  Biso   1.000  C
  C771     1.0000 0.70211  0.74293  0.54057  Biso   1.000  C
  C772     1.0000 0.00804  0.69535  0.73496  Biso   1.000  C
  C773     1.0000 0.28433  0.44614  0.86081  Biso   1.000  C
  C774     1.0000 0.21930  0.76478  0.05999  Biso   1.000  C
  C775     1.0000 0.02423  0.16097  0.81985  Biso   1.000  C
  C776     1.0000 0.68822  0.98016  0.78438  Biso   1.000  C
  C777     1.0000 0.82712  0.24367  0.52465  Biso   1.000  C
  C778     1.0000 0.53304  0.19279  0.74033  Biso   1.000  C
  C779     1.0000 0.18944  0.96655  0.80466  Biso   1.000  C
  C780     1.0000 0.31644  0.25676  0.07699  Biso   1.000  C
  C781     1.0000 0.54836  0.25243  0.24251  Biso   1.000  C
  C782     1.0000 0.21283  0.49014  0.32827  Biso   1.000  C
  C783     1.0000 0.32492  0.19965  0.55577  Biso   1.000  C
  C784     1.0000 0.02981  0.27283  0.32495  Biso   1.000  C
  C785     1.0000 0.74852  0.46905  0.22816  Biso   1.000  C
  C786     1.0000 0.78813  0.15866  0.02562  Biso   1.000  C
  C787     1.0000 0.04712  0.77494  0.26034  Biso   1.000  C
  C788     1.0000 0.31685  0.99577  0.32699  Biso   1.000  C
  C789     1.0000 0.23016  0.67369  0.57373  Biso   1.000  C
  C790     1.0000 0.50633  0.75190  0.34578  Biso   1.000  C
  C791     1.0000 0.84347  0.99286  0.28208  Biso   1.000  C
  C792     1.0000 0.71974  0.68653  0.01715  Biso   1.000  C
  C793     1.0000 0.50337  0.19220  0.35161  Biso   1.000  C
  C794     1.0000 0.30117  0.46456  0.24279  Biso   1.000  C
  C795     1.0000 0.21630  0.26138  0.52352  Biso   1.000  C
  C796     1.0000 0.99931  0.18601  0.23840  Biso   1.000  C
  C797     1.0000 0.83466  0.44146  0.31141  Biso   1.000  C
  C798     1.0000 0.70228  0.24602  0.02783  Biso   1.000  C
  C799     1.0000 0.01737  0.65885  0.31885  Biso   1.000  C
  C800     1.0000 0.23469  0.94834  0.24354  Biso   1.000  C
  C801     1.0000 0.31584  0.75709  0.54429  Biso   1.000  C
  C802     1.0000 0.51006  0.66978  0.26186  Biso   1.000  C
  C803     1.0000 0.75723  0.96027  0.36653  Biso   1.000  C
  C804     1.0000 0.83270  0.74640  0.05847  Biso   1.000  C
  C805     1.0000 0.53192  0.75917  0.74167  Biso   1.000  C
  C806     1.0000 0.73294  0.49123  0.84360  Biso   1.000  C
  C807     1.0000 0.79426  0.66343  0.58285  Biso   1.000  C
  C808     1.0000 0.03802  0.78324  0.81797  Biso   1.000  C
  C809     1.0000 0.20345  0.48028  0.77303  Biso   1.000  C
  C810     1.0000 0.32940  0.70436  0.01328  Biso   1.000  C
  C811     1.0000 0.02836  0.27493  0.76646  Biso   1.000  C
  C812     1.0000 0.77891  0.98989  0.86729  Biso   1.000  C
  C813     1.0000 0.74072  0.16537  0.56837  Biso   1.000  C
  C814     1.0000 0.50121  0.24680  0.85827  Biso   1.000  C
  C815     1.0000 0.30399  0.95471  0.74526  Biso   1.000  C
  C816     1.0000 0.20272  0.19730  0.03546  Biso   1.000  C
  C817     1.0000 0.99679  0.21417  0.83015  Biso   1.000  C
  C818     1.0000 0.79091  0.95793  0.27443  Biso   1.000  C
  C819     1.0000 0.26011  0.76190  0.01202  Biso   1.000  C
  C820     1.0000 0.49220  0.19185  0.78433  Biso   1.000  C
  C821     1.0000 0.32572  0.95291  0.28398  Biso   1.000  C
  C822     1.0000 0.75071  0.75083  0.58118  Biso   1.000  C
  C823     1.0000 0.51820  0.68535  0.79523  Biso   1.000  C
  C824     1.0000 0.73721  0.43312  0.27689  Biso   1.000  C
  C825     1.0000 0.26802  0.26276  0.04017  Biso   1.000  C
  C826     1.0000 0.04391  0.68674  0.78304  Biso   1.000  C
  C827     1.0000 0.26833  0.46342  0.33568  Biso   1.000  C
  C828     1.0000 0.77547  0.26109  0.54886  Biso   1.000  C
  C829     1.0000 0.00880  0.72613  0.26023  Biso   1.000  C
  C830     1.0000 0.24309  0.99151  0.81134  Biso   1.000  C
  C831     1.0000 0.79971  0.21214  0.05526  Biso   1.000  C
  C832     1.0000 0.54875  0.75779  0.30268  Biso   1.000  C
  C833     1.0000 0.74414  0.95780  0.77363  Biso   1.000  C
  C834     1.0000 0.28205  0.19984  0.51486  Biso   1.000  C
  C835     1.0000 0.50827  0.25538  0.28849  Biso   1.000  C
  C836     1.0000 0.29617  0.46854  0.80538  Biso   1.000  C
  C837     1.0000 0.75991  0.68619  0.06369  Biso   1.000  C
  C838     1.0000 0.99323  0.22316  0.32806  Biso   1.000  C
  C839     1.0000 0.76518  0.48651  0.74656  Biso   1.000  C
  C840     1.0000 0.21945  0.72695  0.54283  Biso   1.000  C
  C841     1.0000 0.20942  0.96108  0.78320  Biso   1.000  C
  C842     1.0000 0.76866  0.18166  0.02258  Biso   1.000  C
  C843     1.0000 0.04989  0.75411  0.28241  Biso   1.000  C
  C844     1.0000 0.70842  0.97725  0.80759  Biso   1.000  C
  C845     1.0000 0.30660  0.22323  0.55542  Biso   1.000  C
  C846     1.0000 0.50690  0.73350  0.32143  Biso   1.000  C
  C847     1.0000 0.26276  0.44472  0.84000  Biso   1.000  C
  C848     1.0000 0.74273  0.70670  0.01857  Biso   1.000  C
  C849     1.0000 0.54549  0.22804  0.26034  Biso   1.000  C
  C850     1.0000 0.79715  0.46271  0.78097  Biso   1.000  C
  C851     1.0000 0.25010  0.69639  0.57319  Biso   1.000  C
  C852     1.0000 0.03210  0.25118  0.30429  Biso   1.000  C
  C853     1.0000 0.82160  0.99261  0.30332  Biso   1.000  C
  C854     1.0000 0.24254  0.74527  0.05874  Biso   1.000  C
  C855     1.0000 0.02307  0.18072  0.79818  Biso   1.000  C
  C856     1.0000 0.29821  0.99338  0.30264  Biso   1.000  C
  C857     1.0000 0.72561  0.72151  0.54392  Biso   1.000  C
  C858     1.0000 0.53407  0.21319  0.76197  Biso   1.000  C
  C859     1.0000 0.76897  0.46452  0.24951  Biso   1.000  C
  C860     1.0000 0.29494  0.23570  0.07517  Biso   1.000  C
  C861     1.0000 0.49394  0.71828  0.82814  Biso   1.000  C
  C862     1.0000 0.23416  0.49429  0.30823  Biso   1.000  C
  C863     1.0000 0.80628  0.22329  0.53074  Biso   1.000  C
  C864     1.0000 0.01195  0.71736  0.75572  Biso   1.000  C
  C865     1.0000 0.72057  0.46525  0.78902  Biso   1.000  C
  C866     1.0000 0.78770  0.70472  0.54026  Biso   1.000  C
  C867     1.0000 0.48650  0.75786  0.78068  Biso   1.000  C
  C868     1.0000 0.25226  0.44571  0.76289  Biso   1.000  C
  C869     1.0000 0.27736  0.69476  0.04800  Biso   1.000  C
  C870     1.0000 0.01664  0.72638  0.82944  Biso   1.000  C
  C871     1.0000 0.78257  0.95210  0.81880  Biso   1.000  C
  C872     1.0000 0.73312  0.21155  0.52878  Biso   1.000  C
  C873     1.0000 0.99601  0.22556  0.75372  Biso   1.000  C
  C874     1.0000 0.25500  0.98735  0.73968  Biso   1.000  C
  C875     1.0000 0.25759  0.18710  0.06134  Biso   1.000  C
  C876     1.0000 0.53502  0.25598  0.80856  Biso   1.000  C
  C877     1.0000 0.30922  0.49897  0.29315  Biso   1.000  C
  C878     1.0000 0.26885  0.27002  0.55219  Biso   1.000  C
  C879     1.0000 0.53877  0.18041  0.30206  Biso   1.000  C
  C880     1.0000 0.77911  0.46545  0.31939  Biso   1.000  C
  C881     1.0000 0.75585  0.25310  0.05710  Biso   1.000  C
  C882     1.0000 0.03365  0.18108  0.28856  Biso   1.000  C
  C883     1.0000 0.28058  0.98890  0.23572  Biso   1.000  C
  C884     1.0000 0.26184  0.77178  0.56883  Biso   1.000  C
  C885     1.0000 0.03783  0.71640  0.33308  Biso   1.000  C
  C886     1.0000 0.74798  0.99691  0.31801  Biso   1.000  C
  C887     1.0000 0.77767  0.75432  0.03079  Biso   1.000  C
  C888     1.0000 0.53976  0.72267  0.25077  Biso   1.000  C
  C889     1.0000 0.77636  0.95997  0.34332  Biso   1.000  C
  C890     1.0000 0.31010  0.72662  0.01801  Biso   1.000  C
  C891     1.0000 0.02495  0.25353  0.78748  Biso   1.000  C
  C892     1.0000 0.25788  0.94916  0.26283  Biso   1.000  C
  C893     1.0000 0.77391  0.68459  0.58639  Biso   1.000  C
  C894     1.0000 0.50114  0.22568  0.83603  Biso   1.000  C
  C895     1.0000 0.81298  0.43680  0.29101  Biso   1.000  C
  C896     1.0000 0.22407  0.21891  0.03834  Biso   1.000  C
  C897     1.0000 0.53051  0.73728  0.76137  Biso   1.000  C
  C898     1.0000 0.28036  0.46552  0.26428  Biso   1.000  C
  C899     1.0000 0.76208  0.18576  0.56390  Biso   1.000  C
  C900     1.0000 0.04042  0.76066  0.79819  Biso   1.000  C
  C901     1.0000 0.28367  0.95425  0.76709  Biso   1.000  C
  C902     1.0000 0.72437  0.22787  0.02301  Biso   1.000  C
  C903     1.0000 0.02069  0.67999  0.29832  Biso   1.000  C
  C904     1.0000 0.75811  0.98899  0.84580  Biso   1.000  C
  C905     1.0000 0.23730  0.24148  0.51923  Biso   1.000  C
  C906     1.0000 0.51367  0.69034  0.28277  Biso   1.000  C
  C907     1.0000 0.22300  0.47701  0.79455  Biso   1.000  C
  C908     1.0000 0.81294  0.72280  0.05659  Biso   1.000  C
  C909     1.0000 0.50765  0.21272  0.33087  Biso   1.000  C
  C910     1.0000 0.75436  0.48870  0.82234  Biso   1.000  C
  C911     1.0000 0.29441  0.73674  0.54736  Biso   1.000  C
  C912     1.0000 0.99757  0.20718  0.26066  Biso   1.000  C
  C913     1.0000 0.77089  0.47543  0.77344  Biso   1.000  C
  C914     1.0000 0.74731  0.72544  0.56447  Biso   1.000  C
  C915     1.0000 0.50798  0.71344  0.80205  Biso   1.000  C
  C916     1.0000 0.26863  0.45791  0.81263  Biso   1.000  C
  C917     1.0000 0.26249  0.74306  0.03531  Biso   1.000  C
  C918     1.0000 0.03087  0.71237  0.77874  Biso   1.000  C
  C919     1.0000 0.73643  0.96895  0.80093  Biso   1.000  C
  C920     1.0000 0.78055  0.23163  0.54204  Biso   1.000  C
  C921     1.0000 0.01014  0.20735  0.80321  Biso   1.000  C
  C922     1.0000 0.23686  0.97326  0.78763  Biso   1.000  C
  C923     1.0000 0.27058  0.23891  0.05716  Biso   1.000  C
  C924     1.0000 0.51492  0.21239  0.78481  Biso   1.000  C
  C925     1.0000 0.26009  0.48023  0.31166  Biso   1.000  C
  C926     1.0000 0.28382  0.22244  0.53500  Biso   1.000  C
  C927     1.0000 0.52510  0.23075  0.28463  Biso   1.000  C
  C928     1.0000 0.76346  0.44653  0.27300  Biso   1.000  C
  C929     1.0000 0.77378  0.20827  0.03801  Biso   1.000  C
  C930     1.0000 0.01330  0.22696  0.30605  Biso   1.000  C
  C931     1.0000 0.30183  0.97184  0.28223  Biso   1.000  C
  C932     1.0000 0.24517  0.72208  0.55845  Biso   1.000  C
  C933     1.0000 0.03123  0.73020  0.28219  Biso   1.000  C
  C934     1.0000 0.79668  0.97600  0.29804  Biso   1.000  C
  C935     1.0000 0.76257  0.70570  0.04142  Biso   1.000  C
  C936     1.0000 0.52869  0.73609  0.30177  Biso   1.000  C
  C937     1.0000 0.75028  0.23011  0.03934  Biso   1.000  C
  C938     1.0000 0.03028  0.70810  0.30553  Biso   1.000  C
  C939     1.0000 0.25806  0.97149  0.76441  Biso   1.000  C
  C940     1.0000 0.26330  0.24606  0.53493  Biso   1.000  C
  C941     1.0000 0.52843  0.71567  0.27701  Biso   1.000  C
  C942     1.0000 0.75850  0.96876  0.82371  Biso   1.000  C
  C943     1.0000 0.78612  0.72787  0.04170  Biso   1.000  C
  C944     1.0000 0.52323  0.20607  0.30594  Biso   1.000  C
  C945     1.0000 0.24766  0.45975  0.78903  Biso   1.000  C
  C946     1.0000 0.26795  0.74403  0.55910  Biso   1.000  C
  C947     1.0000 0.01366  0.20359  0.28482  Biso   1.000  C
  C948     1.0000 0.74765  0.47787  0.79537  Biso   1.000  C
  C949     1.0000 0.28430  0.72156  0.03418  Biso   1.000  C
  C950     1.0000 0.01017  0.22815  0.78056  Biso   1.000  C
  C951     1.0000 0.77201  0.97800  0.32072  Biso   1.000  C
  C952     1.0000 0.76923  0.70371  0.56434  Biso   1.000  C
  C953     1.0000 0.51853  0.23025  0.81142  Biso   1.000  C
  C954     1.0000 0.27998  0.96874  0.25842  Biso   1.000  C
  C955     1.0000 0.24986  0.21462  0.05269  Biso   1.000  C
  C956     1.0000 0.50900  0.73753  0.78219  Biso   1.000  C
  C957     1.0000 0.78517  0.44816  0.29580  Biso   1.000  C
  C958     1.0000 0.75754  0.20961  0.54664  Biso   1.000  C
  C959     1.0000 0.02936  0.73297  0.80311  Biso   1.000  C
  C960     1.0000 0.28390  0.48283  0.28907  Biso   1.000  C
  Cu1      1.0000 0.01395  0.47161  0.70057  Biso   1.000  Cu
  Cu2      1.0000 0.67119  0.96716  0.55848  Biso   1.000  Cu
  Cu3      1.0000 0.52019  0.63051  0.03748  Biso   1.000  Cu
  Cu4      1.0000 0.51043  0.47241  0.89095  Biso   1.000  Cu
  Cu5      1.0000 0.16719  0.97585  0.03034  Biso   1.000  Cu
  Cu6      1.0000 0.00967  0.62453  0.54071  Biso   1.000  Cu
  Cu7      1.0000 0.50234  0.97579  0.69546  Biso   1.000  Cu
  Cu8      1.0000 0.86201  0.46860  0.53710  Biso   1.000  Cu
  Cu9      1.0000 0.01231  0.12391  0.04210  Biso   1.000  Cu
  Cu10     1.0000 0.00596  0.97191  0.88817  Biso   1.000  Cu
  Cu11     1.0000 0.36112  0.47751  0.04758  Biso   1.000  Cu
  Cu12     1.0000 0.51786  0.12694  0.54203  Biso   1.000  Cu
  Cu13     1.0000 0.02356  0.46533  0.39375  Biso   1.000  Cu
  Cu14     1.0000 0.35777  0.97852  0.52802  Biso   1.000  Cu
  Cu15     1.0000 0.51273  0.32285  0.04987  Biso   1.000  Cu
  Cu16     1.0000 0.52216  0.47622  0.20023  Biso   1.000  Cu
  Cu17     1.0000 0.86265  0.97018  0.05629  Biso   1.000  Cu
  Cu18     1.0000 0.02058  0.32026  0.54411  Biso   1.000  Cu
  Cu19     1.0000 0.53137  0.97261  0.39360  Biso   1.000  Cu
  Cu20     1.0000 0.17016  0.47831  0.54898  Biso   1.000  Cu
  Cu21     1.0000 0.01964  0.82133  0.04109  Biso   1.000  Cu
  Cu22     1.0000 0.03396  0.96566  0.19430  Biso   1.000  Cu
  Cu23     1.0000 0.67276  0.46927  0.03776  Biso   1.000  Cu
  Cu24     1.0000 0.51123  0.82073  0.54070  Biso   1.000  Cu
  Cu25     1.0000 0.22263  0.97774  0.02255  Biso   1.000  Cu
  Cu26     1.0000 0.01094  0.17859  0.04598  Biso   1.000  Cu
  Cu27     1.0000 0.03986  0.96555  0.24882  Biso   1.000  Cu
  Cu28     1.0000 0.72466  0.96670  0.56285  Biso   1.000  Cu
  Cu29     1.0000 0.52099  0.17889  0.54390  Biso   1.000  Cu
  Cu30     1.0000 0.53526  0.97083  0.33897  Biso   1.000  Cu
  Cu31     1.0000 0.30739  0.48023  0.04953  Biso   1.000  Cu
  Cu32     1.0000 0.52387  0.68476  0.03487  Biso   1.000  Cu
  Cu33     1.0000 0.52491  0.48019  0.25388  Biso   1.000  Cu
  Cu34     1.0000 0.80766  0.46559  0.53469  Biso   1.000  Cu
  Cu35     1.0000 0.00986  0.67981  0.54381  Biso   1.000  Cu
  Cu36     1.0000 0.02511  0.46792  0.33967  Biso   1.000  Cu
  Cu37     1.0000 0.80695  0.96674  0.05991  Biso   1.000  Cu
  Cu38     1.0000 0.02010  0.76445  0.03748  Biso   1.000  Cu
  Cu39     1.0000 0.99862  0.97220  0.83260  Biso   1.000  Cu
  Cu40     1.0000 0.30450  0.97893  0.52154  Biso   1.000  Cu
  Cu41     1.0000 0.50930  0.76473  0.54361  Biso   1.000  Cu
  Cu42     1.0000 0.49599  0.97773  0.74854  Biso   1.000  Cu
  Cu43     1.0000 0.72728  0.46818  0.03549  Biso   1.000  Cu
  Cu44     1.0000 0.51037  0.27044  0.04962  Biso   1.000  Cu
  Cu45     1.0000 0.50979  0.46967  0.83702  Biso   1.000  Cu
  Cu46     1.0000 0.22593  0.48231  0.55237  Biso   1.000  Cu
  Cu47     1.0000 0.02020  0.26667  0.54468  Biso   1.000  Cu
  Cu48     1.0000 0.00782  0.47222  0.75307  Biso   1.000  Cu
  H1       1.0000 0.24079  0.78026  0.57658  Biso   1.000  H
  H2       1.0000 0.55029  0.25919  0.79134  Biso   1.000  H
  H3       1.0000 0.75844  0.47666  0.32044  Biso   1.000  H
  H4       1.0000 0.75572  0.76028  0.02051  Biso   1.000  H
  H5       1.0000 0.98381  0.20533  0.75070  Biso   1.000  H
  H6       1.0000 0.31097  0.51161  0.31233  Biso   1.000  H
  H7       1.0000 0.29008  0.27566  0.56257  Biso   1.000  H
  H8       1.0000 0.00868  0.70448  0.83359  Biso   1.000  H
  H9       1.0000 0.74728  0.01112  0.29994  Biso   1.000  H
  H10      1.0000 0.77596  0.25897  0.06866  Biso   1.000  H
  H11      1.0000 0.47143  0.75883  0.79896  Biso   1.000  H
  H12      1.0000 0.29797  0.00565  0.23394  Biso   1.000  H
  H13      1.0000 0.73243  0.22799  0.51266  Biso   1.000  H
  H14      1.0000 0.55095  0.74152  0.24557  Biso   1.000  H
  H15      1.0000 0.27122  0.43250  0.76143  Biso   1.000  H
  H16      1.0000 0.28111  0.18215  0.07166  Biso   1.000  H
  H17      1.0000 0.04678  0.73847  0.34082  Biso   1.000  H
  H18      1.0000 0.71421  0.45390  0.77015  Biso   1.000  H
  H19      1.0000 0.78415  0.71887  0.52168  Biso   1.000  H
  H20      1.0000 0.04695  0.17863  0.30771  Biso   1.000  H
  H21      1.0000 0.23674  0.00247  0.73861  Biso   1.000  H
  H22      1.0000 0.25657  0.68691  0.05649  Biso   1.000  H
  H23      1.0000 0.55369  0.17577  0.28351  Biso   1.000  H
  H24      1.0000 0.78372  0.93441  0.80166  Biso   1.000  H
  H25      1.0000 0.26362  0.00509  0.81536  Biso   1.000  H
  H26      1.0000 0.80411  0.23077  0.06887  Biso   1.000  H
  H27      1.0000 0.99442  0.70723  0.26015  Biso   1.000  H
  H28      1.0000 0.76529  0.95035  0.76669  Biso   1.000  H
  H29      1.0000 0.26581  0.20118  0.49730  Biso   1.000  H
  H30      1.0000 0.56527  0.76209  0.28616  Biso   1.000  H
  H31      1.0000 0.30227  0.47518  0.78354  Biso   1.000  H
  H32      1.0000 0.77474  0.68985  0.08282  Biso   1.000  H
  H33      1.0000 0.49163  0.25450  0.30565  Biso   1.000  H
  H34      1.0000 0.74381  0.49360  0.73989  Biso   1.000  H
  H35      1.0000 0.21609  0.74814  0.53017  Biso   1.000  H
  H36      1.0000 0.97700  0.20669  0.32371  Biso   1.000  H
  H37      1.0000 0.77338  0.94264  0.27343  Biso   1.000  H
  H38      1.0000 0.27366  0.76269  0.99396  Biso   1.000  H
  H39      1.0000 0.98285  0.23331  0.83340  Biso   1.000  H
  H40      1.0000 0.32714  0.93601  0.26749  Biso   1.000  H
  H41      1.0000 0.77022  0.75242  0.59409  Biso   1.000  H
  H42      1.0000 0.47693  0.18945  0.80247  Biso   1.000  H
  H43      1.0000 0.73078  0.42132  0.29646  Biso   1.000  H
  H44      1.0000 0.25009  0.26732  0.02480  Biso   1.000  H
  H45      1.0000 0.52765  0.68388  0.77411  Biso   1.000  H
  H46      1.0000 0.28941  0.45302  0.33724  Biso   1.000  H
  H47      1.0000 0.75548  0.26543  0.55902  Biso   1.000  H
  H48      1.0000 0.06000  0.68493  0.80035  Biso   1.000  H
  H49      1.0000 0.23112  0.50705  0.28789  Biso   1.000  H
  H50      1.0000 0.30776  0.24045  0.57206  Biso   1.000  H
  H51      1.0000 0.55758  0.20973  0.25530  Biso   1.000  H
  H52      1.0000 0.79064  0.47445  0.24789  Biso   1.000  H
  H53      1.0000 0.74821  0.17654  0.01056  Biso   1.000  H
  H54      1.0000 0.04897  0.25328  0.28670  Biso   1.000  H
  H55      1.0000 0.27969  0.00812  0.30089  Biso   1.000  H
  H56      1.0000 0.26825  0.69344  0.58891  Biso   1.000  H
  H57      1.0000 0.06433  0.75874  0.30029  Biso   1.000  H
  H58      1.0000 0.82172  0.00525  0.32331  Biso   1.000  H
  H59      1.0000 0.74558  0.72340  0.00278  Biso   1.000  H
  H60      1.0000 0.48790  0.72053  0.31701  Biso   1.000  H
  H61      1.0000 0.79987  0.45318  0.80241  Biso   1.000  H
  H62      1.0000 0.72605  0.70218  0.52917  Biso   1.000  H
  H63      1.0000 0.48517  0.73993  0.83299  Biso   1.000  H
  H64      1.0000 0.24207  0.43251  0.84423  Biso   1.000  H
  H65      1.0000 0.24568  0.73446  0.07925  Biso   1.000  H
  H66      1.0000 0.00391  0.73894  0.75196  Biso   1.000  H
  H67      1.0000 0.70567  0.98431  0.82985  Biso   1.000  H
  H68      1.0000 0.81009  0.20073  0.52458  Biso   1.000  H
  H69      1.0000 0.03420  0.17686  0.77696  Biso   1.000  H
  H70      1.0000 0.20261  0.95011  0.76353  Biso   1.000  H
  H71      1.0000 0.29745  0.21928  0.09237  Biso   1.000  H
  H72      1.0000 0.55182  0.22950  0.75882  Biso   1.000  H
  H73      1.0000 0.77595  0.49830  0.82506  Biso   1.000  H
  H74      1.0000 0.76064  0.68493  0.60495  Biso   1.000  H
  H75      1.0000 0.54883  0.72327  0.76334  Biso   1.000  H
  H76      1.0000 0.21804  0.48957  0.81383  Biso   1.000  H
  H77      1.0000 0.31814  0.74751  0.00903  Biso   1.000  H
  H78      1.0000 0.04931  0.76505  0.77631  Biso   1.000  H
  H79      1.0000 0.73922  0.00327  0.84779  Biso   1.000  H
  H80      1.0000 0.78222  0.18256  0.57539  Biso   1.000  H
  H81      1.0000 0.03472  0.25568  0.80922  Biso   1.000  H
  H82      1.0000 0.28640  0.94169  0.78692  Biso   1.000  H
  H83      1.0000 0.21639  0.24061  0.03365  Biso   1.000  H
  H84      1.0000 0.48800  0.20517  0.83965  Biso   1.000  H
  H85      1.0000 0.26051  0.45322  0.26210  Biso   1.000  H
  H86      1.0000 0.23261  0.22413  0.50269  Biso   1.000  H
  H87      1.0000 0.49923  0.23388  0.33641  Biso   1.000  H
  H88      1.0000 0.81490  0.42252  0.27196  Biso   1.000  H
  H89      1.0000 0.72128  0.20836  0.00981  Biso   1.000  H
  H90      1.0000 0.98469  0.22574  0.25932  Biso   1.000  H
  H91      1.0000 0.25745  0.93342  0.28098  Biso   1.000  H
  H92      1.0000 0.29929  0.71530  0.53787  Biso   1.000  H
  H93      1.0000 0.01852  0.67025  0.27655  Biso   1.000  H
  H94      1.0000 0.79406  0.94528  0.33994  Biso   1.000  H
  H95      1.0000 0.82080  0.70080  0.06504  Biso   1.000  H
  H96      1.0000 0.51155  0.68110  0.30478  Biso   1.000  H
  H97      1.0000 0.87536  0.96932  0.96506  Biso   1.000  H
  H98      1.0000 0.92979  0.84129  0.04887  Biso   1.000  H
  H99      1.0000 0.01069  0.88276  0.90669  Biso   1.000  H
  H100     1.0000 0.36784  0.96682  0.61720  Biso   1.000  H
  H101     1.0000 0.41995  0.84139  0.53109  Biso   1.000  H
  H102     1.0000 0.49710  0.88639  0.67728  Biso   1.000  H
  H103     1.0000 0.64448  0.48060  0.94365  Biso   1.000  H
  H104     1.0000 0.60916  0.34363  0.04368  Biso   1.000  H
  H105     1.0000 0.50244  0.38440  0.91330  Biso   1.000  H
  H106     1.0000 0.14373  0.48219  0.64336  Biso   1.000  H
  H107     1.0000 0.11303  0.34046  0.53994  Biso   1.000  H
  H108     1.0000 0.01785  0.38203  0.68142  Biso   1.000  H
  H109     1.0000 0.15866  0.96361  0.12136  Biso   1.000  H
  H110     1.0000 0.10440  0.10265  0.04437  Biso   1.000  H
  H111     1.0000 0.02810  0.05820  0.17560  Biso   1.000  H
  H112     1.0000 0.65948  0.97233  0.46307  Biso   1.000  H
  H113     1.0000 0.60693  0.10171  0.55120  Biso   1.000  H
  H114     1.0000 0.51723  0.06503  0.41509  Biso   1.000  H
  H115     1.0000 0.38605  0.48394  0.13964  Biso   1.000  H
  H116     1.0000 0.42832  0.61335  0.04329  Biso   1.000  H
  H117     1.0000 0.52055  0.56451  0.17376  Biso   1.000  H
  H118     1.0000 0.88821  0.47943  0.44632  Biso   1.000  H
  H119     1.0000 0.91762  0.60009  0.54585  Biso   1.000  H
  H120     1.0000 0.01135  0.56171  0.41308  Biso   1.000  H
  H121     1.0000 0.09237  0.98931  0.89730  Biso   1.000  H
  H122     1.0000 0.87707  0.06033  0.05420  Biso   1.000  H
  H123     1.0000 0.02127  0.83410  0.13012  Biso   1.000  H
  H124     1.0000 0.59525  0.96783  0.68514  Biso   1.000  H
  H125     1.0000 0.37690  0.06645  0.54444  Biso   1.000  H
  H126     1.0000 0.50929  0.83293  0.45408  Biso   1.000  H
  H127     1.0000 0.42143  0.45778  0.91368  Biso   1.000  H
  H128     1.0000 0.65434  0.56017  0.03661  Biso   1.000  H
  H129     1.0000 0.51477  0.34469  0.14375  Biso   1.000  H
  H130     1.0000 0.92019  0.46133  0.66976  Biso   1.000  H
  H131     1.0000 0.14875  0.57128  0.55257  Biso   1.000  H
  H132     1.0000 0.00926  0.33891  0.45374  Biso   1.000  H
  H133     1.0000 0.93763  0.96268  0.18417  Biso   1.000  H
  H134     1.0000 0.15238  0.88847  0.02459  Biso   1.000  H
  H135     1.0000 0.00425  0.10841  0.95347  Biso   1.000  H
  H136     1.0000 0.43790  0.96169  0.40687  Biso   1.000  H
  H137     1.0000 0.64849  0.87791  0.55252  Biso   1.000  H
  H138     1.0000 0.51183  0.10605  0.63319  Biso   1.000  H
  H139     1.0000 0.61337  0.47892  0.17622  Biso   1.000  H
  H140     1.0000 0.38081  0.38299  0.05136  Biso   1.000  H
  H141     1.0000 0.51686  0.60647  0.94729  Biso   1.000  H
  H142     1.0000 0.11133  0.46662  0.41363  Biso   1.000  H
  H143     1.0000 0.88686  0.38077  0.52446  Biso   1.000  H
  H144     1.0000 0.01645  0.60333  0.63304  Biso   1.000  H
  H145     1.0000 0.60245  0.48318  0.90780  Biso   1.000  H
  H146     1.0000 0.87646  0.56084  0.53921  Biso   1.000  H
  H147     1.0000 0.50784  0.84120  0.63439  Biso   1.000  H
  H148     1.0000 0.10060  0.46940  0.68655  Biso   1.000  H
  H149     1.0000 0.38963  0.57532  0.04896  Biso   1.000  H
  H150     1.0000 0.00928  0.84182  0.94791  Biso   1.000  H
  H151     1.0000 0.91729  0.97135  0.91469  Biso   1.000  H
  H152     1.0000 0.65162  0.06055  0.55210  Biso   1.000  H
  H153     1.0000 0.03066  0.34138  0.63679  Biso   1.000  H
  H154     1.0000 0.41054  0.97316  0.66300  Biso   1.000  H
  H155     1.0000 0.14627  0.06575  0.03563  Biso   1.000  H
  H156     1.0000 0.51028  0.34407  0.95864  Biso   1.000  H
  H157     1.0000 0.42777  0.48521  0.18221  Biso   1.000  H
  H158     1.0000 0.15177  0.38744  0.53830  Biso   1.000  H
  H159     1.0000 0.50254  0.10727  0.45256  Biso   1.000  H
  H160     1.0000 0.92998  0.47613  0.40538  Biso   1.000  H
  H161     1.0000 0.64821  0.37759  0.02893  Biso   1.000  H
  H162     1.0000 0.01393  0.09965  0.13425  Biso   1.000  H
  H163     1.0000 0.12467  0.96377  0.16571  Biso   1.000  H
  H164     1.0000 0.37812  0.88567  0.52902  Biso   1.000  H
  H165     1.0000 0.00835  0.60296  0.45360  Biso   1.000  H
  H166     1.0000 0.62115  0.97039  0.41844  Biso   1.000  H
  H167     1.0000 0.88317  0.88128  0.05279  Biso   1.000  H
  H168     1.0000 0.52207  0.61027  0.12835  Biso   1.000  H
  H169     1.0000 0.00937  0.06436  0.91445  Biso   1.000  H
  H170     1.0000 0.88861  0.96080  0.14524  Biso   1.000  H
  H171     1.0000 0.11009  0.83905  0.03364  Biso   1.000  H
  H172     1.0000 0.50086  0.06651  0.67293  Biso   1.000  H
  H173     1.0000 0.38823  0.98529  0.44181  Biso   1.000  H
  H174     1.0000 0.60372  0.83564  0.53832  Biso   1.000  H
  H175     1.0000 0.51058  0.56608  0.90613  Biso   1.000  H
  H176     1.0000 0.65825  0.48054  0.12662  Biso   1.000  H
  H177     1.0000 0.41934  0.34237  0.05901  Biso   1.000  H
  H178     1.0000 0.01782  0.56207  0.67723  Biso   1.000  H
  H179     1.0000 0.15459  0.47272  0.45636  Biso   1.000  H
  H180     1.0000 0.93171  0.33764  0.53426  Biso   1.000  H
  H181     1.0000 0.02058  0.87531  0.17528  Biso   1.000  H
  H182     1.0000 0.13446  0.98361  0.93670  Biso   1.000  H
  H183     1.0000 0.92106  0.10297  0.04975  Biso   1.000  H
  H184     1.0000 0.53121  0.87682  0.41583  Biso   1.000  H
  H185     1.0000 0.64336  0.96398  0.64645  Biso   1.000  H
  H186     1.0000 0.42325  0.10833  0.54683  Biso   1.000  H
  H187     1.0000 0.52559  0.38438  0.18601  Biso   1.000  H
  H188     1.0000 0.38287  0.47140  0.95432  Biso   1.000  H
  H189     1.0000 0.60714  0.60363  0.03098  Biso   1.000  H
  H190     1.0000 0.01427  0.37606  0.40951  Biso   1.000  H
  H191     1.0000 0.87869  0.45641  0.62900  Biso   1.000  H
  H192     1.0000 0.10515  0.60523  0.54492  Biso   1.000  H
  H193     1.0000 0.28102  0.83723  0.53603  Biso   1.000  H
  H194     1.0000 0.52653  0.24748  0.90829  Biso   1.000  H
  H195     1.0000 0.88089  0.46314  0.30870  Biso   1.000  H
  H196     1.0000 0.78899  0.82365  0.06091  Biso   1.000  H
  H197     1.0000 0.02188  0.24232  0.68410  Biso   1.000  H
  H198     1.0000 0.37716  0.47498  0.27698  Biso   1.000  H
  H199     1.0000 0.25050  0.33948  0.54252  Biso   1.000  H
  H200     1.0000 0.03295  0.74892  0.89789  Biso   1.000  H
  H201     1.0000 0.68293  0.97491  0.32894  Biso   1.000  H
  H202     1.0000 0.74596  0.32506  0.04144  Biso   1.000  H
  H203     1.0000 0.52231  0.74777  0.68678  Biso   1.000  H
  H204     1.0000 0.18714  0.96881  0.25745  Biso   1.000  H
  H205     1.0000 0.75104  0.11651  0.55188  Biso   1.000  H
  H206     1.0000 0.51295  0.70879  0.17535  Biso   1.000  H
  H207     1.0000 0.15680  0.45757  0.78066  Biso   1.000  H
  H208     1.0000 0.24034  0.12226  0.02853  Biso   1.000  H
  H209     1.0000 0.01143  0.70008  0.39926  Biso   1.000  H
  H210     1.0000 0.65115  0.49117  0.80864  Biso   1.000  H
  H211     1.0000 0.78119  0.61209  0.56162  Biso   1.000  H
  H212     1.0000 0.00132  0.19423  0.18717  Biso   1.000  H
  H213     1.0000 0.35117  0.97827  0.75553  Biso   1.000  H
  H214     1.0000 0.29005  0.61920  0.02829  Biso   1.000  H
  H215     1.0000 0.52051  0.20146  0.39889  Biso   1.000  H
  H216     1.0000 0.85323  0.97719  0.82398  Biso   1.000  H
  H217     1.0000 0.25288  0.48099  0.40771  Biso   1.000  H
  H218     1.0000 0.37763  0.20780  0.53511  Biso   1.000  H
  H219     1.0000 0.53680  0.33316  0.27973  Biso   1.000  H
  H220     1.0000 0.75469  0.44989  0.17587  Biso   1.000  H
  H221     1.0000 0.86502  0.19436  0.02766  Biso   1.000  H
  H222     1.0000 0.01094  0.31994  0.31409  Biso   1.000  H
  H223     1.0000 0.30100  0.98543  0.37719  Biso   1.000  H
  H224     1.0000 0.14993  0.70760  0.55748  Biso   1.000  H
  H225     1.0000 0.01986  0.81961  0.26815  Biso   1.000  H
  H226     1.0000 0.79933  0.97514  0.20679  Biso   1.000  H
  H227     1.0000 0.66734  0.69958  0.03798  Biso   1.000  H
  H228     1.0000 0.53578  0.82738  0.31743  Biso   1.000  H
  H229     1.0000 0.78332  0.45607  0.68012  Biso   1.000  H
  H230     1.0000 0.65247  0.73924  0.55535  Biso   1.000  H
  H231     1.0000 0.48849  0.61319  0.81239  Biso   1.000  H
  H232     1.0000 0.28295  0.47037  0.90943  Biso   1.000  H
  H233     1.0000 0.16812  0.74658  0.04310  Biso   1.000  H
  H234     1.0000 0.01570  0.61664  0.77351  Biso   1.000  H
  H235     1.0000 0.73077  0.98435  0.71217  Biso   1.000  H
  H236     1.0000 0.87477  0.23973  0.54502  Biso   1.000  H
  H237     1.0000 0.99112  0.11505  0.81674  Biso   1.000  H
  H238     1.0000 0.23206  0.98600  0.88323  Biso   1.000  H
  H239     1.0000 0.36684  0.24733  0.05616  Biso   1.000  H
  H240     1.0000 0.50005  0.12171  0.76924  Biso   1.000  H
  H241     1.0000 0.74215  0.47735  0.88911  Biso   1.000  H
  H242     1.0000 0.86759  0.69790  0.55279  Biso   1.000  H
  H243     1.0000 0.49422  0.82996  0.77169  Biso   1.000  H
  H244     1.0000 0.24293  0.47211  0.69154  Biso   1.000  H
  H245     1.0000 0.37734  0.71176  0.03544  Biso   1.000  H
  H246     1.0000 0.01377  0.82609  0.80915  Biso   1.000  H
  H247     1.0000 0.77508  0.96997  0.91703  Biso   1.000  H
  H248     1.0000 0.66225  0.19433  0.54125  Biso   1.000  H
  H249     1.0000 0.99770  0.32315  0.77440  Biso   1.000  H
  H250     1.0000 0.27023  0.96696  0.66459  Biso   1.000  H
  H251     1.0000 0.15630  0.19846  0.05922  Biso   1.000  H
  H252     1.0000 0.51758  0.32866  0.81824  Biso   1.000  H
  H253     1.0000 0.28858  0.49084  0.19356  Biso   1.000  H
  H254     1.0000 0.16650  0.24721  0.54603  Biso   1.000  H
  H255     1.0000 0.51505  0.11090  0.31372  Biso   1.000  H
  H256     1.0000 0.79548  0.45407  0.39053  Biso   1.000  H
  H257     1.0000 0.65325  0.24268  0.05901  Biso   1.000  H
  H258     1.0000 0.03449  0.10923  0.27380  Biso   1.000  H
  H259     1.0000 0.26266  0.96340  0.16298  Biso   1.000  H
  H260     1.0000 0.36391  0.75505  0.57458  Biso   1.000  H
  H261     1.0000 0.04156  0.61230  0.31928  Biso   1.000  H
  H262     1.0000 0.75890  0.97427  0.42040  Biso   1.000  H
  H263     1.0000 0.87759  0.74492  0.03086  Biso   1.000  H
  H264     1.0000 0.53261  0.62464  0.26875  Biso   1.000  H
  H265     1.0000 0.01976  0.20166  0.90019  Biso   1.000  H
  H266     1.0000 0.89595  0.97327  0.28639  Biso   1.000  H
  H267     1.0000 0.24861  0.83691  0.03452  Biso   1.000  H
  H268     1.0000 0.52288  0.20382  0.68734  Biso   1.000  H
  H269     1.0000 0.39767  0.96242  0.30417  Biso   1.000  H
  H270     1.0000 0.74190  0.82143  0.56384  Biso   1.000  H
  H271     1.0000 0.51239  0.70018  0.89387  Biso   1.000  H
  H272     1.0000 0.67287  0.46026  0.26550  Biso   1.000  H
  H273     1.0000 0.28046  0.33575  0.05768  Biso   1.000  H
  H274     1.0000 0.03327  0.69873  0.68603  Biso   1.000  H
  H275     1.0000 0.16826  0.47057  0.31804  Biso   1.000  H
  H276     1.0000 0.79203  0.32445  0.50752  Biso   1.000  H
  H277     1.0000 0.02406  0.73575  0.18360  Biso   1.000  H
  H278     1.0000 0.14220  0.98634  0.79721  Biso   1.000  H
  H279     1.0000 0.77981  0.11058  0.04915  Biso   1.000  H
  H280     1.0000 0.51604  0.74109  0.39760  Biso   1.000  H
  H281     1.0000 0.64218  0.95639  0.78443  Biso   1.000  H
  H282     1.0000 0.28739  0.12827  0.53416  Biso   1.000  H
  H283     1.0000 0.52264  0.24450  0.18888  Biso   1.000  H
  H284     1.0000 0.36347  0.44747  0.81944  Biso   1.000  H
  H285     1.0000 0.74885  0.61373  0.04143  Biso   1.000  H
  H286     1.0000 0.00269  0.23947  0.40396  Biso   1.000  H
  H287     1.0000 0.86617  0.47402  0.76364  Biso   1.000  H
  H288     1.0000 0.24161  0.63061  0.55254  Biso   1.000  H
  H289     1.0000 0.10132  0.19921  0.05977  Biso   1.000  H
  H290     1.0000 0.04065  0.05709  0.27012  Biso   1.000  H
  H291     1.0000 0.25432  0.96413  0.10864  Biso   1.000  H
  H292     1.0000 0.60816  0.19603  0.54261  Biso   1.000  H
  H293     1.0000 0.50950  0.05811  0.31789  Biso   1.000  H
  H294     1.0000 0.75512  0.96636  0.47328  Biso   1.000  H
  H295     1.0000 0.43300  0.70907  0.04013  Biso   1.000  H
  H296     1.0000 0.53340  0.57318  0.26622  Biso   1.000  H
  H297     1.0000 0.28893  0.48407  0.13726  Biso   1.000  H
  H298     1.0000 0.92192  0.69527  0.55502  Biso   1.000  H
  H299     1.0000 0.04727  0.55817  0.32382  Biso   1.000  H
  H300     1.0000 0.79393  0.46258  0.44615  Biso   1.000  H
  H301     1.0000 0.92751  0.74458  0.03027  Biso   1.000  H
  H302     1.0000 0.00526  0.88061  0.80968  Biso   1.000  H
  H303     1.0000 0.77915  0.96691  0.97095  Biso   1.000  H
  H304     1.0000 0.41818  0.75396  0.57268  Biso   1.000  H
  H305     1.0000 0.48598  0.88519  0.77264  Biso   1.000  H
  H306     1.0000 0.27054  0.96471  0.61393  Biso   1.000  H
  H307     1.0000 0.59782  0.24685  0.05899  Biso   1.000  H
  H308     1.0000 0.51578  0.38006  0.82006  Biso   1.000  H
  H309     1.0000 0.74239  0.46824  0.94278  Biso   1.000  H
  H310     1.0000 0.11529  0.24496  0.53616  Biso   1.000  H
  H311     1.0000 0.99527  0.37623  0.77304  Biso   1.000  H
  H312     1.0000 0.23967  0.48001  0.64012  Biso   1.000  H
  H313     1.0000 0.23354  0.98115  0.93546  Biso   1.000  H
  H314     1.0000 0.92183  0.19346  0.02699  Biso   1.000  H
  H315     1.0000 0.02948  0.87165  0.27034  Biso   1.000  H
  H316     1.0000 0.73667  0.98035  0.65736  Biso   1.000  H
  H317     1.0000 0.43021  0.20414  0.54158  Biso   1.000  H
  H318     1.0000 0.53637  0.88501  0.32329  Biso   1.000  H
  H319     1.0000 0.28824  0.48081  0.96173  Biso   1.000  H
  H320     1.0000 0.61591  0.70292  0.03090  Biso   1.000  H
  H321     1.0000 0.52309  0.38428  0.28463  Biso   1.000  H
  H322     1.0000 0.78260  0.45097  0.62483  Biso   1.000  H
  H323     1.0000 0.09630  0.70262  0.54880  Biso   1.000  H
  H324     1.0000 0.01139  0.37327  0.31306  Biso   1.000  H
  H325     1.0000 0.79326  0.97013  0.15790  Biso   1.000  H
  H326     1.0000 0.11390  0.74560  0.05088  Biso   1.000  H
  H327     1.0000 0.99011  0.06084  0.81869  Biso   1.000  H
  H328     1.0000 0.29460  0.99148  0.43143  Biso   1.000  H
  H329     1.0000 0.60143  0.74001  0.54008  Biso   1.000  H
  H330     1.0000 0.48709  0.06947  0.76962  Biso   1.000  H
  H331     1.0000 0.75166  0.45109  0.12341  Biso   1.000  H
  H332     1.0000 0.42367  0.25041  0.05900  Biso   1.000  H
  H333     1.0000 0.49564  0.55832  0.81317  Biso   1.000  H
  H334     1.0000 0.24931  0.48637  0.46258  Biso   1.000  H
  H335     1.0000 0.92472  0.24477  0.55188  Biso   1.000  H
  H336     1.0000 0.00942  0.56329  0.77118  Biso   1.000  H
  H337     1.0000 0.02685  0.20106  0.95555  Biso   1.000  H
  H338     1.0000 0.95055  0.96804  0.27892  Biso   1.000  H
  H339     1.0000 0.24391  0.88922  0.02844  Biso   1.000  H
  H340     1.0000 0.52780  0.19985  0.63158  Biso   1.000  H
  H341     1.0000 0.44825  0.95137  0.31309  Biso   1.000  H
  H342     1.0000 0.74360  0.87478  0.56761  Biso   1.000  H
  H343     1.0000 0.52028  0.70354  0.94601  Biso   1.000  H
  H344     1.0000 0.61876  0.46383  0.27073  Biso   1.000  H
  H345     1.0000 0.28451  0.38836  0.05937  Biso   1.000  H
  H346     1.0000 0.03113  0.69739  0.63351  Biso   1.000  H
  H347     1.0000 0.11777  0.45783  0.31738  Biso   1.000  H
  H348     1.0000 0.79347  0.37891  0.50270  Biso   1.000  H
  H349     1.0000 0.02194  0.73620  0.12942  Biso   1.000  H
  H350     1.0000 0.08747  0.98613  0.80137  Biso   1.000  H
  H351     1.0000 0.78084  0.06093  0.05958  Biso   1.000  H
  H352     1.0000 0.49722  0.73788  0.45071  Biso   1.000  H
  H353     1.0000 0.58756  0.95942  0.78224  Biso   1.000  H
  H354     1.0000 0.28226  0.07260  0.53926  Biso   1.000  H
  H355     1.0000 0.51215  0.24968  0.13583  Biso   1.000  H
  H356     1.0000 0.41883  0.45032  0.81830  Biso   1.000  H
  H357     1.0000 0.75191  0.56261  0.04470  Biso   1.000  H
  H358     1.0000 0.00343  0.24563  0.45997  Biso   1.000  H
  H359     1.0000 0.91824  0.47841  0.76513  Biso   1.000  H
  H360     1.0000 0.24637  0.57545  0.55011  Biso   1.000  H
  H361     1.0000 0.00304  0.69817  0.45331  Biso   1.000  H
  H362     1.0000 0.40469  0.97684  0.75804  Biso   1.000  H
  H363     1.0000 0.74396  0.37876  0.04279  Biso   1.000  H
  H364     1.0000 0.51709  0.70404  0.12228  Biso   1.000  H
  H365     1.0000 0.90861  0.97947  0.82151  Biso   1.000  H
  H366     1.0000 0.24574  0.39158  0.53284  Biso   1.000  H
  H367     1.0000 0.52029  0.20200  0.45175  Biso   1.000  H
  H368     1.0000 0.10340  0.45188  0.77881  Biso   1.000  H
  H369     1.0000 0.78722  0.87644  0.06281  Biso   1.000  H
  H370     1.0000 0.99818  0.19132  0.13528  Biso   1.000  H
  H371     1.0000 0.59624  0.49174  0.81351  Biso   1.000  H
  H372     1.0000 0.28365  0.88670  0.52180  Biso   1.000  H
  H373     1.0000 0.02911  0.24671  0.63183  Biso   1.000  H
  H374     1.0000 0.63011  0.97242  0.32291  Biso   1.000  H
  H375     1.0000 0.29146  0.56975  0.03093  Biso   1.000  H
  H376     1.0000 0.52276  0.24965  0.96042  Biso   1.000  H
  H377     1.0000 0.13283  0.97298  0.26302  Biso   1.000  H
  H378     1.0000 0.78078  0.55404  0.55693  Biso   1.000  H
  H379     1.0000 0.52053  0.74767  0.63633  Biso   1.000  H
  H380     1.0000 0.93794  0.46485  0.31032  Biso   1.000  H
  H381     1.0000 0.24143  0.06948  0.01958  Biso   1.000  H
  H382     1.0000 0.02725  0.74848  0.95055  Biso   1.000  H
  H383     1.0000 0.43065  0.47201  0.27583  Biso   1.000  H
  H384     1.0000 0.74724  0.05871  0.55640  Biso   1.000  H
  H385     1.0000 0.25165  0.44568  0.37631  Biso   1.000  H
  H386     1.0000 0.29778  0.15855  0.49797  Biso   1.000  H
  H387     1.0000 0.49579  0.29676  0.27474  Biso   1.000  H
  H388     1.0000 0.69580  0.42634  0.25945  Biso   1.000  H
  H389     1.0000 0.83988  0.19343  0.06990  Biso   1.000  H
  H390     1.0000 0.97545  0.24075  0.36813  Biso   1.000  H
  H391     1.0000 0.36030  0.93625  0.31109  Biso   1.000  H
  H392     1.0000 0.18066  0.70886  0.52720  Biso   1.000  H
  H393     1.0000 0.99179  0.73679  0.21850  Biso   1.000  H
  H394     1.0000 0.80973  0.94035  0.23544  Biso   1.000  H
  H395     1.0000 0.73883  0.65041  0.08275  Biso   1.000  H
  H396     1.0000 0.56734  0.79549  0.32544  Biso   1.000  H
  H397     1.0000 0.78546  0.49568  0.70491  Biso   1.000  H
  H398     1.0000 0.72667  0.78741  0.59616  Biso   1.000  H
  H399     1.0000 0.52599  0.64121  0.80952  Biso   1.000  H
  H400     1.0000 0.33627  0.48446  0.82083  Biso   1.000  H
  H401     1.0000 0.24032  0.79915  0.99672  Biso   1.000  H
  H402     1.0000 0.05183  0.64311  0.76574  Biso   1.000  H
  H403     1.0000 0.73121  0.94818  0.73118  Biso   1.000  H
  H404     1.0000 0.78828  0.30428  0.55170  Biso   1.000  H
  H405     1.0000 0.98539  0.19856  0.87303  Biso   1.000  H
  H406     1.0000 0.23206  0.01359  0.84708  Biso   1.000  H
  H407     1.0000 0.28685  0.30018  0.02278  Biso   1.000  H
  H408     1.0000 0.47164  0.15640  0.76026  Biso   1.000  H
  H409     1.0000 0.30139  0.45092  0.22409  Biso   1.000  H
  H410     1.0000 0.19622  0.25961  0.51063  Biso   1.000  H
  H411     1.0000 0.48748  0.19757  0.36936  Biso   1.000  H
  H412     1.0000 0.85514  0.43051  0.30798  Biso   1.000  H
  H413     1.0000 0.68106  0.23901  0.01881  Biso   1.000  H
  H414     1.0000 0.98272  0.18964  0.22202  Biso   1.000  H
  H415     1.0000 0.21680  0.93164  0.24524  Biso   1.000  H
  H416     1.0000 0.33584  0.74987  0.53485  Biso   1.000  H
  H417     1.0000 0.00910  0.63633  0.31326  Biso   1.000  H
  H418     1.0000 0.75941  0.94496  0.38396  Biso   1.000  H
  H419     1.0000 0.85205  0.74441  0.07139  Biso   1.000  H
  H420     1.0000 0.49972  0.64989  0.26791  Biso   1.000  H
  H421     1.0000 0.74090  0.50600  0.86074  Biso   1.000  H
  H422     1.0000 0.79754  0.64656  0.59951  Biso   1.000  H
  H423     1.0000 0.55147  0.76000  0.72774  Biso   1.000  H
  H424     1.0000 0.18272  0.49204  0.77669  Biso   1.000  H
  H425     1.0000 0.34824  0.70954  0.99852  Biso   1.000  H
  H426     1.0000 0.04476  0.80534  0.81312  Biso   1.000  H
  H427     1.0000 0.77701  0.00377  0.88578  Biso   1.000  H
  H428     1.0000 0.74339  0.14818  0.58276  Biso   1.000  H
  H429     1.0000 0.04133  0.29349  0.77291  Biso   1.000  H
  H430     1.0000 0.32314  0.94254  0.75136  Biso   1.000  H
  H431     1.0000 0.18119  0.20091  0.02528  Biso   1.000  H
  H432     1.0000 0.49051  0.24204  0.87760  Biso   1.000  H
  H433     1.0000 0.27059  0.99914  0.69775  Biso   1.000  H
  H434     1.0000 0.73941  0.29346  0.07371  Biso   1.000  H
  H435     1.0000 0.04430  0.70025  0.37568  Biso   1.000  H
  H436     1.0000 0.82408  0.94066  0.83589  Biso   1.000  H
  H437     1.0000 0.24836  0.30937  0.56951  Biso   1.000  H
  H438     1.0000 0.54605  0.70671  0.20716  Biso   1.000  H
  H439     1.0000 0.23838  0.43472  0.71991  Biso   1.000  H
  H440     1.0000 0.78952  0.79585  0.02197  Biso   1.000  H
  H441     1.0000 0.55274  0.14178  0.32268  Biso   1.000  H
  H442     1.0000 0.67719  0.45791  0.80580  Biso   1.000  H
  H443     1.0000 0.27723  0.81544  0.57137  Biso   1.000  H
  H444     1.0000 0.05265  0.14326  0.27140  Biso   1.000  H
  H445     1.0000 0.70839  0.01078  0.33871  Biso   1.000  H
  H446     1.0000 0.29082  0.65258  0.05645  Biso   1.000  H
  H447     1.0000 0.98395  0.24179  0.71376  Biso   1.000  H
  H448     1.0000 0.25922  0.99900  0.19565  Biso   1.000  H
  H449     1.0000 0.82565  0.69143  0.51902  Biso   1.000  H
  H450     1.0000 0.54688  0.29734  0.82513  Biso   1.000  H
  H451     1.0000 0.79495  0.48631  0.35818  Biso   1.000  H
  H452     1.0000 0.24233  0.14130  0.06837  Biso   1.000  H
  H453     1.0000 0.46720  0.79677  0.76102  Biso   1.000  H
  H454     1.0000 0.35050  0.51295  0.27370  Biso   1.000  H
  H455     1.0000 0.69606  0.18800  0.51184  Biso   1.000  H
  H456     1.0000 0.00135  0.74431  0.86948  Biso   1.000  H
  H457     1.0000 0.68567  0.73914  0.52460  Biso   1.000  H
  H458     1.0000 0.47741  0.70243  0.86718  Biso   1.000  H
  H459     1.0000 0.83656  0.44389  0.76605  Biso   1.000  H
  H460     1.0000 0.20410  0.76439  0.07622  Biso   1.000  H
  H461     1.0000 0.99187  0.69593  0.71874  Biso   1.000  H
  H462     1.0000 0.28018  0.43354  0.88131  Biso   1.000  H
  H463     1.0000 0.84570  0.23826  0.51270  Biso   1.000  H
  H464     1.0000 0.03470  0.14132  0.81593  Biso   1.000  H
  H465     1.0000 0.66792  0.99107  0.78916  Biso   1.000  H
  H466     1.0000 0.33414  0.25656  0.09301  Biso   1.000  H
  H467     1.0000 0.55167  0.19416  0.72615  Biso   1.000  H
  H468     1.0000 0.16812  0.95680  0.80025  Biso   1.000  H
  H469     1.0000 0.34077  0.19863  0.57230  Biso   1.000  H
  H470     1.0000 0.56312  0.25516  0.22377  Biso   1.000  H
  H471     1.0000 0.19317  0.50419  0.32601  Biso   1.000  H
  H472     1.0000 0.78150  0.13917  0.01463  Biso   1.000  H
  H473     1.0000 0.04367  0.29235  0.32192  Biso   1.000  H
  H474     1.0000 0.75633  0.48175  0.20997  Biso   1.000  H
  H475     1.0000 0.23073  0.65465  0.58707  Biso   1.000  H
  H476     1.0000 0.06227  0.79285  0.26210  Biso   1.000  H
  H477     1.0000 0.31800  0.01463  0.34103  Biso   1.000  H
  H478     1.0000 0.70472  0.68758  0.99855  Biso   1.000  H
  H479     1.0000 0.48954  0.74876  0.36141  Biso   1.000  H
  H480     1.0000 0.86190  0.00781  0.28631  Biso   1.000  H
  N1       1.0000 0.69510  0.14501  0.54770  Biso   1.000  N
  N2       1.0000 0.51978  0.65582  0.21214  Biso   1.000  N
  N3       1.0000 0.18803  0.46706  0.72518  Biso   1.000  N
  N4       1.0000 0.18923  0.15058  0.04594  Biso   1.000  N
  N5       1.0000 0.02446  0.64761  0.36910  Biso   1.000  N
  N6       1.0000 0.68562  0.48065  0.85923  Biso   1.000  N
  N7       1.0000 0.83408  0.64608  0.55581  Biso   1.000  N
  N8       1.0000 0.01844  0.14231  0.22187  Biso   1.000  N
  N9       1.0000 0.32244  0.96952  0.70099  Biso   1.000  N
  N10      1.0000 0.34472  0.65721  0.03077  Biso   1.000  N
  N11      1.0000 0.51622  0.14674  0.36706  Biso   1.000  N
  N12      1.0000 0.82698  0.97244  0.88124  Biso   1.000  N
  N13      1.0000 0.33291  0.80457  0.55046  Biso   1.000  N
  N14      1.0000 0.51454  0.29608  0.87260  Biso   1.000  N
  N15      1.0000 0.84773  0.46148  0.35965  Biso   1.000  N
  N16      1.0000 0.84471  0.79417  0.04829  Biso   1.000  N
  N17      1.0000 0.01502  0.29403  0.72078  Biso   1.000  N
  N18      1.0000 0.34390  0.48231  0.22470  Biso   1.000  N
  N19      1.0000 0.19751  0.30379  0.54354  Biso   1.000  N
  N20      1.0000 0.02024  0.79868  0.86418  Biso   1.000  N
  N21      1.0000 0.70968  0.97496  0.38358  Biso   1.000  N
  N22      1.0000 0.68772  0.29200  0.04596  Biso   1.000  N
  N23      1.0000 0.51048  0.80119  0.72134  Biso   1.000  N
  N24      1.0000 0.21355  0.96710  0.20097  Biso   1.000  N
  N25      1.0000 0.83386  0.46843  0.71177  Biso   1.000  N
  N26      1.0000 0.68632  0.79034  0.55578  Biso   1.000  N
  N27      1.0000 0.50261  0.64817  0.86259  Biso   1.000  N
  N28      1.0000 0.33300  0.46058  0.87299  Biso   1.000  N
  N29      1.0000 0.19577  0.80265  0.03552  Biso   1.000  N
  N30      1.0000 0.02019  0.64756  0.71923  Biso   1.000  N
  N31      1.0000 0.67593  0.96782  0.73664  Biso   1.000  N
  N32      1.0000 0.84296  0.29509  0.52710  Biso   1.000  N
  N33      1.0000 0.01035  0.14863  0.86815  Biso   1.000  N
  N34      1.0000 0.17605  0.98841  0.84996  Biso   1.000  N
  N35      1.0000 0.33344  0.30088  0.05742  Biso   1.000  N
  N36      1.0000 0.50967  0.15154  0.71850  Biso   1.000  N
  N37      1.0000 0.20031  0.47403  0.37355  Biso   1.000  N
  N38      1.0000 0.34108  0.15439  0.53720  Biso   1.000  N
  N39      1.0000 0.52948  0.29895  0.22585  Biso   1.000  N
  N40      1.0000 0.70236  0.45751  0.21052  Biso   1.000  N
  N41      1.0000 0.83452  0.14364  0.04252  Biso   1.000  N
  N42      1.0000 0.00899  0.28960  0.36996  Biso   1.000  N
  N43      1.0000 0.35739  0.97328  0.35337  Biso   1.000  N
  N44      1.0000 0.18635  0.65756  0.55336  Biso   1.000  N
  N45      1.0000 0.02333  0.78903  0.21509  Biso   1.000  N
  N46      1.0000 0.85560  0.97057  0.23491  Biso   1.000  N
  N47      1.0000 0.69699  0.64700  0.04066  Biso   1.000  N
  N48      1.0000 0.52504  0.79266  0.36864  Biso   1.000  N
  O1       1.0000 0.36312  0.52145  0.03915  Biso   1.000  O
  O2       1.0000 0.02177  0.32164  0.58676  Biso   1.000  O
  O3       1.0000 0.57238  0.97510  0.39144  Biso   1.000  O
  O4       1.0000 0.85791  0.51207  0.54170  Biso   1.000  O
  O5       1.0000 0.51068  0.32148  0.00646  Biso   1.000  O
  O6       1.0000 0.07790  0.96337  0.19461  Biso   1.000  O
  O7       1.0000 0.17081  0.01686  0.02921  Biso   1.000  O
  O8       1.0000 0.51741  0.81821  0.58218  Biso   1.000  O
  O9       1.0000 0.98188  0.46735  0.38528  Biso   1.000  O
  O10      1.0000 0.67443  0.01283  0.56101  Biso   1.000  O
  O11      1.0000 0.01952  0.82417  0.99947  Biso   1.000  O
  O12      1.0000 0.47884  0.48119  0.20179  Biso   1.000  O
  O13      1.0000 0.67499  0.42709  0.03661  Biso   1.000  O
  O14      1.0000 0.00890  0.62661  0.50105  Biso   1.000  O
  O15      1.0000 0.46152  0.97413  0.69208  Biso   1.000  O
  O16      1.0000 0.17332  0.43721  0.54385  Biso   1.000  O
  O17      1.0000 0.52445  0.63191  0.07784  Biso   1.000  O
  O18      1.0000 0.96118  0.97060  0.88753  Biso   1.000  O
  O19      1.0000 0.85882  0.92815  0.05921  Biso   1.000  O
  O20      1.0000 0.51481  0.12832  0.50066  Biso   1.000  O
  O21      1.0000 0.05445  0.46331  0.70767  Biso   1.000  O
  O22      1.0000 0.35707  0.93407  0.52230  Biso   1.000  O
  O23      1.0000 0.01464  0.12228  0.08408  Biso   1.000  O
  O24      1.0000 0.55255  0.48006  0.88560  Biso   1.000  O
  O25      1.0000 0.99169  0.96633  0.20185  Biso   1.000  O
  O26      1.0000 0.17425  0.93428  0.03026  Biso   1.000  O
  O27      1.0000 0.01135  0.12610  0.00147  Biso   1.000  O
  O28      1.0000 0.49080  0.96884  0.38876  Biso   1.000  O
  O29      1.0000 0.67202  0.92581  0.55744  Biso   1.000  O
  O30      1.0000 0.52334  0.12737  0.58310  Biso   1.000  O
  O31      1.0000 0.56451  0.47085  0.20256  Biso   1.000  O
  O32      1.0000 0.35758  0.43677  0.05253  Biso   1.000  O
  O33      1.0000 0.51689  0.63133  0.99446  Biso   1.000  O
  O34      1.0000 0.06666  0.46357  0.38939  Biso   1.000  O
  O35      1.0000 0.86179  0.42753  0.53042  Biso   1.000  O
  O36      1.0000 0.01148  0.62632  0.58460  Biso   1.000  O
  O37      1.0000 0.04474  0.97455  0.87483  Biso   1.000  O
  O38      1.0000 0.85720  0.01233  0.05506  Biso   1.000  O
  O39      1.0000 0.02130  0.81045  0.08145  Biso   1.000  O
  O40      1.0000 0.54472  0.97134  0.70490  Biso   1.000  O
  O41      1.0000 0.35411  0.02041  0.53658  Biso   1.000  O
  O42      1.0000 0.50005  0.81265  0.50001  Biso   1.000  O
  O43      1.0000 0.47013  0.46166  0.88904  Biso   1.000  O
  O44      1.0000 0.67815  0.51158  0.04010  Biso   1.000  O
  O45      1.0000 0.51572  0.32166  0.09177  Biso   1.000  O
  O46      1.0000 0.97316  0.47242  0.69901  Biso   1.000  O
  O47      1.0000 0.17349  0.52155  0.55108  Biso   1.000  O
  O48      1.0000 0.02047  0.31705  0.50035  Biso   1.000  O
  O49      1.0000 0.03157  0.92334  0.19615  Biso   1.000  O
  O50      1.0000 0.16480  0.97967  0.98857  Biso   1.000  O
  O51      1.0000 0.96887  0.12455  0.04231  Biso   1.000  O
  O52      1.0000 0.53167  0.92929  0.39152  Biso   1.000  O
  O53      1.0000 0.67289  0.96544  0.60145  Biso   1.000  O
  O54      1.0000 0.47536  0.12978  0.54644  Biso   1.000  O
  O55      1.0000 0.51950  0.43276  0.20774  Biso   1.000  O
  O56      1.0000 0.36043  0.47445  0.00810  Biso   1.000  O
  O57      1.0000 0.56045  0.62824  0.03346  Biso   1.000  O
  O58      1.0000 0.02136  0.42255  0.38704  Biso   1.000  O
  O59      1.0000 0.85476  0.46501  0.57848  Biso   1.000  O
  O60      1.0000 0.05154  0.62614  0.53995  Biso   1.000  O
  O61      1.0000 0.00336  0.01361  0.88993  Biso   1.000  O
  O62      1.0000 0.86301  0.97010  0.10044  Biso   1.000  O
  O63      1.0000 0.06208  0.81507  0.04352  Biso   1.000  O
  O64      1.0000 0.49913  0.01875  0.69695  Biso   1.000  O
  O65      1.0000 0.36037  0.98228  0.48620  Biso   1.000  O
  O66      1.0000 0.55357  0.81401  0.53448  Biso   1.000  O
  O67      1.0000 0.49934  0.51214  0.88571  Biso   1.000  O
  O68      1.0000 0.67658  0.46670  0.07851  Biso   1.000  O
  O69      1.0000 0.47096  0.32083  0.05472  Biso   1.000  O
  O70      1.0000 0.01950  0.51181  0.70130  Biso   1.000  O
  O71      1.0000 0.17386  0.47981  0.50775  Biso   1.000  O
  O72      1.0000 0.98026  0.31647  0.54447  Biso   1.000  O
  O73      1.0000 0.00897  0.42903  0.70413  Biso   1.000  O
  O74      1.0000 0.67853  0.97138  0.51693  Biso   1.000  O
  O75      1.0000 0.47918  0.63736  0.04255  Biso   1.000  O
  O76      1.0000 0.51610  0.43169  0.88935  Biso   1.000  O
  O77      1.0000 0.17379  0.97518  0.07194  Biso   1.000  O
  O78      1.0000 0.96815  0.62340  0.53983  Biso   1.000  O
  O79      1.0000 0.50272  0.93249  0.70038  Biso   1.000  O
  O80      1.0000 0.86004  0.47606  0.49710  Biso   1.000  O
  O81      1.0000 0.05512  0.12691  0.04289  Biso   1.000  O
  O82      1.0000 0.00848  0.93080  0.88132  Biso   1.000  O
  O83      1.0000 0.36179  0.48402  0.09046  Biso   1.000  O
  O84      1.0000 0.55810  0.12580  0.53534  Biso   1.000  O
  O85      1.0000 0.02785  0.50865  0.39040  Biso   1.000  O
  O86      1.0000 0.35002  0.97204  0.56882  Biso   1.000  O
  O87      1.0000 0.55445  0.32026  0.05197  Biso   1.000  O
  O88      1.0000 0.52691  0.51849  0.20067  Biso   1.000  O
  O89      1.0000 0.85565  0.96847  0.01420  Biso   1.000  O
  O90      1.0000 0.06379  0.31649  0.53996  Biso   1.000  O
  O91      1.0000 0.53116  0.01587  0.39088  Biso   1.000  O
  O92      1.0000 0.16875  0.47820  0.59154  Biso   1.000  O
  O93      1.0000 0.97875  0.81891  0.04058  Biso   1.000  O
  O94      1.0000 0.03390  0.00921  0.19649  Biso   1.000  O
  O95      1.0000 0.67268  0.47301  0.99559  Biso   1.000  O
  O96      1.0000 0.46959  0.81917  0.54763  Biso   1.000  O
  O97      1.0000 0.47905  0.17815  0.54730  Biso   1.000  O
  O98      1.0000 0.52335  0.43743  0.25583  Biso   1.000  O
  O99      1.0000 0.22225  0.48587  0.50965  Biso   1.000  O
  O100     1.0000 0.96851  0.17282  0.04168  Biso   1.000  O
  O101     1.0000 0.01664  0.42435  0.33808  Biso   1.000  O
  O102     1.0000 0.72477  0.46512  0.07642  Biso   1.000  O
  O103     1.0000 0.05053  0.67527  0.54154  Biso   1.000  O
  O104     1.0000 0.03712  0.92228  0.24476  Biso   1.000  O
  O105     1.0000 0.31196  0.98615  0.48210  Biso   1.000  O
  O106     1.0000 0.56468  0.67725  0.03672  Biso   1.000  O
  O107     1.0000 0.53705  0.92723  0.34453  Biso   1.000  O
  O108     1.0000 0.81531  0.96603  0.10186  Biso   1.000  O
  O109     1.0000 0.55285  0.76533  0.53694  Biso   1.000  O
  O110     1.0000 0.50794  0.51095  0.83929  Biso   1.000  O
  O111     1.0000 0.80746  0.45680  0.57549  Biso   1.000  O
  O112     1.0000 0.06232  0.76740  0.03819  Biso   1.000  O
  O113     1.0000 0.01033  0.51370  0.74993  Biso   1.000  O
  O114     1.0000 0.31178  0.47646  0.00816  Biso   1.000  O
  O115     1.0000 0.97832  0.26853  0.55111  Biso   1.000  O
  O116     1.0000 0.99567  0.01454  0.84174  Biso   1.000  O
  O117     1.0000 0.72006  0.97380  0.60451  Biso   1.000  O
  O118     1.0000 0.46903  0.27251  0.05663  Biso   1.000  O
  O119     1.0000 0.49859  0.01877  0.74489  Biso   1.000  O
  O120     1.0000 0.21390  0.97826  0.98346  Biso   1.000  O
  O121     1.0000 0.04967  0.46850  0.75595  Biso   1.000  O
  O122     1.0000 0.72415  0.00927  0.56181  Biso   1.000  O
  O123     1.0000 0.52233  0.68181  0.07760  Biso   1.000  O
  O124     1.0000 0.55021  0.47764  0.83638  Biso   1.000  O
  O125     1.0000 0.21941  0.01874  0.02322  Biso   1.000  O
  O126     1.0000 0.00912  0.67467  0.50214  Biso   1.000  O
  O127     1.0000 0.45484  0.97781  0.74005  Biso   1.000  O
  O128     1.0000 0.80775  0.50743  0.54321  Biso   1.000  O
  O129     1.0000 0.00928  0.17133  0.08694  Biso   1.000  O
  O130     1.0000 0.95748  0.97111  0.83843  Biso   1.000  O
  O131     1.0000 0.31415  0.52272  0.04716  Biso   1.000  O
  O132     1.0000 0.51741  0.17749  0.50120  Biso   1.000  O
  O133     1.0000 0.98325  0.47190  0.33774  Biso   1.000  O
  O134     1.0000 0.30774  0.93712  0.51635  Biso   1.000  O
  O135     1.0000 0.50582  0.27336  0.00664  Biso   1.000  O
  O136     1.0000 0.48247  0.48127  0.25040  Biso   1.000  O
  O137     1.0000 0.81036  0.92569  0.05979  Biso   1.000  O
  O138     1.0000 0.02889  0.27286  0.58500  Biso   1.000  O
  O139     1.0000 0.57807  0.97971  0.34341  Biso   1.000  O
  O140     1.0000 0.22197  0.43971  0.54431  Biso   1.000  O
  O141     1.0000 0.02187  0.77471  0.99703  Biso   1.000  O
  O142     1.0000 0.08228  0.95846  0.24263  Biso   1.000  O
  O143     1.0000 0.72396  0.42654  0.03224  Biso   1.000  O
  O144     1.0000 0.51445  0.76987  0.58591  Biso   1.000  O
  O145     1.0000 0.56706  0.47562  0.25112  Biso   1.000  O
  O146     1.0000 0.22249  0.52439  0.55509  Biso   1.000  O
  O147     1.0000 0.52585  0.17718  0.58322  Biso   1.000  O
  O148     1.0000 0.06560  0.45904  0.34010  Biso   1.000  O
  O149     1.0000 0.72653  0.50969  0.04053  Biso   1.000  O
  O150     1.0000 0.01182  0.17495  0.00403  Biso   1.000  O
  O151     1.0000 0.99697  0.96944  0.24887  Biso   1.000  O
  O152     1.0000 0.30625  0.02058  0.53035  Biso   1.000  O
  O153     1.0000 0.01151  0.67472  0.58517  Biso   1.000  O
  O154     1.0000 0.49233  0.96763  0.33876  Biso   1.000  O
  O155     1.0000 0.80848  0.00922  0.05613  Biso   1.000  O
  O156     1.0000 0.52146  0.67938  0.99406  Biso   1.000  O
  O157     1.0000 0.46628  0.46271  0.84022  Biso   1.000  O
  O158     1.0000 0.81409  0.42437  0.52792  Biso   1.000  O
  O159     1.0000 0.50363  0.76414  0.50197  Biso   1.000  O
  O160     1.0000 0.96627  0.47738  0.74562  Biso   1.000  O
  O161     1.0000 0.30758  0.43628  0.05370  Biso   1.000  O
  O162     1.0000 0.01780  0.76300  0.07929  Biso   1.000  O
  O163     1.0000 0.04096  0.97789  0.82796  Biso   1.000  O
  O164     1.0000 0.71978  0.92461  0.56696  Biso   1.000  O
  O165     1.0000 0.01331  0.26883  0.50381  Biso   1.000  O
  O166     1.0000 0.53857  0.97346  0.75238  Biso   1.000  O
  O167     1.0000 0.22329  0.93585  0.02709  Biso   1.000  O
  O168     1.0000 0.51170  0.27364  0.08984  Biso   1.000  O
  O169     1.0000 0.04275  0.00670  0.24472  Biso   1.000  O
  O170     1.0000 0.22208  0.97917  0.06352  Biso   1.000  O
  O171     1.0000 0.05472  0.17644  0.04785  Biso   1.000  O
  O172     1.0000 0.52641  0.01273  0.34120  Biso   1.000  O
  O173     1.0000 0.72539  0.96346  0.52123  Biso   1.000  O
  O174     1.0000 0.56041  0.17325  0.54184  Biso   1.000  O
  O175     1.0000 0.52846  0.52353  0.24881  Biso   1.000  O
  O176     1.0000 0.31338  0.48295  0.09084  Biso   1.000  O
  O177     1.0000 0.47991  0.68647  0.03591  Biso   1.000  O
  O178     1.0000 0.02982  0.50936  0.34231  Biso   1.000  O
  O179     1.0000 0.81229  0.46916  0.49267  Biso   1.000  O
  O180     1.0000 0.96898  0.67121  0.54506  Biso   1.000  O
  O181     1.0000 0.00444  0.92978  0.83276  Biso   1.000  O
  O182     1.0000 0.80632  0.96479  0.01767  Biso   1.000  O
  O183     1.0000 0.97971  0.77075  0.03553  Biso   1.000  O
  O184     1.0000 0.49378  0.93424  0.74925  Biso   1.000  O
  O185     1.0000 0.30250  0.97147  0.56375  Biso   1.000  O
  O186     1.0000 0.46828  0.77002  0.54838  Biso   1.000  O
  O187     1.0000 0.51195  0.42890  0.84052  Biso   1.000  O
  O188     1.0000 0.72052  0.47294  0.99564  Biso   1.000  O
  O189     1.0000 0.55153  0.27136  0.04629  Biso   1.000  O
  O190     1.0000 0.00620  0.42797  0.75277  Biso   1.000  O
  O191     1.0000 0.21772  0.47612  0.59361  Biso   1.000  O
  O192     1.0000 0.06261  0.26687  0.54171  Biso   1.000  O
