data_image0
_cell_length_a       46.7178
_cell_length_b       46.88
_cell_length_c       46.5903
_cell_angle_alpha    90
_cell_angle_beta     90
_cell_angle_gamma    90

_symmetry_space_group_name_H-M    "P 1"
_symmetry_int_tables_number       1

loop_
  _symmetry_equiv_pos_as_xyz
  'x, y, z'

loop_
  _atom_site_label
  _atom_site_occupancy
  _atom_site_fract_x
  _atom_site_fract_y
  _atom_site_fract_z
  _atom_site_thermal_displace_type
  _atom_site_B_iso_or_equiv
  _atom_site_type_symbol
  C1       1.0000 0.57916  0.00294  0.31301  Biso   1.000  C
  C2       1.0000 0.33682  0.56226  0.99291  Biso   1.000  C
  C3       1.0000 0.99005  0.32384  0.55713  Biso   1.000  C
  C4       1.0000 0.07559  0.00737  0.16764  Biso   1.000  C
  C5       1.0000 0.83524  0.57255  0.48986  Biso   1.000  C
  C6       1.0000 0.50228  0.31590  0.94399  Biso   1.000  C
  C7       1.0000 0.95671  0.50821  0.31436  Biso   1.000  C
  C8       1.0000 0.17912  0.06478  0.97916  Biso   1.000  C
  C9       1.0000 0.51477  0.82286  0.53704  Biso   1.000  C
  C10      1.0000 0.45342  0.50522  0.17417  Biso   1.000  C
  C11      1.0000 0.67695  0.06589  0.50163  Biso   1.000  C
  C12      1.0000 0.02216  0.81972  0.93066  Biso   1.000  C
  C13      1.0000 0.43261  0.99805  0.66668  Biso   1.000  C
  C14      1.0000 0.68507  0.43860  0.99906  Biso   1.000  C
  C15      1.0000 0.02261  0.68540  0.43510  Biso   1.000  C
  C16      1.0000 0.93445  0.99920  0.82473  Biso   1.000  C
  C17      1.0000 0.18662  0.43826  0.49950  Biso   1.000  C
  C18      1.0000 0.52730  0.68498  0.03626  Biso   1.000  C
  C19      1.0000 0.06167  0.49841  0.67966  Biso   1.000  C
  C20      1.0000 0.83022  0.93619  0.00871  Biso   1.000  C
  C21      1.0000 0.50377  0.19164  0.44250  Biso   1.000  C
  C22      1.0000 0.56734  0.50859  0.81491  Biso   1.000  C
  C23      1.0000 0.32768  0.94164  0.47806  Biso   1.000  C
  C24      1.0000 0.98664  0.17887  0.05657  Biso   1.000  C
  C25      1.0000 0.31953  0.04907  0.47574  Biso   1.000  C
  C26      1.0000 0.48658  0.32438  0.05121  Biso   1.000  C
  C27      1.0000 0.06314  0.48828  0.31694  Biso   1.000  C
  C28      1.0000 0.81953  0.04589  0.01608  Biso   1.000  C
  C29      1.0000 0.98977  0.31890  0.44696  Biso   1.000  C
  C30      1.0000 0.56621  0.51831  0.17273  Biso   1.000  C
  C31      1.0000 0.19298  0.55086  0.49523  Biso   1.000  C
  C32      1.0000 0.01961  0.81589  0.03642  Biso   1.000  C
  C33      1.0000 0.46764  0.01574  0.30707  Biso   1.000  C
  C34      1.0000 0.69488  0.54688  0.98996  Biso   1.000  C
  C35      1.0000 0.51590  0.82928  0.42917  Biso   1.000  C
  C36      1.0000 0.96679  0.98704  0.18011  Biso   1.000  C
  C37      1.0000 0.68684  0.95686  0.51766  Biso   1.000  C
  C38      1.0000 0.51731  0.68187  0.92526  Biso   1.000  C
  C39      1.0000 0.95232  0.50848  0.67824  Biso   1.000  C
  C40      1.0000 0.19298  0.95779  0.98527  Biso   1.000  C
  C41      1.0000 0.02157  0.68686  0.54253  Biso   1.000  C
  C42      1.0000 0.46106  0.48256  0.81220  Biso   1.000  C
  C43      1.0000 0.82248  0.46322  0.49997  Biso   1.000  C
  C44      1.0000 0.99502  0.18360  0.94876  Biso   1.000  C
  C45      1.0000 0.54084  0.99229  0.67428  Biso   1.000  C
  C46      1.0000 0.32317  0.45694  0.98950  Biso   1.000  C
  C47      1.0000 0.47736  0.18138  0.55129  Biso   1.000  C
  C48      1.0000 0.04374  0.00932  0.81535  Biso   1.000  C
  C49      1.0000 0.98365  0.05642  0.82093  Biso   1.000  C
  C50      1.0000 0.82804  0.98403  0.06458  Biso   1.000  C
  C51      1.0000 0.07409  0.81885  0.98329  Biso   1.000  C
  C52      1.0000 0.49450  0.04707  0.67211  Biso   1.000  C
  C53      1.0000 0.32877  0.99119  0.42254  Biso   1.000  C
  C54      1.0000 0.56944  0.82665  0.48552  Biso   1.000  C
  C55      1.0000 0.50612  0.54825  0.80850  Biso   1.000  C
  C56      1.0000 0.69182  0.49887  0.05041  Biso   1.000  C
  C57      1.0000 0.43935  0.32148  0.98881  Biso   1.000  C
  C58      1.0000 0.01033  0.55780  0.67303  Biso   1.000  C
  C59      1.0000 0.19188  0.49539  0.44218  Biso   1.000  C
  C60      1.0000 0.93731  0.32992  0.50007  Biso   1.000  C
  C61      1.0000 0.03001  0.94418  0.16498  Biso   1.000  C
  C62      1.0000 0.18241  0.00158  0.92666  Biso   1.000  C
  C63      1.0000 0.93749  0.18377  0.99786  Biso   1.000  C
  C64      1.0000 0.52200  0.95851  0.30410  Biso   1.000  C
  C65      1.0000 0.67802  0.01710  0.56483  Biso   1.000  C
  C66      1.0000 0.43711  0.18512  0.48379  Biso   1.000  C
  C67      1.0000 0.51521  0.45557  0.17100  Biso   1.000  C
  C68      1.0000 0.33570  0.50755  0.93803  Biso   1.000  C
  C69      1.0000 0.57440  0.67658  0.97459  Biso   1.000  C
  C70      1.0000 0.99699  0.44436  0.31605  Biso   1.000  C
  C71      1.0000 0.82629  0.52168  0.55035  Biso   1.000  C
  C72      1.0000 0.07364  0.67904  0.49044  Biso   1.000  C
  C73      1.0000 0.01937  0.55230  0.31316  Biso   1.000  C
  C74      1.0000 0.31488  0.99552  0.53184  Biso   1.000  C
  C75      1.0000 0.54921  0.31772  0.00440  Biso   1.000  C
  C76      1.0000 0.50058  0.56634  0.16783  Biso   1.000  C
  C77      1.0000 0.81587  0.99724  0.95677  Biso   1.000  C
  C78      1.0000 0.04465  0.31598  0.50388  Biso   1.000  C
  C79      1.0000 0.52191  0.06647  0.31441  Biso   1.000  C
  C80      1.0000 0.18891  0.49885  0.55195  Biso   1.000  C
  C81      1.0000 0.96497  0.81640  0.98450  Biso   1.000  C
  C82      1.0000 0.00836  0.05034  0.18146  Biso   1.000  C
  C83      1.0000 0.69403  0.48877  0.94187  Biso   1.000  C
  C84      1.0000 0.46079  0.82197  0.48265  Biso   1.000  C
  C85      1.0000 0.00481  0.44823  0.68328  Biso   1.000  C
  C86      1.0000 0.68957  0.00375  0.45608  Biso   1.000  C
  C87      1.0000 0.46965  0.68993  0.98781  Biso   1.000  C
  C88      1.0000 0.52245  0.43991  0.81500  Biso   1.000  C
  C89      1.0000 0.19061  0.01297  0.03422  Biso   1.000  C
  C90      1.0000 0.96883  0.69427  0.49004  Biso   1.000  C
  C91      1.0000 0.47869  0.94004  0.66897  Biso   1.000  C
  C92      1.0000 0.82951  0.51610  0.44197  Biso   1.000  C
  C93      1.0000 0.04499  0.18349  0.00053  Biso   1.000  C
  C94      1.0000 0.99213  0.94815  0.81460  Biso   1.000  C
  C95      1.0000 0.32926  0.50926  0.04581  Biso   1.000  C
  C96      1.0000 0.54437  0.18657  0.50837  Biso   1.000  C
  C97      1.0000 0.67409  0.09856  0.49866  Biso   1.000  C
  C98      1.0000 0.52822  0.68609  0.06916  Biso   1.000  C
  C99      1.0000 0.09324  0.49454  0.67927  Biso   1.000  C
  C100     1.0000 0.17635  0.09634  0.98527  Biso   1.000  C
  C101     1.0000 0.02635  0.68432  0.40313  Biso   1.000  C
  C102     1.0000 0.59900  0.51570  0.81581  Biso   1.000  C
  C103     1.0000 0.83543  0.60478  0.48540  Biso   1.000  C
  C104     1.0000 0.98042  0.17842  0.08873  Biso   1.000  C
  C105     1.0000 0.40004  0.99484  0.66755  Biso   1.000  C
  C106     1.0000 0.33841  0.59506  0.99205  Biso   1.000  C
  C107     1.0000 0.51311  0.19226  0.41169  Biso   1.000  C
  C108     1.0000 0.90207  0.00258  0.82465  Biso   1.000  C
  C109     1.0000 0.32961  0.91020  0.47453  Biso   1.000  C
  C110     1.0000 0.50196  0.31348  0.91238  Biso   1.000  C
  C111     1.0000 0.92600  0.51496  0.31461  Biso   1.000  C
  C112     1.0000 0.83260  0.90296  0.00534  Biso   1.000  C
  C113     1.0000 0.99372  0.32342  0.58933  Biso   1.000  C
  C114     1.0000 0.42127  0.50378  0.17362  Biso   1.000  C
  C115     1.0000 0.18034  0.40660  0.50411  Biso   1.000  C
  C116     1.0000 0.02142  0.82102  0.89841  Biso   1.000  C
  C117     1.0000 0.60923  0.99614  0.31722  Biso   1.000  C
  C118     1.0000 0.68122  0.40763  0.00674  Biso   1.000  C
  C119     1.0000 0.50806  0.82108  0.56814  Biso   1.000  C
  C120     1.0000 0.10876  0.01260  0.16938  Biso   1.000  C
  C121     1.0000 0.83014  0.98115  0.09717  Biso   1.000  C
  C122     1.0000 0.10640  0.82061  0.98430  Biso   1.000  C
  C123     1.0000 0.98816  0.08859  0.82189  Biso   1.000  C
  C124     1.0000 0.33252  0.98969  0.39051  Biso   1.000  C
  C125     1.0000 0.60062  0.82549  0.49168  Biso   1.000  C
  C126     1.0000 0.49769  0.07942  0.67167  Biso   1.000  C
  C127     1.0000 0.69269  0.50385  0.08224  Biso   1.000  C
  C128     1.0000 0.40732  0.32229  0.99207  Biso   1.000  C
  C129     1.0000 0.50533  0.58109  0.80424  Biso   1.000  C
  C130     1.0000 0.19156  0.49905  0.40898  Biso   1.000  C
  C131     1.0000 0.90635  0.33198  0.50556  Biso   1.000  C
  C132     1.0000 0.00927  0.59008  0.67116  Biso   1.000  C
  C133     1.0000 0.18174  0.99555  0.89472  Biso   1.000  C
  C134     1.0000 0.90453  0.18195  0.00070  Biso   1.000  C
  C135     1.0000 0.03643  0.91226  0.16347  Biso   1.000  C
  C136     1.0000 0.67649  0.01208  0.59664  Biso   1.000  C
  C137     1.0000 0.40635  0.18408  0.47721  Biso   1.000  C
  C138     1.0000 0.52389  0.92587  0.30254  Biso   1.000  C
  C139     1.0000 0.33555  0.50416  0.90620  Biso   1.000  C
  C140     1.0000 0.60603  0.67374  0.97575  Biso   1.000  C
  C141     1.0000 0.51541  0.42358  0.17343  Biso   1.000  C
  C142     1.0000 0.82678  0.52146  0.58221  Biso   1.000  C
  C143     1.0000 0.10712  0.67864  0.48905  Biso   1.000  C
  C144     1.0000 0.99164  0.41223  0.31638  Biso   1.000  C
  C145     1.0000 0.32845  0.50403  0.07752  Biso   1.000  C
  C146     1.0000 0.07639  0.31569  0.50743  Biso   1.000  C
  C147     1.0000 0.51477  0.09791  0.31632  Biso   1.000  C
  C148     1.0000 0.82976  0.51253  0.40931  Biso   1.000  C
  C149     1.0000 0.58113  0.31525  0.00665  Biso   1.000  C
  C150     1.0000 0.99845  0.08133  0.18297  Biso   1.000  C
  C151     1.0000 0.19491  0.01670  0.06650  Biso   1.000  C
  C152     1.0000 0.42862  0.81939  0.48494  Biso   1.000  C
  C153     1.0000 0.02387  0.58494  0.31074  Biso   1.000  C
  C154     1.0000 0.69331  0.99682  0.42395  Biso   1.000  C
  C155     1.0000 0.93456  0.81398  0.99052  Biso   1.000  C
  C156     1.0000 0.49461  0.59745  0.16568  Biso   1.000  C
  C157     1.0000 0.69333  0.48659  0.90966  Biso   1.000  C
  C158     1.0000 0.93549  0.69620  0.49277  Biso   1.000  C
  C159     1.0000 0.47475  0.90717  0.66594  Biso   1.000  C
  C160     1.0000 0.18884  0.49949  0.58477  Biso   1.000  C
  C161     1.0000 0.43822  0.69129  0.98793  Biso   1.000  C
  C162     1.0000 0.98891  0.91623  0.81312  Biso   1.000  C
  C163     1.0000 0.81332  0.00188  0.92515  Biso   1.000  C
  C164     1.0000 0.57613  0.18632  0.51247  Biso   1.000  C
  C165     1.0000 0.00829  0.41616  0.68328  Biso   1.000  C
  C166     1.0000 0.31478  0.99457  0.56547  Biso   1.000  C
  C167     1.0000 0.07752  0.18547  0.00191  Biso   1.000  C
  C168     1.0000 0.52106  0.40719  0.81519  Biso   1.000  C
  C169     1.0000 0.02515  0.81529  0.06843  Biso   1.000  C
  C170     1.0000 0.07645  0.01114  0.81220  Biso   1.000  C
  C171     1.0000 0.81876  0.07776  0.01920  Biso   1.000  C
  C172     1.0000 0.51618  0.82731  0.39674  Biso   1.000  C
  C173     1.0000 0.57262  0.99269  0.67741  Biso   1.000  C
  C174     1.0000 0.31545  0.08291  0.47410  Biso   1.000  C
  C175     1.0000 0.48984  0.32501  0.08347  Biso   1.000  C
  C176     1.0000 0.42935  0.48072  0.81233  Biso   1.000  C
  C177     1.0000 0.69753  0.57817  0.98778  Biso   1.000  C
  C178     1.0000 0.98588  0.31727  0.41457  Biso   1.000  C
  C179     1.0000 0.91974  0.51245  0.67753  Biso   1.000  C
  C180     1.0000 0.19699  0.58367  0.49194  Biso   1.000  C
  C181     1.0000 0.99492  0.18265  0.91701  Biso   1.000  C
  C182     1.0000 0.93430  0.98123  0.18182  Biso   1.000  C
  C183     1.0000 0.19375  0.92500  0.98628  Biso   1.000  C
  C184     1.0000 0.47451  0.17907  0.58342  Biso   1.000  C
  C185     1.0000 0.43531  0.01677  0.30616  Biso   1.000  C
  C186     1.0000 0.69221  0.92467  0.51518  Biso   1.000  C
  C187     1.0000 0.51267  0.68071  0.89352  Biso   1.000  C
  C188     1.0000 0.59804  0.52073  0.17341  Biso   1.000  C
  C189     1.0000 0.32076  0.42443  0.99609  Biso   1.000  C
  C190     1.0000 0.02468  0.68589  0.57344  Biso   1.000  C
  C191     1.0000 0.09493  0.48859  0.31753  Biso   1.000  C
  C192     1.0000 0.81787  0.43013  0.50371  Biso   1.000  C
  C193     1.0000 0.83969  0.00144  0.90737  Biso   1.000  C
  C194     1.0000 0.91916  0.84113  0.99304  Biso   1.000  C
  C195     1.0000 0.99870  0.89952  0.83837  Biso   1.000  C
  C196     1.0000 0.33813  0.98811  0.58473  Biso   1.000  C
  C197     1.0000 0.41258  0.84634  0.48437  Biso   1.000  C
  C198     1.0000 0.48396  0.89379  0.63850  Biso   1.000  C
  C199     1.0000 0.66678  0.49412  0.89532  Biso   1.000  C
  C200     1.0000 0.59887  0.34067  0.00297  Biso   1.000  C
  C201     1.0000 0.52019  0.39090  0.84316  Biso   1.000  C
  C202     1.0000 0.16122  0.49787  0.60016  Biso   1.000  C
  C203     1.0000 0.09320  0.34247  0.50628  Biso   1.000  C
  C204     1.0000 0.00423  0.39995  0.65659  Biso   1.000  C
  C205     1.0000 0.16936  0.01821  0.08447  Biso   1.000  C
  C206     1.0000 0.09498  0.15941  0.99743  Biso   1.000  C
  C207     1.0000 0.99481  0.09835  0.15571  Biso   1.000  C
  C208     1.0000 0.66789  0.99549  0.40448  Biso   1.000  C
  C209     1.0000 0.59336  0.16000  0.50908  Biso   1.000  C
  C210     1.0000 0.51289  0.11481  0.34346  Biso   1.000  C
  C211     1.0000 0.35426  0.50134  0.09430  Biso   1.000  C
  C212     1.0000 0.42124  0.66449  0.99190  Biso   1.000  C
  C213     1.0000 0.49963  0.61325  0.13906  Biso   1.000  C
  C214     1.0000 0.85686  0.51453  0.39393  Biso   1.000  C
  C215     1.0000 0.91759  0.66973  0.48882  Biso   1.000  C
  C216     1.0000 0.02232  0.60274  0.33764  Biso   1.000  C
  C217     1.0000 0.09536  0.00849  0.83810  Biso   1.000  C
  C218     1.0000 0.84489  0.09615  0.01333  Biso   1.000  C
  C219     1.0000 0.03016  0.84169  0.08502  Biso   1.000  C
  C220     1.0000 0.59185  0.00200  0.65402  Biso   1.000  C
  C221     1.0000 0.34208  0.09935  0.46939  Biso   1.000  C
  C222     1.0000 0.51962  0.85532  0.38152  Biso   1.000  C
  C223     1.0000 0.41283  0.48724  0.83845  Biso   1.000  C
  C224     1.0000 0.67005  0.59418  0.98552  Biso   1.000  C
  C225     1.0000 0.49680  0.35218  0.09636  Biso   1.000  C
  C226     1.0000 0.90561  0.51390  0.65021  Biso   1.000  C
  C227     1.0000 0.17155  0.60135  0.49321  Biso   1.000  C
  C228     1.0000 0.98643  0.34428  0.39743  Biso   1.000  C
  C229     1.0000 0.91456  0.98183  0.15893  Biso   1.000  C
  C230     1.0000 0.16802  0.90572  0.98645  Biso   1.000  C
  C231     1.0000 0.99289  0.15487  0.90284  Biso   1.000  C
  C232     1.0000 0.41814  0.01101  0.33180  Biso   1.000  C
  C233     1.0000 0.66417  0.90663  0.51275  Biso   1.000  C
  C234     1.0000 0.47955  0.15219  0.59736  Biso   1.000  C
  C235     1.0000 0.61367  0.51918  0.14692  Biso   1.000  C
  C236     1.0000 0.34645  0.40543  0.99454  Biso   1.000  C
  C237     1.0000 0.51126  0.65316  0.87788  Biso   1.000  C
  C238     1.0000 0.11023  0.48806  0.34402  Biso   1.000  C
  C239     1.0000 0.84383  0.41171  0.50523  Biso   1.000  C
  C240     1.0000 0.02124  0.65886  0.58911  Biso   1.000  C
  C241     1.0000 0.61420  0.51030  0.84314  Biso   1.000  C
  C242     1.0000 0.86443  0.61986  0.48491  Biso   1.000  C
  C243     1.0000 0.50077  0.84819  0.58368  Biso   1.000  C
  C244     1.0000 0.10848  0.49628  0.65237  Biso   1.000  C
  C245     1.0000 0.36519  0.61111  0.99191  Biso   1.000  C
  C246     1.0000 0.01433  0.84808  0.88474  Biso   1.000  C
  C247     1.0000 0.88857  0.00173  0.85283  Biso   1.000  C
  C248     1.0000 0.64699  0.11261  0.49982  Biso   1.000  C
  C249     1.0000 0.99950  0.35031  0.60538  Biso   1.000  C
  C250     1.0000 0.38476  0.98925  0.64069  Biso   1.000  C
  C251     1.0000 0.14902  0.10970  0.99125  Biso   1.000  C
  C252     1.0000 0.50504  0.33963  0.89422  Biso   1.000  C
  C253     1.0000 0.40465  0.50432  0.14639  Biso   1.000  C
  C254     1.0000 0.15112  0.39326  0.50409  Biso   1.000  C
  C255     1.0000 0.51427  0.16455  0.39592  Biso   1.000  C
  C256     1.0000 0.91053  0.51466  0.34218  Biso   1.000  C
  C257     1.0000 0.65344  0.39218  0.00809  Biso   1.000  C
  C258     1.0000 0.98215  0.15192  0.10497  Biso   1.000  C
  C259     1.0000 0.12411  0.01399  0.14175  Biso   1.000  C
  C260     1.0000 0.35655  0.89622  0.48000  Biso   1.000  C
  C261     1.0000 0.02764  0.65612  0.38882  Biso   1.000  C
  C262     1.0000 0.62243  0.99876  0.34636  Biso   1.000  C
  C263     1.0000 0.86152  0.88996  0.00605  Biso   1.000  C
  C264     1.0000 0.51873  0.65967  0.08649  Biso   1.000  C
  C265     1.0000 0.99013  0.10336  0.85039  Biso   1.000  C
  C266     1.0000 0.85838  0.98029  0.11157  Biso   1.000  C
  C267     1.0000 0.11936  0.84929  0.98607  Biso   1.000  C
  C268     1.0000 0.49239  0.09743  0.64580  Biso   1.000  C
  C269     1.0000 0.36111  0.99601  0.37851  Biso   1.000  C
  C270     1.0000 0.61545  0.85226  0.50243  Biso   1.000  C
  C271     1.0000 0.51156  0.59916  0.82954  Biso   1.000  C
  C272     1.0000 0.66680  0.51256  0.09810  Biso   1.000  C
  C273     1.0000 0.39423  0.35013  0.99281  Biso   1.000  C
  C274     1.0000 0.01251  0.60591  0.64354  Biso   1.000  C
  C275     1.0000 0.16421  0.49559  0.39378  Biso   1.000  C
  C276     1.0000 0.89097  0.35930  0.50630  Biso   1.000  C
  C277     1.0000 0.03322  0.89642  0.13656  Biso   1.000  C
  C278     1.0000 0.15380  0.99470  0.88042  Biso   1.000  C
  C279     1.0000 0.89126  0.15442  0.00538  Biso   1.000  C
  C280     1.0000 0.52535  0.90992  0.32991  Biso   1.000  C
  C281     1.0000 0.64689  0.01134  0.61122  Biso   1.000  C
  C282     1.0000 0.39159  0.15539  0.47315  Biso   1.000  C
  C283     1.0000 0.51103  0.40708  0.14718  Biso   1.000  C
  C284     1.0000 0.36221  0.49809  0.88901  Biso   1.000  C
  C285     1.0000 0.62236  0.64675  0.97817  Biso   1.000  C
  C286     1.0000 0.98978  0.39664  0.34459  Biso   1.000  C
  C287     1.0000 0.85364  0.52085  0.59929  Biso   1.000  C
  C288     1.0000 0.12352  0.65191  0.49297  Biso   1.000  C
  C289     1.0000 0.35801  0.86397  0.47698  Biso   1.000  C
  C290     1.0000 0.50956  0.33856  0.86404  Biso   1.000  C
  C291     1.0000 0.87896  0.51444  0.34048  Biso   1.000  C
  C292     1.0000 0.86427  0.85867  0.00173  Biso   1.000  C
  C293     1.0000 0.00099  0.34827  0.63629  Biso   1.000  C
  C294     1.0000 0.37246  0.50227  0.14701  Biso   1.000  C
  C295     1.0000 0.14891  0.36187  0.50592  Biso   1.000  C
  C296     1.0000 0.01063  0.84665  0.85362  Biso   1.000  C
  C297     1.0000 0.65313  0.99493  0.34848  Biso   1.000  C
  C298     1.0000 0.65277  0.36043  0.00981  Biso   1.000  C
  C299     1.0000 0.49355  0.84468  0.61438  Biso   1.000  C
  C300     1.0000 0.15479  0.01494  0.13954  Biso   1.000  C
  C301     1.0000 0.64675  0.14363  0.50468  Biso   1.000  C
  C302     1.0000 0.51358  0.66411  0.11744  Biso   1.000  C
  C303     1.0000 0.14037  0.49556  0.65306  Biso   1.000  C
  C304     1.0000 0.14844  0.14090  0.99607  Biso   1.000  C
  C305     1.0000 0.03012  0.65610  0.35744  Biso   1.000  C
  C306     1.0000 0.64617  0.50816  0.84397  Biso   1.000  C
  C307     1.0000 0.86437  0.65159  0.48382  Biso   1.000  C
  C308     1.0000 0.98461  0.15079  0.13601  Biso   1.000  C
  C309     1.0000 0.35374  0.98997  0.63915  Biso   1.000  C
  C310     1.0000 0.36637  0.64386  0.99161  Biso   1.000  C
  C311     1.0000 0.51413  0.16733  0.36433  Biso   1.000  C
  C312     1.0000 0.85712  0.00118  0.85335  Biso   1.000  C
  C313     1.0000 0.16596  0.49480  0.36284  Biso   1.000  C
  C314     1.0000 0.35903  0.15445  0.47378  Biso   1.000  C
  C315     1.0000 0.50590  0.37586  0.14880  Biso   1.000  C
  C316     1.0000 0.66701  0.51481  0.12977  Biso   1.000  C
  C317     1.0000 0.86050  0.15195  0.01003  Biso   1.000  C
  C318     1.0000 0.98704  0.36489  0.34321  Biso   1.000  C
  C319     1.0000 0.36412  0.00160  0.34846  Biso   1.000  C
  C320     1.0000 0.15359  0.65340  0.48799  Biso   1.000  C
  C321     1.0000 0.03533  0.86456  0.13677  Biso   1.000  C
  C322     1.0000 0.86012  0.97663  0.14347  Biso   1.000  C
  C323     1.0000 0.65361  0.64818  0.97858  Biso   1.000  C
  C324     1.0000 0.52503  0.87801  0.32995  Biso   1.000  C
  C325     1.0000 0.85313  0.51768  0.62989  Biso   1.000  C
  C326     1.0000 0.64657  0.85253  0.50504  Biso   1.000  C
  C327     1.0000 0.50616  0.63009  0.82650  Biso   1.000  C
  C328     1.0000 0.35994  0.49627  0.85841  Biso   1.000  C
  C329     1.0000 0.15164  0.85001  0.98619  Biso   1.000  C
  C330     1.0000 0.01601  0.63826  0.64337  Biso   1.000  C
  C331     1.0000 0.64637  0.00905  0.64238  Biso   1.000  C
  C332     1.0000 0.85995  0.35807  0.50866  Biso   1.000  C
  C333     1.0000 0.99526  0.13456  0.84980  Biso   1.000  C
  C334     1.0000 0.15074  0.00348  0.85126  Biso   1.000  C
  C335     1.0000 0.36292  0.35134  0.99645  Biso   1.000  C
  C336     1.0000 0.48781  0.12860  0.64915  Biso   1.000  C
  C337     1.0000 0.66808  0.50213  0.86433  Biso   1.000  C
  C338     1.0000 0.88703  0.67330  0.48626  Biso   1.000  C
  C339     1.0000 0.48560  0.86314  0.63771  Biso   1.000  C
  C340     1.0000 0.16175  0.49676  0.63015  Biso   1.000  C
  C341     1.0000 0.38943  0.66439  0.99014  Biso   1.000  C
  C342     1.0000 0.00284  0.86867  0.83421  Biso   1.000  C
  C343     1.0000 0.83660  0.00138  0.87664  Biso   1.000  C
  C344     1.0000 0.62433  0.16371  0.50853  Biso   1.000  C
  C345     1.0000 0.00396  0.36903  0.65698  Biso   1.000  C
  C346     1.0000 0.33394  0.98988  0.61592  Biso   1.000  C
  C347     1.0000 0.12580  0.16077  0.99866  Biso   1.000  C
  C348     1.0000 0.51542  0.36007  0.84278  Biso   1.000  C
  C349     1.0000 0.35156  0.50083  0.12562  Biso   1.000  C
  C350     1.0000 0.12589  0.34211  0.50587  Biso   1.000  C
  C351     1.0000 0.51334  0.14576  0.34365  Biso   1.000  C
  C352     1.0000 0.85729  0.51199  0.36167  Biso   1.000  C
  C353     1.0000 0.63042  0.33889  0.00916  Biso   1.000  C
  C354     1.0000 0.98879  0.12894  0.15761  Biso   1.000  C
  C355     1.0000 0.17360  0.01622  0.11573  Biso   1.000  C
  C356     1.0000 0.38108  0.84368  0.47863  Biso   1.000  C
  C357     1.0000 0.02825  0.63325  0.33539  Biso   1.000  C
  C358     1.0000 0.67266  0.99292  0.37263  Biso   1.000  C
  C359     1.0000 0.88745  0.83842  0.99705  Biso   1.000  C
  C360     1.0000 0.50641  0.64431  0.13964  Biso   1.000  C
  C361     1.0000 0.99658  0.15576  0.87123  Biso   1.000  C
  C362     1.0000 0.88403  0.97668  0.16319  Biso   1.000  C
  C363     1.0000 0.17122  0.87397  0.98704  Biso   1.000  C
  C364     1.0000 0.48225  0.15069  0.62875  Biso   1.000  C
  C365     1.0000 0.38679  0.00860  0.32865  Biso   1.000  C
  C366     1.0000 0.66677  0.87588  0.50872  Biso   1.000  C
  C367     1.0000 0.50647  0.65134  0.84729  Biso   1.000  C
  C368     1.0000 0.64482  0.51803  0.15071  Biso   1.000  C
  C369     1.0000 0.34317  0.37438  0.99659  Biso   1.000  C
  C370     1.0000 0.02049  0.65860  0.62072  Biso   1.000  C
  C371     1.0000 0.14291  0.49184  0.34318  Biso   1.000  C
  C372     1.0000 0.83999  0.38050  0.50845  Biso   1.000  C
  C373     1.0000 0.03367  0.84196  0.11528  Biso   1.000  C
  C374     1.0000 0.12679  0.00622  0.83269  Biso   1.000  C
  C375     1.0000 0.84179  0.12727  0.01389  Biso   1.000  C
  C376     1.0000 0.52259  0.85563  0.35053  Biso   1.000  C
  C377     1.0000 0.62272  0.00300  0.66121  Biso   1.000  C
  C378     1.0000 0.33911  0.13118  0.47305  Biso   1.000  C
  C379     1.0000 0.50008  0.35399  0.12876  Biso   1.000  C
  C380     1.0000 0.38153  0.49045  0.83791  Biso   1.000  C
  C381     1.0000 0.67379  0.62530  0.98235  Biso   1.000  C
  C382     1.0000 0.98550  0.34378  0.36572  Biso   1.000  C
  C383     1.0000 0.87521  0.51478  0.65053  Biso   1.000  C
  C384     1.0000 0.17476  0.63160  0.48854  Biso   1.000  C
  C385     1.0000 0.17511  0.15835  0.99601  Biso   1.000  C
  C386     1.0000 0.98106  0.17782  0.15231  Biso   1.000  C
  C387     1.0000 0.17119  0.01319  0.16521  Biso   1.000  C
  C388     1.0000 0.67300  0.16044  0.50473  Biso   1.000  C
  C389     1.0000 0.51376  0.19406  0.34852  Biso   1.000  C
  C390     1.0000 0.67083  0.98687  0.32437  Biso   1.000  C
  C391     1.0000 0.34000  0.65974  0.98971  Biso   1.000  C
  C392     1.0000 0.51911  0.69050  0.13239  Biso   1.000  C
  C393     1.0000 0.35744  0.50026  0.17379  Biso   1.000  C
  C394     1.0000 0.83808  0.66876  0.48499  Biso   1.000  C
  C395     1.0000 0.03291  0.68277  0.34041  Biso   1.000  C
  C396     1.0000 0.86352  0.51746  0.31370  Biso   1.000  C
  C397     1.0000 0.83934  0.83974  0.00080  Biso   1.000  C
  C398     1.0000 0.01143  0.82135  0.83690  Biso   1.000  C
  C399     1.0000 0.83887  0.99934  0.82794  Biso   1.000  C
  C400     1.0000 0.33231  0.84661  0.46909  Biso   1.000  C
  C401     1.0000 0.49406  0.81598  0.62733  Biso   1.000  C
  C402     1.0000 0.33670  0.99544  0.66409  Biso   1.000  C
  C403     1.0000 0.67863  0.34358  0.01441  Biso   1.000  C
  C404     1.0000 0.50637  0.31126  0.84865  Biso   1.000  C
  C405     1.0000 0.66164  0.51291  0.81834  Biso   1.000  C
  C406     1.0000 0.17398  0.34405  0.50859  Biso   1.000  C
  C407     1.0000 0.00118  0.32102  0.65297  Biso   1.000  C
  C408     1.0000 0.15681  0.49185  0.68032  Biso   1.000  C
  C409     1.0000 0.13885  0.01147  0.80387  Biso   1.000  C
  C410     1.0000 0.81459  0.14084  0.01985  Biso   1.000  C
  C411     1.0000 0.03564  0.81490  0.13060  Biso   1.000  C
  C412     1.0000 0.63526  0.99812  0.68881  Biso   1.000  C
  C413     1.0000 0.31016  0.14523  0.47779  Biso   1.000  C
  C414     1.0000 0.51990  0.82903  0.33381  Biso   1.000  C
  C415     1.0000 0.36515  0.48730  0.81084  Biso   1.000  C
  C416     1.0000 0.70214  0.64009  0.98249  Biso   1.000  C
  C417     1.0000 0.49420  0.32961  0.14768  Biso   1.000  C
  C418     1.0000 0.85936  0.51460  0.67724  Biso   1.000  C
  C419     1.0000 0.20196  0.64625  0.48461  Biso   1.000  C
  C420     1.0000 0.98327  0.31584  0.35006  Biso   1.000  C
  C421     1.0000 0.87060  0.97468  0.19067  Biso   1.000  C
  C422     1.0000 0.19950  0.86065  0.98812  Biso   1.000  C
  C423     1.0000 0.99969  0.18224  0.85424  Biso   1.000  C
  C424     1.0000 0.37231  0.01394  0.30143  Biso   1.000  C
  C425     1.0000 0.69423  0.86200  0.50842  Biso   1.000  C
  C426     1.0000 0.48403  0.17689  0.64490  Biso   1.000  C
  C427     1.0000 0.66056  0.51832  0.17792  Biso   1.000  C
  C428     1.0000 0.31424  0.36255  0.99829  Biso   1.000  C
  C429     1.0000 0.50200  0.67764  0.83019  Biso   1.000  C
  C430     1.0000 0.15690  0.49377  0.31561  Biso   1.000  C
  C431     1.0000 0.81111  0.36584  0.50801  Biso   1.000  C
  C432     1.0000 0.02357  0.68493  0.63649  Biso   1.000  C
  C433     1.0000 0.99779  0.14990  0.82303  Biso   1.000  C
  C434     1.0000 0.83488  0.97314  0.16143  Biso   1.000  C
  C435     1.0000 0.17045  0.82426  0.98902  Biso   1.000  C
  C436     1.0000 0.49138  0.14386  0.67582  Biso   1.000  C
  C437     1.0000 0.33815  0.00201  0.33006  Biso   1.000  C
  C438     1.0000 0.66417  0.82688  0.50235  Biso   1.000  C
  C439     1.0000 0.49945  0.64331  0.79983  Biso   1.000  C
  C440     1.0000 0.69321  0.51262  0.14568  Biso   1.000  C
  C441     1.0000 0.34342  0.32575  0.99836  Biso   1.000  C
  C442     1.0000 0.01493  0.65391  0.67081  Biso   1.000  C
  C443     1.0000 0.19164  0.49861  0.34638  Biso   1.000  C
  C444     1.0000 0.84293  0.33187  0.50959  Biso   1.000  C
  C445     1.0000 0.04111  0.84853  0.16330  Biso   1.000  C
  C446     1.0000 0.17522  0.00850  0.83321  Biso   1.000  C
  C447     1.0000 0.84239  0.17657  0.00895  Biso   1.000  C
  C448     1.0000 0.52184  0.86231  0.30168  Biso   1.000  C
  C449     1.0000 0.67158  0.00455  0.66038  Biso   1.000  C
  C450     1.0000 0.34124  0.17965  0.47846  Biso   1.000  C
  C451     1.0000 0.50409  0.36281  0.17784  Biso   1.000  C
  C452     1.0000 0.33255  0.49903  0.84372  Biso   1.000  C
  C453     1.0000 0.67018  0.67505  0.97820  Biso   1.000  C
  C454     1.0000 0.98748  0.34924  0.31651  Biso   1.000  C
  C455     1.0000 0.82578  0.52036  0.64547  Biso   1.000  C
  C456     1.0000 0.16980  0.68005  0.48176  Biso   1.000  C
  C457     1.0000 0.03339  0.64849  0.30903  Biso   1.000  C
  C458     1.0000 0.30661  0.99662  0.62906  Biso   1.000  C
  C459     1.0000 0.64428  0.31177  0.01364  Biso   1.000  C
  C460     1.0000 0.50612  0.66065  0.16563  Biso   1.000  C
  C461     1.0000 0.80893  0.00142  0.86266  Biso   1.000  C
  C462     1.0000 0.14123  0.31359  0.50544  Biso   1.000  C
  C463     1.0000 0.51448  0.16065  0.31657  Biso   1.000  C
  C464     1.0000 0.18879  0.49627  0.64682  Biso   1.000  C
  C465     1.0000 0.87425  0.81103  0.99526  Biso   1.000  C
  C466     1.0000 0.98675  0.14365  0.18476  Biso   1.000  C
  C467     1.0000 0.69509  0.50484  0.84899  Biso   1.000  C
  C468     1.0000 0.36747  0.81538  0.47284  Biso   1.000  C
  C469     1.0000 0.00770  0.35426  0.68366  Biso   1.000  C
  C470     1.0000 0.70030  0.98886  0.36081  Biso   1.000  C
  C471     1.0000 0.37456  0.69173  0.98828  Biso   1.000  C
  C472     1.0000 0.51544  0.34258  0.81576  Biso   1.000  C
  C473     1.0000 0.20152  0.01493  0.12884  Biso   1.000  C
  C474     1.0000 0.87245  0.70036  0.48982  Biso   1.000  C
  C475     1.0000 0.48154  0.84556  0.66358  Biso   1.000  C
  C476     1.0000 0.83130  0.51338  0.34532  Biso   1.000  C
  C477     1.0000 0.14086  0.18852  0.00052  Biso   1.000  C
  C478     1.0000 0.99953  0.85476  0.80682  Biso   1.000  C
  C479     1.0000 0.32389  0.49946  0.13959  Biso   1.000  C
  C480     1.0000 0.63967  0.19140  0.51043  Biso   1.000  C
  C481     1.0000 0.38353  0.78886  0.47687  Biso   1.000  C
  C482     1.0000 0.51855  0.35905  0.78829  Biso   1.000  C
  C483     1.0000 0.80376  0.51048  0.36164  Biso   1.000  C
  C484     1.0000 0.89070  0.78333  0.98963  Biso   1.000  C
  C485     1.0000 0.01391  0.36931  0.71064  Biso   1.000  C
  C486     1.0000 0.29742  0.49979  0.12257  Biso   1.000  C
  C487     1.0000 0.12281  0.28642  0.50728  Biso   1.000  C
  C488     1.0000 0.99170  0.87166  0.78224  Biso   1.000  C
  C489     1.0000 0.72674  0.98757  0.38041  Biso   1.000  C
  C490     1.0000 0.62427  0.28562  0.01593  Biso   1.000  C
  C491     1.0000 0.47140  0.85802  0.68911  Biso   1.000  C
  C492     1.0000 0.22743  0.01153  0.11014  Biso   1.000  C
  C493     1.0000 0.62362  0.21844  0.51490  Biso   1.000  C
  C494     1.0000 0.49784  0.64461  0.19127  Biso   1.000  C
  C495     1.0000 0.21596  0.49600  0.63146  Biso   1.000  C
  C496     1.0000 0.12273  0.21440  0.00547  Biso   1.000  C
  C497     1.0000 0.03566  0.63137  0.28223  Biso   1.000  C
  C498     1.0000 0.72120  0.49605  0.86350  Biso   1.000  C
  C499     1.0000 0.88933  0.72676  0.49333  Biso   1.000  C
  C500     1.0000 0.99095  0.12789  0.21225  Biso   1.000  C
  C501     1.0000 0.28173  0.99993  0.60991  Biso   1.000  C
  C502     1.0000 0.39117  0.71919  0.98667  Biso   1.000  C
  C503     1.0000 0.51433  0.14479  0.28888  Biso   1.000  C
  C504     1.0000 0.78222  0.99976  0.87895  Biso   1.000  C
  C505     1.0000 0.64629  0.52123  0.79078  Biso   1.000  C
  C506     1.0000 0.81046  0.65371  0.48451  Biso   1.000  C
  C507     1.0000 0.49937  0.78994  0.61040  Biso   1.000  C
  C508     1.0000 0.14021  0.49189  0.70718  Biso   1.000  C
  C509     1.0000 0.31140  0.64503  0.99018  Biso   1.000  C
  C510     1.0000 0.02182  0.79469  0.84996  Biso   1.000  C
  C511     1.0000 0.85280  0.00326  0.79973  Biso   1.000  C
  C512     1.0000 0.70011  0.14699  0.49976  Biso   1.000  C
  C513     1.0000 0.99493  0.29439  0.63719  Biso   1.000  C
  C514     1.0000 0.35098  0.99971  0.69304  Biso   1.000  C
  C515     1.0000 0.20324  0.14508  0.98789  Biso   1.000  C
  C516     1.0000 0.50188  0.28477  0.86520  Biso   1.000  C
  C517     1.0000 0.37298  0.50016  0.20122  Biso   1.000  C
  C518     1.0000 0.20281  0.35780  0.50943  Biso   1.000  C
  C519     1.0000 0.51195  0.22092  0.36455  Biso   1.000  C
  C520     1.0000 0.87850  0.52535  0.28814  Biso   1.000  C
  C521     1.0000 0.70663  0.35902  0.01578  Biso   1.000  C
  C522     1.0000 0.97832  0.20548  0.13628  Biso   1.000  C
  C523     1.0000 0.15720  0.01316  0.19356  Biso   1.000  C
  C524     1.0000 0.30537  0.86185  0.46366  Biso   1.000  C
  C525     1.0000 0.02999  0.71088  0.35492  Biso   1.000  C
  C526     1.0000 0.65690  0.98157  0.29690  Biso   1.000  C
  C527     1.0000 0.81121  0.85337  0.00056  Biso   1.000  C
  C528     1.0000 0.53095  0.71612  0.11546  Biso   1.000  C
  C529     1.0000 0.78924  0.12305  0.02485  Biso   1.000  C
  C530     1.0000 0.03224  0.78777  0.11566  Biso   1.000  C
  C531     1.0000 0.11962  0.01669  0.77949  Biso   1.000  C
  C532     1.0000 0.28382  0.12696  0.47891  Biso   1.000  C
  C533     1.0000 0.51936  0.80134  0.34974  Biso   1.000  C
  C534     1.0000 0.61687  0.98752  0.71233  Biso   1.000  C
  C535     1.0000 0.72825  0.62196  0.98611  Biso   1.000  C
  C536     1.0000 0.48761  0.30078  0.13406  Biso   1.000  C
  C537     1.0000 0.38296  0.47816  0.78502  Biso   1.000  C
  C538     1.0000 0.22890  0.62870  0.48087  Biso   1.000  C
  C539     1.0000 0.97806  0.28976  0.36811  Biso   1.000  C
  C540     1.0000 0.87358  0.51249  0.70498  Biso   1.000  C
  C541     1.0000 0.22481  0.88021  0.99225  Biso   1.000  C
  C542     1.0000 0.00054  0.20940  0.86982  Biso   1.000  C
  C543     1.0000 0.89071  0.97041  0.21655  Biso   1.000  C
  C544     1.0000 0.72070  0.87994  0.51189  Biso   1.000  C
  C545     1.0000 0.47793  0.20557  0.63098  Biso   1.000  C
  C546     1.0000 0.39039  0.02025  0.27640  Biso   1.000  C
  C547     1.0000 0.28830  0.38069  0.00042  Biso   1.000  C
  C548     1.0000 0.50426  0.70609  0.84554  Biso   1.000  C
  C549     1.0000 0.64337  0.52155  0.20418  Biso   1.000  C
  C550     1.0000 0.78572  0.38386  0.50862  Biso   1.000  C
  C551     1.0000 0.02703  0.71306  0.62151  Biso   1.000  C
  C552     1.0000 0.14129  0.49148  0.28877  Biso   1.000  C
  C553     1.0000 0.99443  0.13533  0.79500  Biso   1.000  C
  C554     1.0000 0.80623  0.97388  0.14737  Biso   1.000  C
  C555     1.0000 0.15564  0.79585  0.98779  Biso   1.000  C
  C556     1.0000 0.50227  0.12747  0.70045  Biso   1.000  C
  C557     1.0000 0.30990  0.99786  0.34335  Biso   1.000  C
  C558     1.0000 0.64992  0.79996  0.49335  Biso   1.000  C
  C559     1.0000 0.49674  0.62523  0.77392  Biso   1.000  C
  C560     1.0000 0.72000  0.50376  0.13110  Biso   1.000  C
  C561     1.0000 0.35746  0.29770  0.99928  Biso   1.000  C
  C562     1.0000 0.00904  0.63818  0.69762  Biso   1.000  C
  C563     1.0000 0.22008  0.49990  0.36072  Biso   1.000  C
  C564     1.0000 0.85820  0.30447  0.51170  Biso   1.000  C
  C565     1.0000 0.04436  0.86591  0.18965  Biso   1.000  C
  C566     1.0000 0.20365  0.00684  0.84406  Biso   1.000  C
  C567     1.0000 0.85560  0.20524  0.00417  Biso   1.000  C
  C568     1.0000 0.51981  0.87961  0.27574  Biso   1.000  C
  C569     1.0000 0.70030  0.00786  0.64719  Biso   1.000  C
  C570     1.0000 0.35748  0.20797  0.48131  Biso   1.000  C
  C571     1.0000 0.50730  0.37950  0.20443  Biso   1.000  C
  C572     1.0000 0.30736  0.50777  0.85980  Biso   1.000  C
  C573     1.0000 0.65390  0.70284  0.97517  Biso   1.000  C
  C574     1.0000 0.99123  0.36520  0.29014  Biso   1.000  C
  C575     1.0000 0.79838  0.52524  0.63065  Biso   1.000  C
  C576     1.0000 0.15374  0.70670  0.48115  Biso   1.000  C
  C577     1.0000 0.30054  0.50311  0.09237  Biso   1.000  C
  C578     1.0000 0.09120  0.28795  0.50885  Biso   1.000  C
  C579     1.0000 0.51272  0.11274  0.28871  Biso   1.000  C
  C580     1.0000 0.80291  0.50932  0.39317  Biso   1.000  C
  C581     1.0000 0.59349  0.28814  0.01436  Biso   1.000  C
  C582     1.0000 0.99538  0.09649  0.21131  Biso   1.000  C
  C583     1.0000 0.22419  0.01290  0.07956  Biso   1.000  C
  C584     1.0000 0.41457  0.79158  0.48374  Biso   1.000  C
  C585     1.0000 0.03222  0.59915  0.28393  Biso   1.000  C
  C586     1.0000 0.72216  0.99064  0.41125  Biso   1.000  C
  C587     1.0000 0.92170  0.78473  0.99065  Biso   1.000  C
  C588     1.0000 0.49249  0.61385  0.19219  Biso   1.000  C
  C589     1.0000 0.72048  0.48527  0.89284  Biso   1.000  C
  C590     1.0000 0.92117  0.72411  0.49826  Biso   1.000  C
  C591     1.0000 0.46704  0.88879  0.69090  Biso   1.000  C
  C592     1.0000 0.21616  0.49689  0.59940  Biso   1.000  C
  C593     1.0000 0.42231  0.71933  0.98663  Biso   1.000  C
  C594     1.0000 0.98555  0.90249  0.78524  Biso   1.000  C
  C595     1.0000 0.78489  0.99897  0.91013  Biso   1.000  C
  C596     1.0000 0.59058  0.21432  0.51505  Biso   1.000  C
  C597     1.0000 0.01474  0.40135  0.71024  Biso   1.000  C
  C598     1.0000 0.28647  0.00099  0.57874  Biso   1.000  C
  C599     1.0000 0.09123  0.21363  0.00630  Biso   1.000  C
  C600     1.0000 0.51954  0.39242  0.78810  Biso   1.000  C
  C601     1.0000 0.20635  0.00000  0.87608  Biso   1.000  C
  C602     1.0000 0.88648  0.20807  0.99957  Biso   1.000  C
  C603     1.0000 0.04271  0.89753  0.19061  Biso   1.000  C
  C604     1.0000 0.70236  0.01263  0.61570  Biso   1.000  C
  C605     1.0000 0.38921  0.21104  0.47830  Biso   1.000  C
  C606     1.0000 0.52160  0.91080  0.27561  Biso   1.000  C
  C607     1.0000 0.30825  0.51058  0.89077  Biso   1.000  C
  C608     1.0000 0.62303  0.70140  0.97401  Biso   1.000  C
  C609     1.0000 0.51370  0.41060  0.20199  Biso   1.000  C
  C610     1.0000 0.79917  0.52443  0.59940  Biso   1.000  C
  C611     1.0000 0.12154  0.70595  0.48607  Biso   1.000  C
  C612     1.0000 0.99124  0.39676  0.28810  Biso   1.000  C
  C613     1.0000 0.80437  0.97802  0.11541  Biso   1.000  C
  C614     1.0000 0.12361  0.79387  0.98461  Biso   1.000  C
  C615     1.0000 0.98830  0.10477  0.79420  Biso   1.000  C
  C616     1.0000 0.30641  0.99043  0.37334  Biso   1.000  C
  C617     1.0000 0.61794  0.79936  0.48857  Biso   1.000  C
  C618     1.0000 0.50285  0.09550  0.69877  Biso   1.000  C
  C619     1.0000 0.71805  0.49897  0.09898  Biso   1.000  C
  C620     1.0000 0.38992  0.29660  0.99607  Biso   1.000  C
  C621     1.0000 0.49973  0.59370  0.77578  Biso   1.000  C
  C622     1.0000 0.21964  0.50072  0.39419  Biso   1.000  C
  C623     1.0000 0.88997  0.30528  0.50941  Biso   1.000  C
  C624     1.0000 0.00836  0.60658  0.69828  Biso   1.000  C
  C625     1.0000 0.99741  0.20856  0.90061  Biso   1.000  C
  C626     1.0000 0.92243  0.97468  0.21095  Biso   1.000  C
  C627     1.0000 0.22115  0.91125  0.98963  Biso   1.000  C
  C628     1.0000 0.47239  0.20532  0.60038  Biso   1.000  C
  C629     1.0000 0.42182  0.02315  0.27753  Biso   1.000  C
  C630     1.0000 0.72077  0.91086  0.51604  Biso   1.000  C
  C631     1.0000 0.50890  0.70748  0.87699  Biso   1.000  C
  C632     1.0000 0.61273  0.52053  0.20187  Biso   1.000  C
  C633     1.0000 0.29255  0.41329  0.00094  Biso   1.000  C
  C634     1.0000 0.02786  0.71254  0.58974  Biso   1.000  C
  C635     1.0000 0.11056  0.48830  0.28961  Biso   1.000  C
  C636     1.0000 0.78953  0.41564  0.50620  Biso   1.000  C
  C637     1.0000 0.02626  0.78858  0.08463  Biso   1.000  C
  C638     1.0000 0.08905  0.01679  0.78302  Biso   1.000  C
  C639     1.0000 0.79172  0.09209  0.02653  Biso   1.000  C
  C640     1.0000 0.51698  0.79988  0.38053  Biso   1.000  C
  C641     1.0000 0.58618  0.98539  0.70744  Biso   1.000  C
  C642     1.0000 0.28708  0.09587  0.47767  Biso   1.000  C
  C643     1.0000 0.48596  0.29967  0.10175  Biso   1.000  C
  C644     1.0000 0.41429  0.47598  0.78564  Biso   1.000  C
  C645     1.0000 0.72617  0.59085  0.99028  Biso   1.000  C
  C646     1.0000 0.98096  0.28983  0.39993  Biso   1.000  C
  C647     1.0000 0.90474  0.51202  0.70514  Biso   1.000  C
  C648     1.0000 0.22522  0.59703  0.48486  Biso   1.000  C
  C649     1.0000 0.02771  0.71041  0.38635  Biso   1.000  C
  C650     1.0000 0.38214  0.99850  0.69412  Biso   1.000  C
  C651     1.0000 0.70650  0.38990  0.01190  Biso   1.000  C
  C652     1.0000 0.53567  0.71349  0.08325  Biso   1.000  C
  C653     1.0000 0.88422  0.00621  0.79975  Biso   1.000  C
  C654     1.0000 0.20615  0.38942  0.50687  Biso   1.000  C
  C655     1.0000 0.51270  0.22104  0.39554  Biso   1.000  C
  C656     1.0000 0.10866  0.49468  0.70762  Biso   1.000  C
  C657     1.0000 0.80667  0.88479  0.00374  Biso   1.000  C
  C658     1.0000 0.97770  0.20574  0.10516  Biso   1.000  C
  C659     1.0000 0.61592  0.51958  0.78917  Biso   1.000  C
  C660     1.0000 0.30442  0.89416  0.46622  Biso   1.000  C
  C661     1.0000 0.99148  0.29626  0.60584  Biso   1.000  C
  C662     1.0000 0.62631  0.98725  0.29304  Biso   1.000  C
  C663     1.0000 0.31105  0.61290  0.99046  Biso   1.000  C
  C664     1.0000 0.50063  0.28585  0.89702  Biso   1.000  C
  C665     1.0000 0.12627  0.01288  0.19538  Biso   1.000  C
  C666     1.0000 0.80910  0.62247  0.48329  Biso   1.000  C
  C667     1.0000 0.50718  0.79176  0.58060  Biso   1.000  C
  C668     1.0000 0.90999  0.52119  0.28841  Biso   1.000  C
  C669     1.0000 0.20398  0.11375  0.98369  Biso   1.000  C
  C670     1.0000 0.02702  0.79461  0.88143  Biso   1.000  C
  C671     1.0000 0.40425  0.50179  0.20064  Biso   1.000  C
  C672     1.0000 0.70099  0.11578  0.49809  Biso   1.000  C
  C673     1.0000 0.18362  0.01456  0.78557  Biso   1.000  C
  C674     1.0000 0.79707  0.18572  0.02065  Biso   1.000  C
  C675     1.0000 0.04088  0.80253  0.17712  Biso   1.000  C
  C676     1.0000 0.68033  0.99740  0.70937  Biso   1.000  C
  C677     1.0000 0.29365  0.19139  0.48476  Biso   1.000  C
  C678     1.0000 0.51395  0.81516  0.28671  Biso   1.000  C
  C679     1.0000 0.31837  0.49101  0.79718  Biso   1.000  C
  C680     1.0000 0.71887  0.68624  0.98049  Biso   1.000  C
  C681     1.0000 0.49520  0.31753  0.19598  Biso   1.000  C
  C682     1.0000 0.81271  0.51672  0.69279  Biso   1.000  C
  C683     1.0000 0.21807  0.69235  0.47446  Biso   1.000  C
  C684     1.0000 0.98153  0.30246  0.30239  Biso   1.000  C
  C685     1.0000 0.82592  0.96952  0.20926  Biso   1.000  C
  C686     1.0000 0.21688  0.81338  0.99397  Biso   1.000  C
  C687     1.0000 0.00402  0.19668  0.80771  Biso   1.000  C
  C688     1.0000 0.32610  0.01099  0.28438  Biso   1.000  C
  C689     1.0000 0.71133  0.81676  0.49963  Biso   1.000  C
  C690     1.0000 0.49274  0.19066  0.69133  Biso   1.000  C
  C691     1.0000 0.70582  0.51493  0.19204  Biso   1.000  C
  C692     1.0000 0.29651  0.31602  0.00080  Biso   1.000  C
  C693     1.0000 0.49294  0.68908  0.78269  Biso   1.000  C
  C694     1.0000 0.20362  0.49527  0.29981  Biso   1.000  C
  C695     1.0000 0.79559  0.31727  0.50867  Biso   1.000  C
  C696     1.0000 0.01527  0.70072  0.68286  Biso   1.000  C
  C697     1.0000 0.71906  0.97944  0.31776  Biso   1.000  C
  C698     1.0000 0.32808  0.70660  0.99149  Biso   1.000  C
  C699     1.0000 0.00339  0.30821  0.70168  Biso   1.000  C
  C700     1.0000 0.21981  0.00911  0.17404  Biso   1.000  C
  C701     1.0000 0.82524  0.71613  0.48830  Biso   1.000  C
  C702     1.0000 0.51025  0.29550  0.80304  Biso   1.000  C
  C703     1.0000 0.81779  0.51651  0.29929  Biso   1.000  C
  C704     1.0000 0.18576  0.20709  0.00318  Biso   1.000  C
  C705     1.0000 0.48501  0.79829  0.67242  Biso   1.000  C
  C706     1.0000 0.31129  0.49773  0.18774  Biso   1.000  C
  C707     1.0000 0.68649  0.20916  0.50864  Biso   1.000  C
  C708     1.0000 0.00414  0.80844  0.79077  Biso   1.000  C
  C709     1.0000 0.28837  0.00114  0.67399  Biso   1.000  C
  C710     1.0000 0.68863  0.29447  0.02245  Biso   1.000  C
  C711     1.0000 0.03715  0.69451  0.29245  Biso   1.000  C
  C712     1.0000 0.79000  0.99536  0.81848  Biso   1.000  C
  C713     1.0000 0.18476  0.29675  0.50535  Biso   1.000  C
  C714     1.0000 0.51457  0.70699  0.17911  Biso   1.000  C
  C715     1.0000 0.20453  0.49359  0.69283  Biso   1.000  C
  C716     1.0000 0.82786  0.79439  0.99270  Biso   1.000  C
  C717     1.0000 0.51128  0.20785  0.30104  Biso   1.000  C
  C718     1.0000 0.70861  0.50925  0.80204  Biso   1.000  C
  C719     1.0000 0.32170  0.80108  0.46528  Biso   1.000  C
  C720     1.0000 0.97973  0.19034  0.19753  Biso   1.000  C
  C721     1.0000 0.52651  0.82137  0.25817  Biso   1.000  C
  C722     1.0000 0.32320  0.50184  0.76603  Biso   1.000  C
  C723     1.0000 0.76800  0.32185  0.52603  Biso   1.000  C
  C724     1.0000 0.02279  0.77558  0.17752  Biso   1.000  C
  C725     1.0000 0.78709  0.53690  0.69307  Biso   1.000  C
  C726     1.0000 0.27019  0.31935  0.98327  Biso   1.000  C
  C727     1.0000 0.99460  0.27445  0.30777  Biso   1.000  C
  C728     1.0000 0.21170  0.02923  0.78621  Biso   1.000  C
  C729     1.0000 0.71054  0.78772  0.51301  Biso   1.000  C
  C730     1.0000 0.47272  0.29567  0.19708  Biso   1.000  C
  C731     1.0000 0.71025  0.98611  0.70568  Biso   1.000  C
  C732     1.0000 0.24597  0.81968  0.98289  Biso   1.000  C
  C733     1.0000 0.48346  0.18581  0.72017  Biso   1.000  C
  C734     1.0000 0.70027  0.50473  0.22109  Biso   1.000  C
  C735     1.0000 0.21084  0.71973  0.45740  Biso   1.000  C
  C736     1.0000 0.98303  0.21995  0.80889  Biso   1.000  C
  C737     1.0000 0.20492  0.47109  0.27844  Biso   1.000  C
  C738     1.0000 0.71996  0.70884  0.95847  Biso   1.000  C
  C739     1.0000 0.03870  0.72055  0.68904  Biso   1.000  C
  C740     1.0000 0.79884  0.95219  0.20703  Biso   1.000  C
  C741     1.0000 0.26583  0.19016  0.46944  Biso   1.000  C
  C742     1.0000 0.50388  0.68627  0.75424  Biso   1.000  C
  C743     1.0000 0.30741  0.98590  0.28118  Biso   1.000  C
  C744     1.0000 0.80100  0.21270  0.03651  Biso   1.000  C
  C745     1.0000 0.05108  0.72227  0.29635  Biso   1.000  C
  C746     1.0000 0.29012  0.02424  0.69518  Biso   1.000  C
  C747     1.0000 0.71475  0.29667  0.04135  Biso   1.000  C
  C748     1.0000 0.50528  0.73612  0.17066  Biso   1.000  C
  C749     1.0000 0.78929  0.97157  0.79766  Biso   1.000  C
  C750     1.0000 0.20907  0.30030  0.48430  Biso   1.000  C
  C751     1.0000 0.52436  0.20660  0.27174  Biso   1.000  C
  C752     1.0000 0.22972  0.51173  0.68898  Biso   1.000  C
  C753     1.0000 0.82812  0.77403  0.96829  Biso   1.000  C
  C754     1.0000 0.99965  0.19076  0.22188  Biso   1.000  C
  C755     1.0000 0.70314  0.49911  0.77223  Biso   1.000  C
  C756     1.0000 0.29059  0.80408  0.47678  Biso   1.000  C
  C757     1.0000 0.01947  0.28198  0.69668  Biso   1.000  C
  C758     1.0000 0.72109  0.99293  0.28967  Biso   1.000  C
  C759     1.0000 0.30402  0.70261  0.01266  Biso   1.000  C
  C760     1.0000 0.53083  0.29392  0.77977  Biso   1.000  C
  C761     1.0000 0.24799  0.02282  0.16893  Biso   1.000  C
  C762     1.0000 0.79932  0.71478  0.47024  Biso   1.000  C
  C763     1.0000 0.46051  0.79493  0.69265  Biso   1.000  C
  C764     1.0000 0.79194  0.53360  0.30462  Biso   1.000  C
  C765     1.0000 0.18036  0.23709  0.99010  Biso   1.000  C
  C766     1.0000 0.01608  0.81432  0.76229  Biso   1.000  C
  C767     1.0000 0.28472  0.47980  0.18381  Biso   1.000  C
  C768     1.0000 0.68180  0.23842  0.49745  Biso   1.000  C
  C769     1.0000 0.47730  0.71655  0.78803  Biso   1.000  C
  C770     1.0000 0.81478  0.49458  0.71688  Biso   1.000  C
  C771     1.0000 0.73735  0.82503  0.48183  Biso   1.000  C
  C772     1.0000 0.98843  0.70235  0.69889  Biso   1.000  C
  C773     1.0000 0.28962  0.48068  0.80282  Biso   1.000  C
  C774     1.0000 0.21478  0.78643  0.00992  Biso   1.000  C
  C775     1.0000 0.02681  0.19539  0.78493  Biso   1.000  C
  C776     1.0000 0.67334  0.00372  0.74078  Biso   1.000  C
  C777     1.0000 0.79913  0.28691  0.49485  Biso   1.000  C
  C778     1.0000 0.50727  0.21925  0.68520  Biso   1.000  C
  C779     1.0000 0.17566  0.00007  0.75828  Biso   1.000  C
  C780     1.0000 0.29734  0.29209  0.02107  Biso   1.000  C
  C781     1.0000 0.51786  0.31544  0.21737  Biso   1.000  C
  C782     1.0000 0.22771  0.51776  0.29970  Biso   1.000  C
  C783     1.0000 0.29682  0.21555  0.50548  Biso   1.000  C
  C784     1.0000 0.96998  0.30580  0.27388  Biso   1.000  C
  C785     1.0000 0.73430  0.52786  0.18812  Biso   1.000  C
  C786     1.0000 0.76926  0.17994  0.00784  Biso   1.000  C
  C787     1.0000 0.05802  0.80669  0.20264  Biso   1.000  C
  C788     1.0000 0.32505  0.03294  0.26265  Biso   1.000  C
  C789     1.0000 0.24746  0.68967  0.48582  Biso   1.000  C
  C790     1.0000 0.49757  0.78833  0.29031  Biso   1.000  C
  C791     1.0000 0.83321  0.98340  0.23898  Biso   1.000  C
  C792     1.0000 0.74018  0.68630  0.00136  Biso   1.000  C
  C793     1.0000 0.49284  0.23229  0.30801  Biso   1.000  C
  C794     1.0000 0.31482  0.51438  0.21255  Biso   1.000  C
  C795     1.0000 0.18505  0.27087  0.52308  Biso   1.000  C
  C796     1.0000 0.95975  0.21386  0.19585  Biso   1.000  C
  C797     1.0000 0.81998  0.50063  0.27083  Biso   1.000  C
  C798     1.0000 0.68425  0.26571  0.00831  Biso   1.000  C
  C799     1.0000 0.02363  0.69009  0.26416  Biso   1.000  C
  C800     1.0000 0.21393  0.99417  0.20257  Biso   1.000  C
  C801     1.0000 0.32939  0.77277  0.45220  Biso   1.000  C
  C802     1.0000 0.52209  0.70114  0.20858  Biso   1.000  C
  C803     1.0000 0.74387  0.96053  0.32517  Biso   1.000  C
  C804     1.0000 0.80418  0.79240  0.01270  Biso   1.000  C
  C805     1.0000 0.50885  0.77733  0.67454  Biso   1.000  C
  C806     1.0000 0.73589  0.52277  0.80837  Biso   1.000  C
  C807     1.0000 0.82737  0.73946  0.51037  Biso   1.000  C
  C808     1.0000 0.99387  0.77924  0.79565  Biso   1.000  C
  C809     1.0000 0.20295  0.47333  0.71751  Biso   1.000  C
  C810     1.0000 0.33056  0.73382  0.97451  Biso   1.000  C
  C811     1.0000 0.99137  0.31265  0.73047  Biso   1.000  C
  C812     1.0000 0.76574  0.01596  0.82020  Biso   1.000  C
  C813     1.0000 0.71472  0.20376  0.52448  Biso   1.000  C
  C814     1.0000 0.48585  0.27487  0.80162  Biso   1.000  C
  C815     1.0000 0.26294  0.98152  0.67483  Biso   1.000  C
  C816     1.0000 0.21255  0.20409  0.01878  Biso   1.000  C
  C817     1.0000 0.98374  0.24112  0.78741  Biso   1.000  C
  C818     1.0000 0.78063  0.95113  0.23081  Biso   1.000  C
  C819     1.0000 0.26715  0.79934  0.98405  Biso   1.000  C
  C820     1.0000 0.49048  0.20584  0.74203  Biso   1.000  C
  C821     1.0000 0.28726  0.98433  0.25870  Biso   1.000  C
  C822     1.0000 0.73291  0.76934  0.51078  Biso   1.000  C
  C823     1.0000 0.49980  0.70619  0.73209  Biso   1.000  C
  C824     1.0000 0.72053  0.50765  0.24253  Biso   1.000  C
  C825     1.0000 0.24646  0.29958  0.98669  Biso   1.000  C
  C826     1.0000 0.03504  0.74377  0.70859  Biso   1.000  C
  C827     1.0000 0.22581  0.47153  0.25675  Biso   1.000  C
  C828     1.0000 0.74726  0.29963  0.52843  Biso   1.000  C
  C829     1.0000 0.02205  0.75607  0.20068  Biso   1.000  C
  C830     1.0000 0.23067  0.02795  0.76365  Biso   1.000  C
  C831     1.0000 0.77784  0.23163  0.03875  Biso   1.000  C
  C832     1.0000 0.52494  0.79974  0.23620  Biso   1.000  C
  C833     1.0000 0.72884  0.98476  0.72898  Biso   1.000  C
  C834     1.0000 0.24411  0.21100  0.47583  Biso   1.000  C
  C835     1.0000 0.47473  0.27488  0.21921  Biso   1.000  C
  C836     1.0000 0.29985  0.50193  0.74530  Biso   1.000  C
  C837     1.0000 0.74073  0.73064  0.95933  Biso   1.000  C
  C838     1.0000 0.99060  0.25149  0.28928  Biso   1.000  C
  C839     1.0000 0.76858  0.53494  0.71643  Biso   1.000  C
  C840     1.0000 0.23100  0.73981  0.45075  Biso   1.000  C
  C841     1.0000 0.19654  0.00159  0.73607  Biso   1.000  C
  C842     1.0000 0.74581  0.19827  0.01292  Biso   1.000  C
  C843     1.0000 0.05982  0.78499  0.22510  Biso   1.000  C
  C844     1.0000 0.69419  0.00356  0.76242  Biso   1.000  C
  C845     1.0000 0.27511  0.23564  0.50969  Biso   1.000  C
  C846     1.0000 0.49554  0.76857  0.26751  Biso   1.000  C
  C847     1.0000 0.26739  0.48136  0.78177  Biso   1.000  C
  C848     1.0000 0.75926  0.70957  0.00227  Biso   1.000  C
  C849     1.0000 0.51949  0.29370  0.23890  Biso   1.000  C
  C850     1.0000 0.79538  0.49496  0.73890  Biso   1.000  C
  C851     1.0000 0.26716  0.71218  0.47597  Biso   1.000  C
  C852     1.0000 0.97006  0.28389  0.25347  Biso   1.000  C
  C853     1.0000 0.81399  0.98006  0.26260  Biso   1.000  C
  C854     1.0000 0.23756  0.76690  0.01226  Biso   1.000  C
  C855     1.0000 0.02698  0.21936  0.76598  Biso   1.000  C
  C856     1.0000 0.30445  0.03122  0.24179  Biso   1.000  C
  C857     1.0000 0.76056  0.80519  0.48191  Biso   1.000  C
  C858     1.0000 0.51351  0.23913  0.70746  Biso   1.000  C
  C859     1.0000 0.75631  0.52428  0.20792  Biso   1.000  C
  C860     1.0000 0.27505  0.27191  0.02143  Biso   1.000  C
  C861     1.0000 0.47038  0.73546  0.76554  Biso   1.000  C
  C862     1.0000 0.24796  0.51597  0.27778  Biso   1.000  C
  C863     1.0000 0.77713  0.26591  0.49873  Biso   1.000  C
  C864     1.0000 0.98570  0.72576  0.71801  Biso   1.000  C
  C865     1.0000 0.72314  0.50071  0.75153  Biso   1.000  C
  C866     1.0000 0.77756  0.73596  0.47375  Biso   1.000  C
  C867     1.0000 0.46229  0.77500  0.71476  Biso   1.000  C
  C868     1.0000 0.25282  0.50886  0.70635  Biso   1.000  C
  C869     1.0000 0.28371  0.72521  0.01533  Biso   1.000  C
  C870     1.0000 0.01683  0.79400  0.74030  Biso   1.000  C
  C871     1.0000 0.76638  0.97150  0.77833  Biso   1.000  C
  C872     1.0000 0.70339  0.25833  0.50073  Biso   1.000  C
  C873     1.0000 0.02095  0.26111  0.71859  Biso   1.000  C
  C874     1.0000 0.27015  0.02819  0.71584  Biso   1.000  C
  C875     1.0000 0.20126  0.25894  0.99381  Biso   1.000  C
  C876     1.0000 0.52846  0.27394  0.75682  Biso   1.000  C
  C877     1.0000 0.26657  0.47697  0.20683  Biso   1.000  C
  C878     1.0000 0.23113  0.28040  0.48374  Biso   1.000  C
  C879     1.0000 0.51817  0.22796  0.25122  Biso   1.000  C
  C880     1.0000 0.77011  0.53148  0.28372  Biso   1.000  C
  C881     1.0000 0.73330  0.27339  0.04286  Biso   1.000  C
  C882     1.0000 0.00061  0.21364  0.24101  Biso   1.000  C
  C883     1.0000 0.26821  0.02060  0.19045  Biso   1.000  C
  C884     1.0000 0.27119  0.78179  0.47042  Biso   1.000  C
  C885     1.0000 0.05321  0.74308  0.27568  Biso   1.000  C
  C886     1.0000 0.74365  0.98893  0.26830  Biso   1.000  C
  C887     1.0000 0.80558  0.75583  0.96567  Biso   1.000  C
  C888     1.0000 0.50389  0.75714  0.19050  Biso   1.000  C
  C889     1.0000 0.76574  0.95658  0.30492  Biso   1.000  C
  C890     1.0000 0.30997  0.75546  0.97819  Biso   1.000  C
  C891     1.0000 0.99403  0.29179  0.75152  Biso   1.000  C
  C892     1.0000 0.23573  0.99178  0.22355  Biso   1.000  C
  C893     1.0000 0.80472  0.75948  0.51188  Biso   1.000  C
  C894     1.0000 0.48501  0.25394  0.77902  Biso   1.000  C
  C895     1.0000 0.79657  0.50078  0.25154  Biso   1.000  C
  C896     1.0000 0.23398  0.22564  0.01649  Biso   1.000  C
  C897     1.0000 0.50777  0.75673  0.69630  Biso   1.000  C
  C898     1.0000 0.29344  0.51374  0.23378  Biso   1.000  C
  C899     1.0000 0.73458  0.22562  0.52822  Biso   1.000  C
  C900     1.0000 0.99336  0.75786  0.77254  Biso   1.000  C
  C901     1.0000 0.24250  0.98497  0.69666  Biso   1.000  C
  C902     1.0000 0.70570  0.24448  0.00884  Biso   1.000  C
  C903     1.0000 0.02411  0.71223  0.24439  Biso   1.000  C
  C904     1.0000 0.74460  0.01364  0.80014  Biso   1.000  C
  C905     1.0000 0.20465  0.24819  0.51781  Biso   1.000  C
  C906     1.0000 0.51984  0.72264  0.22809  Biso   1.000  C
  C907     1.0000 0.22600  0.47126  0.73545  Biso   1.000  C
  C908     1.0000 0.78081  0.77275  0.00820  Biso   1.000  C
  C909     1.0000 0.48978  0.25429  0.28828  Biso   1.000  C
  C910     1.0000 0.75660  0.52198  0.78668  Biso   1.000  C
  C911     1.0000 0.30792  0.75166  0.44836  Biso   1.000  C
  C912     1.0000 0.96038  0.23500  0.21662  Biso   1.000  C
  C913     1.0000 0.77189  0.51381  0.73834  Biso   1.000  C
  C914     1.0000 0.75818  0.77774  0.49666  Biso   1.000  C
  C915     1.0000 0.48335  0.73130  0.73868  Biso   1.000  C
  C916     1.0000 0.27266  0.49136  0.75378  Biso   1.000  C
  C917     1.0000 0.26346  0.77249  0.99807  Biso   1.000  C
  C918     1.0000 0.00919  0.74541  0.72387  Biso   1.000  C
  C919     1.0000 0.72269  0.99447  0.75625  Biso   1.000  C
  C920     1.0000 0.75228  0.27200  0.51583  Biso   1.000  C
  C921     1.0000 0.00568  0.24075  0.76633  Biso   1.000  C
  C922     1.0000 0.22472  0.01214  0.73898  Biso   1.000  C
  C923     1.0000 0.25032  0.27531  0.00519  Biso   1.000  C
  C924     1.0000 0.50322  0.23248  0.73506  Biso   1.000  C
  C925     1.0000 0.24640  0.49460  0.25551  Biso   1.000  C
  C926     1.0000 0.25007  0.23352  0.49377  Biso   1.000  C
  C927     1.0000 0.49823  0.27300  0.23791  Biso   1.000  C
  C928     1.0000 0.74884  0.51632  0.23668  Biso   1.000  C
  C929     1.0000 0.75123  0.22483  0.02654  Biso   1.000  C
  C930     1.0000 0.97920  0.25589  0.26209  Biso   1.000  C
  C931     1.0000 0.28506  0.00729  0.23888  Biso   1.000  C
  C932     1.0000 0.25890  0.73457  0.45791  Biso   1.000  C
  C933     1.0000 0.03993  0.76077  0.22507  Biso   1.000  C
  C934     1.0000 0.78818  0.96476  0.25698  Biso   1.000  C
  C935     1.0000 0.76063  0.73185  0.98227  Biso   1.000  C
  C936     1.0000 0.51035  0.77298  0.24193  Biso   1.000  C
  C937     1.0000 0.72950  0.24819  0.02665  Biso   1.000  C
  C938     1.0000 0.03947  0.73851  0.24854  Biso   1.000  C
  C939     1.0000 0.24699  0.00842  0.71605  Biso   1.000  C
  C940     1.0000 0.22749  0.25469  0.49891  Biso   1.000  C
  C941     1.0000 0.51074  0.75043  0.21898  Biso   1.000  C
  C942     1.0000 0.74471  0.99269  0.77954  Biso   1.000  C
  C943     1.0000 0.78235  0.75431  0.98443  Biso   1.000  C
  C944     1.0000 0.50091  0.25084  0.25990  Biso   1.000  C
  C945     1.0000 0.24952  0.48977  0.73143  Biso   1.000  C
  C946     1.0000 0.27909  0.75758  0.45495  Biso   1.000  C
  C947     1.0000 0.98016  0.23514  0.23750  Biso   1.000  C
  C948     1.0000 0.75015  0.51138  0.75983  Biso   1.000  C
  C949     1.0000 0.28739  0.75174  0.99884  Biso   1.000  C
  C950     1.0000 0.00671  0.26510  0.74454  Biso   1.000  C
  C951     1.0000 0.76520  0.96979  0.27733  Biso   1.000  C
  C952     1.0000 0.78140  0.75638  0.49368  Biso   1.000  C
  C953     1.0000 0.50662  0.25401  0.75747  Biso   1.000  C
  C954     1.0000 0.26113  0.00747  0.21778  Biso   1.000  C
  C955     1.0000 0.22915  0.25200  0.00397  Biso   1.000  C
  C956     1.0000 0.48535  0.75541  0.71749  Biso   1.000  C
  C957     1.0000 0.77229  0.51613  0.25829  Biso   1.000  C
  C958     1.0000 0.72875  0.25176  0.51633  Biso   1.000  C
  C959     1.0000 0.00360  0.76603  0.74470  Biso   1.000  C
  C960     1.0000 0.26927  0.49464  0.23116  Biso   1.000  C
  Cu1      1.0000 0.00735  0.50106  0.65393  Biso   1.000  Cu
  Cu2      1.0000 0.65659  0.00911  0.51086  Biso   1.000  Cu
  Cu3      1.0000 0.51889  0.65591  0.98233  Biso   1.000  Cu
  Cu4      1.0000 0.51479  0.49503  0.84300  Biso   1.000  Cu
  Cu5      1.0000 0.15887  0.00887  0.98233  Biso   1.000  Cu
  Cu6      1.0000 0.01733  0.65955  0.48813  Biso   1.000  Cu
  Cu7      1.0000 0.48943  0.99644  0.64390  Biso   1.000  Cu
  Cu8      1.0000 0.85401  0.51637  0.49646  Biso   1.000  Cu
  Cu9      1.0000 0.99323  0.15428  0.00101  Biso   1.000  Cu
  Cu10     1.0000 0.99085  0.00240  0.84686  Biso   1.000  Cu
  Cu11     1.0000 0.35806  0.50770  0.99188  Biso   1.000  Cu
  Cu12     1.0000 0.49185  0.16031  0.49647  Biso   1.000  Cu
  Cu13     1.0000 0.00924  0.49746  0.34270  Biso   1.000  Cu
  Cu14     1.0000 0.34854  0.99884  0.47954  Biso   1.000  Cu
  Cu15     1.0000 0.49533  0.34373  0.99512  Biso   1.000  Cu
  Cu16     1.0000 0.50799  0.50919  0.14397  Biso   1.000  Cu
  Cu17     1.0000 0.85053  0.99430  0.00799  Biso   1.000  Cu
  Cu18     1.0000 0.99464  0.34991  0.50049  Biso   1.000  Cu
  Cu19     1.0000 0.52173  0.01217  0.33610  Biso   1.000  Cu
  Cu20     1.0000 0.16321  0.49632  0.49741  Biso   1.000  Cu
  Cu21     1.0000 0.01898  0.84354  0.98307  Biso   1.000  Cu
  Cu22     1.0000 0.01840  0.00078  0.14776  Biso   1.000  Cu
  Cu23     1.0000 0.66428  0.49451  0.99463  Biso   1.000  Cu
  Cu24     1.0000 0.51478  0.85176  0.48469  Biso   1.000  Cu
  Cu25     1.0000 0.21124  0.01198  0.97676  Biso   1.000  Cu
  Cu26     1.0000 0.99227  0.20903  0.00160  Biso   1.000  Cu
  Cu27     1.0000 0.02225  0.99628  0.20021  Biso   1.000  Cu
  Cu28     1.0000 0.70993  0.01588  0.51494  Biso   1.000  Cu
  Cu29     1.0000 0.48902  0.21288  0.49876  Biso   1.000  Cu
  Cu30     1.0000 0.52515  0.01366  0.28251  Biso   1.000  Cu
  Cu31     1.0000 0.30476  0.51174  0.99170  Biso   1.000  Cu
  Cu32     1.0000 0.52501  0.70978  0.97966  Biso   1.000  Cu
  Cu33     1.0000 0.50891  0.51151  0.19810  Biso   1.000  Cu
  Cu34     1.0000 0.80147  0.52011  0.49592  Biso   1.000  Cu
  Cu35     1.0000 0.02462  0.71364  0.48869  Biso   1.000  Cu
  Cu36     1.0000 0.01026  0.49900  0.28883  Biso   1.000  Cu
  Cu37     1.0000 0.79580  0.98925  0.01399  Biso   1.000  Cu
  Cu38     1.0000 0.02093  0.78966  0.98191  Biso   1.000  Cu
  Cu39     1.0000 0.98751  0.00407  0.79221  Biso   1.000  Cu
  Cu40     1.0000 0.29491  0.99240  0.47591  Biso   1.000  Cu
  Cu41     1.0000 0.51608  0.79847  0.48098  Biso   1.000  Cu
  Cu42     1.0000 0.48511  0.99063  0.69783  Biso   1.000  Cu
  Cu43     1.0000 0.72045  0.49140  0.99590  Biso   1.000  Cu
  Cu44     1.0000 0.49179  0.29120  0.99964  Biso   1.000  Cu
  Cu45     1.0000 0.51548  0.49357  0.78625  Biso   1.000  Cu
  Cu46     1.0000 0.21619  0.49265  0.49536  Biso   1.000  Cu
  Cu47     1.0000 0.98793  0.29465  0.50055  Biso   1.000  Cu
  Cu48     1.0000 0.00807  0.50432  0.70690  Biso   1.000  Cu
  H1       1.0000 0.24926  0.78632  0.47761  Biso   1.000  H
  H2       1.0000 0.54458  0.27512  0.74096  Biso   1.000  H
  H3       1.0000 0.75165  0.54615  0.28628  Biso   1.000  H
  H4       1.0000 0.80594  0.73974  0.94763  Biso   1.000  H
  H5       1.0000 0.03223  0.24225  0.71294  Biso   1.000  H
  H6       1.0000 0.24785  0.46252  0.20408  Biso   1.000  H
  H7       1.0000 0.24707  0.28434  0.46616  Biso   1.000  H
  H8       1.0000 0.02451  0.80091  0.71737  Biso   1.000  H
  H9       1.0000 0.74496  0.99666  0.24661  Biso   1.000  H
  H10      1.0000 0.74964  0.27364  0.05927  Biso   1.000  H
  H11      1.0000 0.44250  0.77299  0.73025  Biso   1.000  H
  H12      1.0000 0.28936  0.03267  0.18706  Biso   1.000  H
  H13      1.0000 0.69968  0.27931  0.49168  Biso   1.000  H
  H14      1.0000 0.50496  0.78037  0.18428  Biso   1.000  H
  H15      1.0000 0.27129  0.52224  0.70410  Biso   1.000  H
  H16      1.0000 0.19764  0.28086  0.98540  Biso   1.000  H
  H17      1.0000 0.06634  0.76407  0.28019  Biso   1.000  H
  H18      1.0000 0.71901  0.49287  0.72918  Biso   1.000  H
  H19      1.0000 0.75904  0.73581  0.45978  Biso   1.000  H
  H20      1.0000 0.01661  0.21182  0.25879  Biso   1.000  H
  H21      1.0000 0.27209  0.04880  0.72879  Biso   1.000  H
  H22      1.0000 0.26571  0.72008  0.03121  Biso   1.000  H
  H23      1.0000 0.52731  0.22953  0.22938  Biso   1.000  H
  H24      1.0000 0.76482  0.95049  0.76600  Biso   1.000  H
  H25      1.0000 0.25214  0.03675  0.76824  Biso   1.000  H
  H26      1.0000 0.78500  0.25204  0.04737  Biso   1.000  H
  H27      1.0000 0.00460  0.73976  0.20151  Biso   1.000  H
  H28      1.0000 0.75097  0.97543  0.72810  Biso   1.000  H
  H29      1.0000 0.22388  0.21062  0.46317  Biso   1.000  H
  H30      1.0000 0.53677  0.80520  0.21600  Biso   1.000  H
  H31      1.0000 0.30376  0.50546  0.72291  Biso   1.000  H
  H32      1.0000 0.74269  0.74752  0.94226  Biso   1.000  H
  H33      1.0000 0.45611  0.25949  0.22080  Biso   1.000  H
  H34      1.0000 0.74763  0.54632  0.71737  Biso   1.000  H
  H35      1.0000 0.22595  0.75839  0.43518  Biso   1.000  H
  H36      1.0000 0.99842  0.22920  0.29619  Biso   1.000  H
  H37      1.0000 0.76055  0.93839  0.23087  Biso   1.000  H
  H38      1.0000 0.28692  0.80579  0.97327  Biso   1.000  H
  H39      1.0000 0.96875  0.25865  0.78740  Biso   1.000  H
  H40      1.0000 0.27423  0.96377  0.25492  Biso   1.000  H
  H41      1.0000 0.73216  0.74888  0.51965  Biso   1.000  H
  H42      1.0000 0.48033  0.19966  0.76320  Biso   1.000  H
  H43      1.0000 0.71340  0.49857  0.26318  Biso   1.000  H
  H44      1.0000 0.22695  0.30564  0.97657  Biso   1.000  H
  H45      1.0000 0.50713  0.69982  0.71087  Biso   1.000  H
  H46      1.0000 0.22169  0.45407  0.24160  Biso   1.000  H
  H47      1.0000 0.72795  0.30154  0.54350  Biso   1.000  H
  H48      1.0000 0.05275  0.75879  0.71240  Biso   1.000  H
  H49      1.0000 0.26432  0.53326  0.27734  Biso   1.000  H
  H50      1.0000 0.27885  0.25284  0.52465  Biso   1.000  H
  H51      1.0000 0.53674  0.29342  0.25438  Biso   1.000  H
  H52      1.0000 0.77938  0.52892  0.20008  Biso   1.000  H
  H53      1.0000 0.72607  0.19089  0.00490  Biso   1.000  H
  H54      1.0000 0.96168  0.28748  0.23182  Biso   1.000  H
  H55      1.0000 0.30412  0.04943  0.22599  Biso   1.000  H
  H56      1.0000 0.29016  0.70995  0.48331  Biso   1.000  H
  H57      1.0000 0.07519  0.78997  0.24326  Biso   1.000  H
  H58      1.0000 0.81866  0.99003  0.28306  Biso   1.000  H
  H59      1.0000 0.77498  0.70835  0.01936  Biso   1.000  H
  H60      1.0000 0.48203  0.75045  0.27098  Biso   1.000  H
  H61      1.0000 0.79484  0.47734  0.75453  Biso   1.000  H
  H62      1.0000 0.78193  0.81004  0.47216  Biso   1.000  H
  H63      1.0000 0.45425  0.75301  0.76857  Biso   1.000  H
  H64      1.0000 0.24576  0.47450  0.78826  Biso   1.000  H
  H65      1.0000 0.23508  0.74640  0.02388  Biso   1.000  H
  H66      1.0000 0.96442  0.73098  0.72480  Biso   1.000  H
  H67      1.0000 0.68754  0.01220  0.78346  Biso   1.000  H
  H68      1.0000 0.77824  0.24442  0.48805  Biso   1.000  H
  H69      1.0000 0.04431  0.22157  0.75071  Biso   1.000  H
  H70      1.0000 0.18925  0.99193  0.71759  Biso   1.000  H
  H71      1.0000 0.27753  0.25340  0.03771  Biso   1.000  H
  H72      1.0000 0.52361  0.26004  0.70130  Biso   1.000  H
  H73      1.0000 0.77907  0.53336  0.79080  Biso   1.000  H
  H74      1.0000 0.80675  0.77760  0.52739  Biso   1.000  H
  H75      1.0000 0.52694  0.74422  0.70144  Biso   1.000  H
  H76      1.0000 0.22357  0.45833  0.75573  Biso   1.000  H
  H77      1.0000 0.31368  0.77380  0.96217  Biso   1.000  H
  H78      1.0000 0.98470  0.73624  0.77458  Biso   1.000  H
  H79      1.0000 0.72741  0.03179  0.80188  Biso   1.000  H
  H80      1.0000 0.75591  0.22134  0.53947  Biso   1.000  H
  H81      1.0000 0.99110  0.29575  0.77402  Biso   1.000  H
  H82      1.0000 0.22371  0.96929  0.69908  Biso   1.000  H
  H83      1.0000 0.25318  0.21961  0.02918  Biso   1.000  H
  H84      1.0000 0.46930  0.23656  0.77965  Biso   1.000  H
  H85      1.0000 0.29713  0.52537  0.25353  Biso   1.000  H
  H86      1.0000 0.20411  0.22844  0.53059  Biso   1.000  H
  H87      1.0000 0.47609  0.27259  0.29269  Biso   1.000  H
  H88      1.0000 0.79607  0.48647  0.23217  Biso   1.000  H
  H89      1.0000 0.70010  0.22565  0.99650  Biso   1.000  H
  H90      1.0000 0.94386  0.24958  0.21440  Biso   1.000  H
  H91      1.0000 0.23049  0.98123  0.24334  Biso   1.000  H
  H92      1.0000 0.31279  0.73128  0.43821  Biso   1.000  H
  H93      1.0000 0.00896  0.70861  0.22618  Biso   1.000  H
  H94      1.0000 0.78303  0.94073  0.30936  Biso   1.000  H
  H95      1.0000 0.76283  0.76994  0.02314  Biso   1.000  H
  H96      1.0000 0.52489  0.71935  0.25094  Biso   1.000  H
  H97      1.0000 0.85933  0.99867  0.91849  Biso   1.000  H
  H98      1.0000 0.92917  0.86308  0.99331  Biso   1.000  H
  H99      1.0000 0.00154  0.90604  0.86045  Biso   1.000  H
  H100     1.0000 0.36103  0.98403  0.57847  Biso   1.000  H
  H101     1.0000 0.42213  0.86864  0.48877  Biso   1.000  H
  H102     1.0000 0.48959  0.90527  0.61856  Biso   1.000  H
  H103     1.0000 0.64669  0.49294  0.90711  Biso   1.000  H
  H104     1.0000 0.58881  0.36126  0.99833  Biso   1.000  H
  H105     1.0000 0.52282  0.40234  0.86268  Biso   1.000  H
  H106     1.0000 0.13944  0.49773  0.58862  Biso   1.000  H
  H107     1.0000 0.08383  0.36325  0.50758  Biso   1.000  H
  H108     1.0000 0.00543  0.41044  0.63591  Biso   1.000  H
  H109     1.0000 0.14806  0.01846  0.07421  Biso   1.000  H
  H110     1.0000 0.08337  0.13948  0.99513  Biso   1.000  H
  H111     1.0000 0.99592  0.08835  0.13428  Biso   1.000  H
  H112     1.0000 0.64700  0.99852  0.41277  Biso   1.000  H
  H113     1.0000 0.58454  0.13832  0.50943  Biso   1.000  H
  H114     1.0000 0.51246  0.10150  0.36300  Biso   1.000  H
  H115     1.0000 0.37491  0.50093  0.08352  Biso   1.000  H
  H116     1.0000 0.43092  0.64291  0.99445  Biso   1.000  H
  H117     1.0000 0.49632  0.60136  0.11870  Biso   1.000  H
  H118     1.0000 0.87836  0.51619  0.40467  Biso   1.000  H
  H119     1.0000 0.92780  0.64852  0.48721  Biso   1.000  H
  H120     1.0000 0.02163  0.59232  0.35965  Biso   1.000  H
  H121     1.0000 0.08805  0.00436  0.85942  Biso   1.000  H
  H122     1.0000 0.86605  0.08661  0.00883  Biso   1.000  H
  H123     1.0000 0.02928  0.86225  0.07395  Biso   1.000  H
  H124     1.0000 0.58561  0.00205  0.63157  Biso   1.000  H
  H125     1.0000 0.36298  0.09065  0.46389  Biso   1.000  H
  H126     1.0000 0.51699  0.87668  0.39458  Biso   1.000  H
  H127     1.0000 0.42429  0.49023  0.85899  Biso   1.000  H
  H128     1.0000 0.64797  0.58429  0.98438  Biso   1.000  H
  H129     1.0000 0.49661  0.37249  0.08573  Biso   1.000  H
  H130     1.0000 0.91607  0.51511  0.62950  Biso   1.000  H
  H131     1.0000 0.14908  0.59345  0.49751  Biso   1.000  H
  H132     1.0000 0.98940  0.36526  0.40658  Biso   1.000  H
  H133     1.0000 0.92032  0.98538  0.13591  Biso   1.000  H
  H134     1.0000 0.14760  0.91417  0.98712  Biso   1.000  H
  H135     1.0000 0.98606  0.13614  0.91477  Biso   1.000  H
  H136     1.0000 0.42888  0.00822  0.35239  Biso   1.000  H
  H137     1.0000 0.64299  0.91484  0.51029  Biso   1.000  H
  H138     1.0000 0.48121  0.13220  0.58623  Biso   1.000  H
  H139     1.0000 0.60403  0.52075  0.12564  Biso   1.000  H
  H140     1.0000 0.36817  0.41411  0.98896  Biso   1.000  H
  H141     1.0000 0.51499  0.63192  0.88774  Biso   1.000  H
  H142     1.0000 0.09706  0.48897  0.36512  Biso   1.000  H
  H143     1.0000 0.86544  0.41951  0.50282  Biso   1.000  H
  H144     1.0000 0.01927  0.63789  0.57907  Biso   1.000  H
  H145     1.0000 0.60201  0.50860  0.86313  Biso   1.000  H
  H146     1.0000 0.88392  0.60784  0.48389  Biso   1.000  H
  H147     1.0000 0.50060  0.86900  0.57305  Biso   1.000  H
  H148     1.0000 0.09737  0.49879  0.63082  Biso   1.000  H
  H149     1.0000 0.38386  0.59802  0.99384  Biso   1.000  H
  H150     1.0000 0.01030  0.86930  0.89614  Biso   1.000  H
  H151     1.0000 0.90177  0.00152  0.87190  Biso   1.000  H
  H152     1.0000 0.62537  0.10344  0.49476  Biso   1.000  H
  H153     1.0000 0.99774  0.37080  0.59604  Biso   1.000  H
  H154     1.0000 0.39656  0.98304  0.62285  Biso   1.000  H
  H155     1.0000 0.12912  0.09750  0.98945  Biso   1.000  H
  H156     1.0000 0.50669  0.36091  0.90652  Biso   1.000  H
  H157     1.0000 0.41926  0.50367  0.12712  Biso   1.000  H
  H158     1.0000 0.13288  0.40619  0.50041  Biso   1.000  H
  H159     1.0000 0.51534  0.14246  0.40612  Biso   1.000  H
  H160     1.0000 0.92358  0.51104  0.36207  Biso   1.000  H
  H161     1.0000 0.63254  0.40455  0.00594  Biso   1.000  H
  H162     1.0000 0.98291  0.13070  0.09340  Biso   1.000  H
  H163     1.0000 0.11375  0.01332  0.12106  Biso   1.000  H
  H164     1.0000 0.37583  0.90775  0.48992  Biso   1.000  H
  H165     1.0000 0.02623  0.63564  0.40068  Biso   1.000  H
  H166     1.0000 0.60918  0.00758  0.36333  Biso   1.000  H
  H167     1.0000 0.88094  0.90407  0.00959  Biso   1.000  H
  H168     1.0000 0.51745  0.63805  0.07728  Biso   1.000  H
  H169     1.0000 0.99035  0.09140  0.87039  Biso   1.000  H
  H170     1.0000 0.87806  0.98170  0.10043  Biso   1.000  H
  H171     1.0000 0.10507  0.86829  0.98734  Biso   1.000  H
  H172     1.0000 0.48968  0.08678  0.62523  Biso   1.000  H
  H173     1.0000 0.38047  0.99605  0.39197  Biso   1.000  H
  H174     1.0000 0.60427  0.87156  0.50733  Biso   1.000  H
  H175     1.0000 0.51752  0.59016  0.85016  Biso   1.000  H
  H176     1.0000 0.64610  0.51533  0.08939  Biso   1.000  H
  H177     1.0000 0.40729  0.36892  0.99313  Biso   1.000  H
  H178     1.0000 0.01448  0.59208  0.62550  Biso   1.000  H
  H179     1.0000 0.14374  0.49222  0.40464  Biso   1.000  H
  H180     1.0000 0.90418  0.37960  0.50495  Biso   1.000  H
  H181     1.0000 0.03239  0.90626  0.11528  Biso   1.000  H
  H182     1.0000 0.13470  0.98908  0.89209  Biso   1.000  H
  H183     1.0000 0.90377  0.13385  0.00716  Biso   1.000  H
  H184     1.0000 0.52942  0.92212  0.35021  Biso   1.000  H
  H185     1.0000 0.62630  0.01514  0.59974  Biso   1.000  H
  H186     1.0000 0.40348  0.13588  0.46739  Biso   1.000  H
  H187     1.0000 0.51621  0.41888  0.12506  Biso   1.000  H
  H188     1.0000 0.38295  0.49354  0.89841  Biso   1.000  H
  H189     1.0000 0.61025  0.62509  0.98026  Biso   1.000  H
  H190     1.0000 0.99103  0.40866  0.36441  Biso   1.000  H
  H191     1.0000 0.87564  0.51965  0.58994  Biso   1.000  H
  H192     1.0000 0.11063  0.63334  0.50012  Biso   1.000  H
  H193     1.0000 0.28649  0.85064  0.45615  Biso   1.000  H
  H194     1.0000 0.49862  0.26314  0.85500  Biso   1.000  H
  H195     1.0000 0.86733  0.53064  0.26762  Biso   1.000  H
  H196     1.0000 0.79264  0.83853  0.99857  Biso   1.000  H
  H197     1.0000 0.99118  0.27370  0.64859  Biso   1.000  H
  H198     1.0000 0.36147  0.49786  0.22169  Biso   1.000  H
  H199     1.0000 0.22208  0.34385  0.51022  Biso   1.000  H
  H200     1.0000 0.02481  0.77465  0.83688  Biso   1.000  H
  H201     1.0000 0.66906  0.97509  0.27802  Biso   1.000  H
  H202     1.0000 0.72815  0.34923  0.01894  Biso   1.000  H
  H203     1.0000 0.49738  0.76840  0.61877  Biso   1.000  H
  H204     1.0000 0.17024  0.01629  0.21279  Biso   1.000  H
  H205     1.0000 0.71959  0.15916  0.49839  Biso   1.000  H
  H206     1.0000 0.53439  0.73801  0.12356  Biso   1.000  H
  H207     1.0000 0.15049  0.49210  0.72880  Biso   1.000  H
  H208     1.0000 0.22275  0.15851  0.98561  Biso   1.000  H
  H209     1.0000 0.02754  0.73118  0.34362  Biso   1.000  H
  H210     1.0000 0.65965  0.52689  0.77162  Biso   1.000  H
  H211     1.0000 0.79110  0.66543  0.48208  Biso   1.000  H
  H212     1.0000 0.97301  0.22508  0.14763  Biso   1.000  H
  H213     1.0000 0.33852  0.00263  0.71246  Biso   1.000  H
  H214     1.0000 0.28899  0.65508  0.99066  Biso   1.000  H
  H215     1.0000 0.51008  0.24280  0.35249  Biso   1.000  H
  H216     1.0000 0.83896  0.00082  0.78199  Biso   1.000  H
  H217     1.0000 0.23870  0.50048  0.34783  Biso   1.000  H
  H218     1.0000 0.34590  0.22798  0.48774  Biso   1.000  H
  H219     1.0000 0.50532  0.36981  0.22660  Biso   1.000  H
  H220     1.0000 0.74008  0.49892  0.14252  Biso   1.000  H
  H221     1.0000 0.84170  0.22459  0.00440  Biso   1.000  H
  H222     1.0000 0.99629  0.35318  0.26911  Biso   1.000  H
  H223     1.0000 0.29083  0.00044  0.32991  Biso   1.000  H
  H224     1.0000 0.16388  0.72678  0.47854  Biso   1.000  H
  H225     1.0000 0.04619  0.85632  0.21025  Biso   1.000  H
  H226     1.0000 0.78665  0.97546  0.16019  Biso   1.000  H
  H227     1.0000 0.66519  0.72340  0.97061  Biso   1.000  H
  H228     1.0000 0.51772  0.86782  0.25378  Biso   1.000  H
  H229     1.0000 0.77691  0.52462  0.64328  Biso   1.000  H
  H230     1.0000 0.66124  0.78056  0.48746  Biso   1.000  H
  H231     1.0000 0.49131  0.63396  0.75272  Biso   1.000  H
  H232     1.0000 0.28722  0.51233  0.84861  Biso   1.000  H
  H233     1.0000 0.16586  0.77369  0.98689  Biso   1.000  H
  H234     1.0000 0.00934  0.64881  0.71923  Biso   1.000  H
  H235     1.0000 0.71995  0.01088  0.66047  Biso   1.000  H
  H236     1.0000 0.84933  0.28320  0.51026  Biso   1.000  H
  H237     1.0000 0.99463  0.14613  0.77400  Biso   1.000  H
  H238     1.0000 0.22403  0.00850  0.83032  Biso   1.000  H
  H239     1.0000 0.34329  0.27901  0.00117  Biso   1.000  H
  H240     1.0000 0.50942  0.13902  0.71891  Biso   1.000  H
  H241     1.0000 0.74174  0.49264  0.85227  Biso   1.000  H
  H242     1.0000 0.87827  0.74760  0.49396  Biso   1.000  H
  H243     1.0000 0.46800  0.84417  0.70767  Biso   1.000  H
  H244     1.0000 0.23716  0.49267  0.64177  Biso   1.000  H
  H245     1.0000 0.37936  0.73968  0.98559  Biso   1.000  H
  H246     1.0000 0.98862  0.86008  0.76175  Biso   1.000  H
  H247     1.0000 0.76211  0.99764  0.86880  Biso   1.000  H
  H248     1.0000 0.63320  0.24080  0.51615  Biso   1.000  H
  H249     1.0000 0.02126  0.35642  0.73027  Biso   1.000  H
  H250     1.0000 0.25968  0.00259  0.61800  Biso   1.000  H
  H251     1.0000 0.13292  0.23496  0.00699  Biso   1.000  H
  H252     1.0000 0.52167  0.34441  0.77054  Biso   1.000  H
  H253     1.0000 0.27732  0.50099  0.13212  Biso   1.000  H
  H254     1.0000 0.13243  0.26541  0.50599  Biso   1.000  H
  H255     1.0000 0.51325  0.15834  0.26957  Biso   1.000  H
  H256     1.0000 0.78321  0.50882  0.34965  Biso   1.000  H
  H257     1.0000 0.63388  0.26393  0.01855  Biso   1.000  H
  H258     1.0000 0.98514  0.13905  0.23195  Biso   1.000  H
  H259     1.0000 0.24773  0.00650  0.11797  Biso   1.000  H
  H260     1.0000 0.37407  0.76650  0.47685  Biso   1.000  H
  H261     1.0000 0.03879  0.64022  0.26074  Biso   1.000  H
  H262     1.0000 0.74710  0.98021  0.37169  Biso   1.000  H
  H263     1.0000 0.87879  0.76381  0.98638  Biso   1.000  H
  H264     1.0000 0.49446  0.65626  0.21364  Biso   1.000  H
  H265     1.0000 0.00288  0.22845  0.85673  Biso   1.000  H
  H266     1.0000 0.88240  0.96482  0.23839  Biso   1.000  H
  H267     1.0000 0.24671  0.86952  0.99788  Biso   1.000  H
  H268     1.0000 0.47565  0.22764  0.64104  Biso   1.000  H
  H269     1.0000 0.37976  0.02468  0.25642  Biso   1.000  H
  H270     1.0000 0.74183  0.86731  0.51223  Biso   1.000  H
  H271     1.0000 0.49994  0.72613  0.83144  Biso   1.000  H
  H272     1.0000 0.65065  0.52318  0.22636  Biso   1.000  H
  H273     1.0000 0.26826  0.37151  0.00729  Biso   1.000  H
  H274     1.0000 0.02751  0.73391  0.63056  Biso   1.000  H
  H275     1.0000 0.15140  0.49247  0.26761  Biso   1.000  H
  H276     1.0000 0.76441  0.37474  0.50919  Biso   1.000  H
  H277     1.0000 0.03465  0.76727  0.12771  Biso   1.000  H
  H278     1.0000 0.12842  0.02097  0.75770  Biso   1.000  H
  H279     1.0000 0.77052  0.13407  0.03252  Biso   1.000  H
  H280     1.0000 0.52068  0.78107  0.33693  Biso   1.000  H
  H281     1.0000 0.62536  0.98067  0.73335  Biso   1.000  H
  H282     1.0000 0.26266  0.13565  0.47969  Biso   1.000  H
  H283     1.0000 0.48848  0.28063  0.14664  Biso   1.000  H
  H284     1.0000 0.37388  0.47304  0.76468  Biso   1.000  H
  H285     1.0000 0.74869  0.63234  0.98366  Biso   1.000  H
  H286     1.0000 0.97192  0.26909  0.35823  Biso   1.000  H
  H287     1.0000 0.86225  0.51264  0.72573  Biso   1.000  H
  H288     1.0000 0.24924  0.63793  0.47385  Biso   1.000  H
  H289     1.0000 0.07815  0.23358  0.00766  Biso   1.000  H
  H290     1.0000 0.99906  0.08409  0.23065  Biso   1.000  H
  H291     1.0000 0.24277  0.01239  0.06549  Biso   1.000  H
  H292     1.0000 0.57678  0.23394  0.51689  Biso   1.000  H
  H293     1.0000 0.51194  0.10173  0.26857  Biso   1.000  H
  H294     1.0000 0.74178  0.98711  0.42369  Biso   1.000  H
  H295     1.0000 0.43268  0.74088  0.98284  Biso   1.000  H
  H296     1.0000 0.48787  0.60428  0.21190  Biso   1.000  H
  H297     1.0000 0.28100  0.50282  0.07909  Biso   1.000  H
  H298     1.0000 0.93513  0.74287  0.50121  Biso   1.000  H
  H299     1.0000 0.03518  0.58657  0.26442  Biso   1.000  H
  H300     1.0000 0.78224  0.50570  0.40584  Biso   1.000  H
  H301     1.0000 0.93563  0.76647  0.98730  Biso   1.000  H
  H302     1.0000 0.97803  0.91175  0.76605  Biso   1.000  H
  H303     1.0000 0.76572  0.99660  0.92373  Biso   1.000  H
  H304     1.0000 0.42632  0.77172  0.49080  Biso   1.000  H
  H305     1.0000 0.45632  0.89933  0.70907  Biso   1.000  H
  H306     1.0000 0.27082  0.00751  0.56181  Biso   1.000  H
  H307     1.0000 0.58272  0.26822  0.01558  Biso   1.000  H
  H308     1.0000 0.52385  0.40378  0.76770  Biso   1.000  H
  H309     1.0000 0.73960  0.47900  0.90509  Biso   1.000  H
  H310     1.0000 0.07895  0.26817  0.51186  Biso   1.000  H
  H311     1.0000 0.01899  0.41285  0.72936  Biso   1.000  H
  H312     1.0000 0.23761  0.49798  0.58964  Biso   1.000  H
  H313     1.0000 0.22810  0.99762  0.88431  Biso   1.000  H
  H314     1.0000 0.89733  0.22973  0.99604  Biso   1.000  H
  H315     1.0000 0.04586  0.90894  0.21084  Biso   1.000  H
  H316     1.0000 0.72201  0.01950  0.60778  Biso   1.000  H
  H317     1.0000 0.40129  0.23167  0.47965  Biso   1.000  H
  H318     1.0000 0.52140  0.92419  0.25668  Biso   1.000  H
  H319     1.0000 0.28864  0.51699  0.90167  Biso   1.000  H
  H320     1.0000 0.60987  0.72184  0.97340  Biso   1.000  H
  H321     1.0000 0.51868  0.42416  0.22078  Biso   1.000  H
  H322     1.0000 0.77773  0.52657  0.58928  Biso   1.000  H
  H323     1.0000 0.10925  0.72630  0.48411  Biso   1.000  H
  H324     1.0000 0.99312  0.40834  0.26733  Biso   1.000  H
  H325     1.0000 0.78366  0.97948  0.10568  Biso   1.000  H
  H326     1.0000 0.11303  0.77167  0.98327  Biso   1.000  H
  H327     1.0000 0.98596  0.09522  0.77430  Biso   1.000  H
  H328     1.0000 0.28596  0.98451  0.38264  Biso   1.000  H
  H329     1.0000 0.60960  0.77762  0.48239  Biso   1.000  H
  H330     1.0000 0.51157  0.08507  0.71902  Biso   1.000  H
  H331     1.0000 0.73702  0.49159  0.08720  Biso   1.000  H
  H332     1.0000 0.40044  0.27434  0.99894  Biso   1.000  H
  H333     1.0000 0.49843  0.58204  0.75574  Biso   1.000  H
  H334     1.0000 0.23907  0.50295  0.40722  Biso   1.000  H
  H335     1.0000 0.90238  0.28539  0.51065  Biso   1.000  H
  H336     1.0000 0.00455  0.59654  0.71981  Biso   1.000  H
  H337     1.0000 0.99956  0.22983  0.91229  Biso   1.000  H
  H338     1.0000 0.93477  0.97470  0.23032  Biso   1.000  H
  H339     1.0000 0.24115  0.92406  0.99152  Biso   1.000  H
  H340     1.0000 0.46852  0.22544  0.58863  Biso   1.000  H
  H341     1.0000 0.43485  0.02824  0.25820  Biso   1.000  H
  H342     1.0000 0.74152  0.92435  0.51673  Biso   1.000  H
  H343     1.0000 0.51192  0.72669  0.88755  Biso   1.000  H
  H344     1.0000 0.60148  0.52498  0.22095  Biso   1.000  H
  H345     1.0000 0.27388  0.42645  0.00302  Biso   1.000  H
  H346     1.0000 0.03118  0.73289  0.57860  Biso   1.000  H
  H347     1.0000 0.09767  0.48908  0.27083  Biso   1.000  H
  H348     1.0000 0.77096  0.42983  0.50515  Biso   1.000  H
  H349     1.0000 0.02479  0.76884  0.07234  Biso   1.000  H
  H350     1.0000 0.07529  0.01833  0.76536  Biso   1.000  H
  H351     1.0000 0.77498  0.07904  0.03642  Biso   1.000  H
  H352     1.0000 0.51737  0.77931  0.39286  Biso   1.000  H
  H353     1.0000 0.57142  0.97433  0.72285  Biso   1.000  H
  H354     1.0000 0.26732  0.08214  0.48148  Biso   1.000  H
  H355     1.0000 0.48285  0.27842  0.09106  Biso   1.000  H
  H356     1.0000 0.42586  0.47321  0.76394  Biso   1.000  H
  H357     1.0000 0.74491  0.57671  0.99499  Biso   1.000  H
  H358     1.0000 0.97625  0.26864  0.41079  Biso   1.000  H
  H359     1.0000 0.91609  0.51365  0.72577  Biso   1.000  H
  H360     1.0000 0.24497  0.58287  0.48504  Biso   1.000  H
  H361     1.0000 0.02565  0.73054  0.39788  Biso   1.000  H
  H362     1.0000 0.39323  0.99951  0.71444  Biso   1.000  H
  H363     1.0000 0.72826  0.39869  0.01154  Biso   1.000  H
  H364     1.0000 0.54564  0.73098  0.07043  Biso   1.000  H
  H365     1.0000 0.89306  0.00607  0.77753  Biso   1.000  H
  H366     1.0000 0.22708  0.39875  0.50685  Biso   1.000  H
  H367     1.0000 0.51285  0.24099  0.40718  Biso   1.000  H
  H368     1.0000 0.09489  0.49664  0.72727  Biso   1.000  H
  H369     1.0000 0.78485  0.89478  0.00426  Biso   1.000  H
  H370     1.0000 0.97445  0.22774  0.09532  Biso   1.000  H
  H371     1.0000 0.60514  0.52076  0.76838  Biso   1.000  H
  H372     1.0000 0.28367  0.90517  0.46223  Biso   1.000  H
  H373     1.0000 0.98807  0.27705  0.59382  Biso   1.000  H
  H374     1.0000 0.61623  0.98213  0.27192  Biso   1.000  H
  H375     1.0000 0.28992  0.60096  0.99136  Biso   1.000  H
  H376     1.0000 0.49805  0.26606  0.90898  Biso   1.000  H
  H377     1.0000 0.11440  0.01677  0.21372  Biso   1.000  H
  H378     1.0000 0.78760  0.61509  0.47530  Biso   1.000  H
  H379     1.0000 0.51020  0.77275  0.56687  Biso   1.000  H
  H380     1.0000 0.92060  0.52412  0.26784  Biso   1.000  H
  H381     1.0000 0.22454  0.10455  0.97884  Biso   1.000  H
  H382     1.0000 0.03796  0.77689  0.89208  Biso   1.000  H
  H383     1.0000 0.41624  0.50379  0.22134  Biso   1.000  H
  H384     1.0000 0.72149  0.10583  0.49400  Biso   1.000  H
  H385     1.0000 0.18956  0.45375  0.27642  Biso   1.000  H
  H386     1.0000 0.25955  0.17414  0.45409  Biso   1.000  H
  H387     1.0000 0.45555  0.29587  0.18116  Biso   1.000  H
  H388     1.0000 0.67920  0.49588  0.22961  Biso   1.000  H
  H389     1.0000 0.82233  0.21753  0.04546  Biso   1.000  H
  H390     1.0000 0.00718  0.27160  0.32688  Biso   1.000  H
  H391     1.0000 0.30872  0.96928  0.29770  Biso   1.000  H
  H392     1.0000 0.18954  0.72438  0.44828  Biso   1.000  H
  H393     1.0000 0.00605  0.77081  0.16118  Biso   1.000  H
  H394     1.0000 0.79517  0.94025  0.18753  Biso   1.000  H
  H395     1.0000 0.70573  0.71163  0.93913  Biso   1.000  H
  H396     1.0000 0.53901  0.83967  0.25390  Biso   1.000  H
  H397     1.0000 0.78164  0.55183  0.67629  Biso   1.000  H
  H398     1.0000 0.69079  0.77724  0.52450  Biso   1.000  H
  H399     1.0000 0.51763  0.66755  0.74782  Biso   1.000  H
  H400     1.0000 0.34342  0.51099  0.75850  Biso   1.000  H
  H401     1.0000 0.25189  0.84105  0.97152  Biso   1.000  H
  H402     1.0000 0.06182  0.71716  0.67965  Biso   1.000  H
  H403     1.0000 0.71815  0.97808  0.68561  Biso   1.000  H
  H404     1.0000 0.76208  0.34078  0.54031  Biso   1.000  H
  H405     1.0000 0.96506  0.22044  0.82387  Biso   1.000  H
  H406     1.0000 0.21987  0.04192  0.80460  Biso   1.000  H
  H407     1.0000 0.26954  0.33589  0.96736  Biso   1.000  H
  H408     1.0000 0.47424  0.16490  0.72654  Biso   1.000  H
  H409     1.0000 0.33333  0.52916  0.21645  Biso   1.000  H
  H410     1.0000 0.16845  0.26672  0.54034  Biso   1.000  H
  H411     1.0000 0.48040  0.23357  0.32744  Biso   1.000  H
  H412     1.0000 0.83895  0.48669  0.26664  Biso   1.000  H
  H413     1.0000 0.66776  0.26251  0.99207  Biso   1.000  H
  H414     1.0000 0.94373  0.21638  0.17795  Biso   1.000  H
  H415     1.0000 0.19368  0.98423  0.20889  Biso   1.000  H
  H416     1.0000 0.35092  0.76837  0.44220  Biso   1.000  H
  H417     1.0000 0.01163  0.67122  0.25911  Biso   1.000  H
  H418     1.0000 0.74832  0.94877  0.34642  Biso   1.000  H
  H419     1.0000 0.80369  0.80823  0.03028  Biso   1.000  H
  H420     1.0000 0.53047  0.67938  0.21624  Biso   1.000  H
  H421     1.0000 0.74167  0.53738  0.82752  Biso   1.000  H
  H422     1.0000 0.84500  0.74125  0.52549  Biso   1.000  H
  H423     1.0000 0.52707  0.77845  0.65865  Biso   1.000  H
  H424     1.0000 0.18383  0.46087  0.72228  Biso   1.000  H
  H425     1.0000 0.34812  0.73536  0.95939  Biso   1.000  H
  H426     1.0000 0.98610  0.77375  0.81715  Biso   1.000  H
  H427     1.0000 0.76510  0.03512  0.83513  Biso   1.000  H
  H428     1.0000 0.71882  0.18274  0.53393  Biso   1.000  H
  H429     1.0000 0.98178  0.33251  0.73777  Biso   1.000  H
  H430     1.0000 0.26136  0.96430  0.65770  Biso   1.000  H
  H431     1.0000 0.21682  0.18408  0.03127  Biso   1.000  H
  H432     1.0000 0.46891  0.27689  0.81754  Biso   1.000  H
  H433     1.0000 0.30882  0.03908  0.69484  Biso   1.000  H
  H434     1.0000 0.71791  0.31705  0.05449  Biso   1.000  H
  H435     1.0000 0.06123  0.72610  0.31680  Biso   1.000  H
  H436     1.0000 0.80638  0.95493  0.79561  Biso   1.000  H
  H437     1.0000 0.21102  0.31969  0.47095  Biso   1.000  H
  H438     1.0000 0.50007  0.74046  0.14850  Biso   1.000  H
  H439     1.0000 0.23352  0.52841  0.67270  Biso   1.000  H
  H440     1.0000 0.84565  0.77304  0.95262  Biso   1.000  H
  H441     1.0000 0.53830  0.18889  0.26786  Biso   1.000  H
  H442     1.0000 0.68105  0.49089  0.76683  Biso   1.000  H
  H443     1.0000 0.28320  0.82406  0.48752  Biso   1.000  H
  H444     1.0000 0.01335  0.17288  0.22650  Biso   1.000  H
  H445     1.0000 0.70219  0.00563  0.28152  Biso   1.000  H
  H446     1.0000 0.30229  0.68481  0.02643  Biso   1.000  H
  H447     1.0000 0.02845  0.27710  0.67554  Biso   1.000  H
  H448     1.0000 0.25144  0.03906  0.15209  Biso   1.000  H
  H449     1.0000 0.79605  0.69851  0.45314  Biso   1.000  H
  H450     1.0000 0.55073  0.30720  0.78158  Biso   1.000  H
  H451     1.0000 0.78652  0.54538  0.32271  Biso   1.000  H
  H452     1.0000 0.16087  0.24151  0.97917  Biso   1.000  H
  H453     1.0000 0.43950  0.80696  0.69198  Biso   1.000  H
  H454     1.0000 0.28039  0.46565  0.16459  Biso   1.000  H
  H455     1.0000 0.66289  0.24171  0.48523  Biso   1.000  H
  H456     1.0000 0.02517  0.83571  0.75660  Biso   1.000  H
  H457     1.0000 0.74006  0.84389  0.46824  Biso   1.000  H
  H458     1.0000 0.46544  0.72098  0.80875  Biso   1.000  H
  H459     1.0000 0.83149  0.47593  0.71592  Biso   1.000  H
  H460     1.0000 0.19331  0.77981  0.01785  Biso   1.000  H
  H461     1.0000 0.97093  0.68623  0.69581  Biso   1.000  H
  H462     1.0000 0.28381  0.47213  0.82380  Biso   1.000  H
  H463     1.0000 0.81644  0.28327  0.48139  Biso   1.000  H
  H464     1.0000 0.04184  0.17693  0.78475  Biso   1.000  H
  H465     1.0000 0.65189  0.00947  0.74598  Biso   1.000  H
  H466     1.0000 0.31424  0.28969  0.03731  Biso   1.000  H
  H467     1.0000 0.51753  0.22545  0.66508  Biso   1.000  H
  H468     1.0000 0.15465  0.98746  0.75361  Biso   1.000  H
  H469     1.0000 0.31728  0.21958  0.51762  Biso   1.000  H
  H470     1.0000 0.53522  0.33200  0.21872  Biso   1.000  H
  H471     1.0000 0.22711  0.53376  0.31709  Biso   1.000  H
  H472     1.0000 0.76640  0.16164  0.99390  Biso   1.000  H
  H473     1.0000 0.96130  0.32495  0.26605  Biso   1.000  H
  H474     1.0000 0.73894  0.53698  0.16694  Biso   1.000  H
  H475     1.0000 0.25318  0.67112  0.49929  Biso   1.000  H
  H476     1.0000 0.07297  0.82368  0.20767  Biso   1.000  H
  H477     1.0000 0.33885  0.05228  0.26442  Biso   1.000  H
  H478     1.0000 0.73956  0.66788  0.01651  Biso   1.000  H
  H479     1.0000 0.48633  0.78384  0.31117  Biso   1.000  H
  H480     1.0000 0.85205  0.99664  0.24234  Biso   1.000  H
  N1       1.0000 0.66821  0.18812  0.50673  Biso   1.000  N
  N2       1.0000 0.51470  0.68684  0.15976  Biso   1.000  N
  N3       1.0000 0.18302  0.49373  0.67382  Biso   1.000  N
  N4       1.0000 0.16839  0.18523  0.00089  Biso   1.000  N
  N5       1.0000 0.03431  0.67669  0.31317  Biso   1.000  N
  N6       1.0000 0.68973  0.50957  0.82262  Biso   1.000  N
  N7       1.0000 0.84435  0.69603  0.48724  Biso   1.000  N
  N8       1.0000 0.98267  0.17051  0.17834  Biso   1.000  N
  N9       1.0000 0.31029  0.99719  0.65709  Biso   1.000  N
  N10      1.0000 0.34674  0.68675  0.98946  Biso   1.000  N
  N11      1.0000 0.51313  0.18861  0.32115  Biso   1.000  N
  N12      1.0000 0.81218  0.99883  0.83514  Biso   1.000  N
  N13      1.0000 0.34037  0.82055  0.46810  Biso   1.000  N
  N14      1.0000 0.51048  0.31561  0.82227  Biso   1.000  N
  N15      1.0000 0.83667  0.51441  0.31845  Biso   1.000  N
  N16      1.0000 0.84604  0.81312  0.99608  Biso   1.000  N
  N17      1.0000 0.00286  0.32686  0.67988  Biso   1.000  N
  N18      1.0000 0.32954  0.49883  0.16752  Biso   1.000  N
  N19      1.0000 0.16785  0.31761  0.50584  Biso   1.000  N
  N20      1.0000 0.00397  0.82732  0.81053  Biso   1.000  N
  N21      1.0000 0.69689  0.98445  0.33319  Biso   1.000  N
  N22      1.0000 0.67252  0.31588  0.01609  Biso   1.000  N
  N23      1.0000 0.48695  0.81948  0.65528  Biso   1.000  N
  N24      1.0000 0.19751  0.01176  0.15627  Biso   1.000  N
  N25      1.0000 0.83170  0.51693  0.67333  Biso   1.000  N
  N26      1.0000 0.69057  0.83417  0.50410  Biso   1.000  N
  N27      1.0000 0.49737  0.67101  0.80397  Biso   1.000  N
  N28      1.0000 0.33786  0.49176  0.81666  Biso   1.000  N
  N29      1.0000 0.19736  0.83179  0.99051  Biso   1.000  N
  N30      1.0000 0.01809  0.68106  0.66390  Biso   1.000  N
  N31      1.0000 0.66351  0.99970  0.68672  Biso   1.000  N
  N32      1.0000 0.81561  0.33833  0.50797  Biso   1.000  N
  N33      1.0000 0.00149  0.17676  0.82680  Biso   1.000  N
  N34      1.0000 0.16641  0.01170  0.80638  Biso   1.000  N
  N35      1.0000 0.31712  0.33452  0.99939  Biso   1.000  N
  N36      1.0000 0.49025  0.17144  0.67099  Biso   1.000  N
  N37      1.0000 0.18425  0.49701  0.31945  Biso   1.000  N
  N38      1.0000 0.31439  0.17357  0.47896  Biso   1.000  N
  N39      1.0000 0.49645  0.33574  0.17524  Biso   1.000  N
  N40      1.0000 0.68715  0.51476  0.17195  Biso   1.000  N
  N41      1.0000 0.81722  0.16813  0.01494  Biso   1.000  N
  N42      1.0000 0.98329  0.32193  0.32272  Biso   1.000  N
  N43      1.0000 0.34511  0.00888  0.30453  Biso   1.000  N
  N44      1.0000 0.19725  0.67496  0.48125  Biso   1.000  N
  N45      1.0000 0.03989  0.82128  0.15732  Biso   1.000  N
  N46      1.0000 0.84237  0.97271  0.18782  Biso   1.000  N
  N47      1.0000 0.69776  0.66769  0.97781  Biso   1.000  N
  N48      1.0000 0.51785  0.83444  0.30710  Biso   1.000  N
  O1       1.0000 0.36106  0.54882  0.99088  Biso   1.000  O
  O2       1.0000 0.99308  0.34943  0.54414  Biso   1.000  O
  O3       1.0000 0.56405  0.00696  0.33609  Biso   1.000  O
  O4       1.0000 0.85915  0.55919  0.49483  Biso   1.000  O
  O5       1.0000 0.50417  0.34067  0.95382  Biso   1.000  O
  O6       1.0000 0.06278  0.00947  0.14399  Biso   1.000  O
  O7       1.0000 0.15464  0.05127  0.97812  Biso   1.000  O
  O8       1.0000 0.51640  0.84779  0.52609  Biso   1.000  O
  O9       1.0000 0.96902  0.50481  0.33797  Biso   1.000  O
  O10      1.0000 0.65412  0.05064  0.50122  Biso   1.000  O
  O11      1.0000 0.02051  0.84432  0.94228  Biso   1.000  O
  O12      1.0000 0.46607  0.50563  0.14969  Biso   1.000  O
  O13      1.0000 0.66147  0.45360  0.99729  Biso   1.000  O
  O14      1.0000 0.01927  0.66080  0.44695  Biso   1.000  O
  O15      1.0000 0.44432  0.99486  0.64222  Biso   1.000  O
  O16      1.0000 0.16459  0.45488  0.49924  Biso   1.000  O
  O17      1.0000 0.52178  0.66044  0.02457  Biso   1.000  O
  O18      1.0000 0.94851  0.99898  0.84792  Biso   1.000  O
  O19      1.0000 0.85254  0.95213  0.00681  Biso   1.000  O
  O20      1.0000 0.50311  0.16716  0.45438  Biso   1.000  O
  O21      1.0000 0.04798  0.49873  0.65564  Biso   1.000  O
  O22      1.0000 0.35032  0.95581  0.48349  Biso   1.000  O
  O23      1.0000 0.98821  0.15480  0.04398  Biso   1.000  O
  O24      1.0000 0.55397  0.50854  0.83824  Biso   1.000  O
  O25      1.0000 0.97771  0.99298  0.15494  Biso   1.000  O
  O26      1.0000 0.16752  0.96750  0.98768  Biso   1.000  O
  O27      1.0000 0.99378  0.15903  0.96142  Biso   1.000  O
  O28      1.0000 0.47870  0.01472  0.33210  Biso   1.000  O
  O29      1.0000 0.66298  0.96598  0.51278  Biso   1.000  O
  O30      1.0000 0.48422  0.15848  0.53700  Biso   1.000  O
  O31      1.0000 0.55424  0.51561  0.14785  Biso   1.000  O
  O32      1.0000 0.34897  0.46753  0.98817  Biso   1.000  O
  O33      1.0000 0.51724  0.65813  0.93873  Biso   1.000  O
  O34      1.0000 0.05183  0.48854  0.34239  Biso   1.000  O
  O35      1.0000 0.84769  0.47240  0.49535  Biso   1.000  O
  O36      1.0000 0.01838  0.66331  0.53063  Biso   1.000  O
  O37      1.0000 0.03131  0.00605  0.84046  Biso   1.000  O
  O38      1.0000 0.84419  0.03444  0.01381  Biso   1.000  O
  O39      1.0000 0.01805  0.84073  0.02466  Biso   1.000  O
  O40      1.0000 0.53024  0.99750  0.64937  Biso   1.000  O
  O41      1.0000 0.34463  0.04040  0.47865  Biso   1.000  O
  O42      1.0000 0.51659  0.85264  0.44178  Biso   1.000  O
  O43      1.0000 0.47441  0.48495  0.83680  Biso   1.000  O
  O44      1.0000 0.66977  0.53526  0.98880  Biso   1.000  O
  O45      1.0000 0.49064  0.34762  0.03690  Biso   1.000  O
  O46      1.0000 0.96606  0.50424  0.65514  Biso   1.000  O
  O47      1.0000 0.16645  0.54106  0.49687  Biso   1.000  O
  O48      1.0000 0.99233  0.34431  0.45762  Biso   1.000  O
  O49      1.0000 0.02801  0.96018  0.14225  Biso   1.000  O
  O50      1.0000 0.15892  0.99940  0.94115  Biso   1.000  O
  O51      1.0000 0.95212  0.16100  0.99759  Biso   1.000  O
  O52      1.0000 0.51875  0.96958  0.32927  Biso   1.000  O
  O53      1.0000 0.65490  0.01537  0.55156  Biso   1.000  O
  O54      1.0000 0.45106  0.16282  0.48674  Biso   1.000  O
  O55      1.0000 0.51680  0.46723  0.14668  Biso   1.000  O
  O56      1.0000 0.35939  0.50486  0.95026  Biso   1.000  O
  O57      1.0000 0.56112  0.65189  0.97787  Biso   1.000  O
  O58      1.0000 0.00298  0.45681  0.33948  Biso   1.000  O
  O59      1.0000 0.85011  0.51641  0.53943  Biso   1.000  O
  O60      1.0000 0.06016  0.65493  0.48969  Biso   1.000  O
  O61      1.0000 0.98625  0.04262  0.84335  Biso   1.000  O
  O62      1.0000 0.85070  0.99023  0.04963  Biso   1.000  O
  O63      1.0000 0.06016  0.84236  0.98161  Biso   1.000  O
  O64      1.0000 0.48900  0.03829  0.64647  Biso   1.000  O
  O65      1.0000 0.35192  0.99060  0.43754  Biso   1.000  O
  O66      1.0000 0.55580  0.85049  0.48885  Biso   1.000  O
  O67      1.0000 0.50252  0.53668  0.83332  Biso   1.000  O
  O68      1.0000 0.66670  0.49988  0.03793  Biso   1.000  O
  O69      1.0000 0.45371  0.34485  0.98719  Biso   1.000  O
  O70      1.0000 0.00764  0.54275  0.64988  Biso   1.000  O
  O71      1.0000 0.16810  0.49426  0.45582  Biso   1.000  O
  O72      1.0000 0.95225  0.35239  0.49750  Biso   1.000  O
  O73      1.0000 0.00355  0.46029  0.65931  Biso   1.000  O
  O74      1.0000 0.66424  0.00635  0.46678  Biso   1.000  O
  O75      1.0000 0.47953  0.66457  0.98639  Biso   1.000  O
  O76      1.0000 0.52097  0.45321  0.83900  Biso   1.000  O
  O77      1.0000 0.16564  0.01523  0.02365  Biso   1.000  O
  O78      1.0000 0.97748  0.66760  0.48752  Biso   1.000  O
  O79      1.0000 0.48483  0.95411  0.64568  Biso   1.000  O
  O80      1.0000 0.85400  0.51656  0.45459  Biso   1.000  O
  O81      1.0000 0.03467  0.15790  0.00220  Biso   1.000  O
  O82      1.0000 0.99473  0.95965  0.83998  Biso   1.000  O
  O83      1.0000 0.35335  0.50958  0.03413  Biso   1.000  O
  O84      1.0000 0.53358  0.16203  0.50311  Biso   1.000  O
  O85      1.0000 0.01747  0.54013  0.33711  Biso   1.000  O
  O86      1.0000 0.33990  0.00254  0.52162  Biso   1.000  O
  O87      1.0000 0.53667  0.34173  0.00409  Biso   1.000  O
  O88      1.0000 0.50405  0.55340  0.14534  Biso   1.000  O
  O89      1.0000 0.84081  0.99877  0.96662  Biso   1.000  O
  O90      1.0000 0.03282  0.34103  0.50345  Biso   1.000  O
  O91      1.0000 0.51984  0.05303  0.33866  Biso   1.000  O
  O92      1.0000 0.16420  0.49836  0.54038  Biso   1.000  O
  O93      1.0000 0.97596  0.84157  0.98041  Biso   1.000  O
  O94      1.0000 0.00982  0.03995  0.15583  Biso   1.000  O
  O95      1.0000 0.67000  0.48764  0.95427  Biso   1.000  O
  O96      1.0000 0.47238  0.84671  0.48738  Biso   1.000  O
  O97      1.0000 0.44837  0.21123  0.48608  Biso   1.000  O
  O98      1.0000 0.51456  0.46895  0.19479  Biso   1.000  O
  O99      1.0000 0.21607  0.49418  0.45544  Biso   1.000  O
  O100     1.0000 0.94788  0.20897  0.99889  Biso   1.000  O
  O101     1.0000 0.99716  0.45808  0.29228  Biso   1.000  O
  O102     1.0000 0.71528  0.49318  0.03896  Biso   1.000  O
  O103     1.0000 0.06238  0.70360  0.48883  Biso   1.000  O
  O104     1.0000 0.02766  0.95352  0.19126  Biso   1.000  O
  O105     1.0000 0.30324  0.99245  0.43270  Biso   1.000  O
  O106     1.0000 0.56478  0.70216  0.97222  Biso   1.000  O
  O107     1.0000 0.52321  0.97158  0.28041  Biso   1.000  O
  O108     1.0000 0.80180  0.98602  0.05446  Biso   1.000  O
  O109     1.0000 0.55726  0.80304  0.47966  Biso   1.000  O
  O110     1.0000 0.51097  0.53381  0.78577  Biso   1.000  O
  O111     1.0000 0.80288  0.52492  0.53599  Biso   1.000  O
  O112     1.0000 0.06151  0.79461  0.98431  Biso   1.000  O
  O113     1.0000 0.01440  0.54683  0.69795  Biso   1.000  O
  O114     1.0000 0.31206  0.51321  0.95123  Biso   1.000  O
  O115     1.0000 0.94617  0.30425  0.50018  Biso   1.000  O
  O116     1.0000 0.98192  0.04545  0.79608  Biso   1.000  O
  O117     1.0000 0.70218  0.02326  0.55403  Biso   1.000  O
  O118     1.0000 0.44994  0.29683  0.99156  Biso   1.000  O
  O119     1.0000 0.49172  0.03183  0.69591  Biso   1.000  O
  O120     1.0000 0.20709  0.00949  0.93574  Biso   1.000  O
  O121     1.0000 0.04919  0.50064  0.70411  Biso   1.000  O
  O122     1.0000 0.70290  0.05722  0.50410  Biso   1.000  O
  O123     1.0000 0.53183  0.70756  0.02140  Biso   1.000  O
  O124     1.0000 0.55637  0.50413  0.78946  Biso   1.000  O
  O125     1.0000 0.20358  0.05439  0.97480  Biso   1.000  O
  O126     1.0000 0.02163  0.70966  0.44715  Biso   1.000  O
  O127     1.0000 0.44471  0.99770  0.69144  Biso   1.000  O
  O128     1.0000 0.81092  0.56074  0.49235  Biso   1.000  O
  O129     1.0000 0.98917  0.20293  0.04386  Biso   1.000  O
  O130     1.0000 0.94639  0.99628  0.79961  Biso   1.000  O
  O131     1.0000 0.31179  0.55267  0.99447  Biso   1.000  O
  O132     1.0000 0.49871  0.21420  0.45624  Biso   1.000  O
  O133     1.0000 0.96846  0.50713  0.29040  Biso   1.000  O
  O134     1.0000 0.30295  0.95257  0.47522  Biso   1.000  O
  O135     1.0000 0.49566  0.29238  0.95840  Biso   1.000  O
  O136     1.0000 0.46625  0.50912  0.19773  Biso   1.000  O
  O137     1.0000 0.80434  0.94589  0.01214  Biso   1.000  O
  O138     1.0000 0.98676  0.29916  0.54449  Biso   1.000  O
  O139     1.0000 0.56946  0.00536  0.28693  Biso   1.000  O
  O140     1.0000 0.21208  0.44874  0.49902  Biso   1.000  O
  O141     1.0000 0.02146  0.79426  0.94232  Biso   1.000  O
  O142     1.0000 0.06391  0.00166  0.19263  Biso   1.000  O
  O143     1.0000 0.71005  0.44974  0.99578  Biso   1.000  O
  O144     1.0000 0.51658  0.79910  0.52465  Biso   1.000  O
  O145     1.0000 0.55056  0.51893  0.19542  Biso   1.000  O
  O146     1.0000 0.21605  0.53687  0.49407  Biso   1.000  O
  O147     1.0000 0.47603  0.20694  0.53924  Biso   1.000  O
  O148     1.0000 0.05150  0.48987  0.29207  Biso   1.000  O
  O149     1.0000 0.71887  0.53350  0.99396  Biso   1.000  O
  O150     1.0000 0.99602  0.20878  0.95943  Biso   1.000  O
  O151     1.0000 0.98098  0.98648  0.20314  Biso   1.000  O
  O152     1.0000 0.29656  0.03431  0.47283  Biso   1.000  O
  O153     1.0000 0.02377  0.71063  0.52929  Biso   1.000  O
  O154     1.0000 0.48204  0.01659  0.28348  Biso   1.000  O
  O155     1.0000 0.79530  0.03209  0.01697  Biso   1.000  O
  O156     1.0000 0.51833  0.70592  0.93703  Biso   1.000  O
  O157     1.0000 0.47380  0.48554  0.78890  Biso   1.000  O
  O158     1.0000 0.79974  0.47913  0.49973  Biso   1.000  O
  O159     1.0000 0.51422  0.80428  0.44103  Biso   1.000  O
  O160     1.0000 0.96482  0.50981  0.70283  Biso   1.000  O
  O161     1.0000 0.29984  0.47086  0.98895  Biso   1.000  O
  O162     1.0000 0.01887  0.79123  0.02422  Biso   1.000  O
  O163     1.0000 0.02831  0.00958  0.79286  Biso   1.000  O
  O164     1.0000 0.71039  0.97176  0.52221  Biso   1.000  O
  O165     1.0000 0.98984  0.29527  0.45959  Biso   1.000  O
  O166     1.0000 0.52703  0.98717  0.69765  Biso   1.000  O
  O167     1.0000 0.21589  0.97213  0.98009  Biso   1.000  O
  O168     1.0000 0.48210  0.29938  0.03980  Biso   1.000  O
  O169     1.0000 0.01307  0.03679  0.20518  Biso   1.000  O
  O170     1.0000 0.21393  0.01090  0.01956  Biso   1.000  O
  O171     1.0000 0.03275  0.20799  0.00105  Biso   1.000  O
  O172     1.0000 0.52939  0.05664  0.29066  Biso   1.000  O
  O173     1.0000 0.71308  0.00764  0.47154  Biso   1.000  O
  O174     1.0000 0.53148  0.21094  0.50836  Biso   1.000  O
  O175     1.0000 0.50264  0.55400  0.19210  Biso   1.000  O
  O176     1.0000 0.30554  0.50969  0.03392  Biso   1.000  O
  O177     1.0000 0.48387  0.71286  0.98877  Biso   1.000  O
  O178     1.0000 0.01933  0.53981  0.28963  Biso   1.000  O
  O179     1.0000 0.80470  0.51792  0.45322  Biso   1.000  O
  O180     1.0000 0.98349  0.71749  0.49175  Biso   1.000  O
  O181     1.0000 0.99274  0.96242  0.79108  Biso   1.000  O
  O182     1.0000 0.79295  0.99527  0.97294  Biso   1.000  O
  O183     1.0000 0.97846  0.79256  0.98240  Biso   1.000  O
  O184     1.0000 0.47465  0.95083  0.69401  Biso   1.000  O
  O185     1.0000 0.29223  0.98906  0.51788  Biso   1.000  O
  O186     1.0000 0.47421  0.79836  0.47945  Biso   1.000  O
  O187     1.0000 0.52463  0.45203  0.79050  Biso   1.000  O
  O188     1.0000 0.71722  0.49003  0.95544  Biso   1.000  O
  O189     1.0000 0.53487  0.29380  0.00302  Biso   1.000  O
  O190     1.0000 0.00582  0.45933  0.70842  Biso   1.000  O
  O191     1.0000 0.21196  0.49481  0.53710  Biso   1.000  O
  O192     1.0000 0.03049  0.29190  0.50702  Biso   1.000  O
