data_image0
_cell_length_a       46.5488
_cell_length_b       46.6202
_cell_length_c       46.6283
_cell_angle_alpha    90
_cell_angle_beta     90
_cell_angle_gamma    90

_symmetry_space_group_name_H-M    "P 1"
_symmetry_int_tables_number       1

loop_
  _symmetry_equiv_pos_as_xyz
  'x, y, z'

loop_
  _atom_site_label
  _atom_site_occupancy
  _atom_site_fract_x
  _atom_site_fract_y
  _atom_site_fract_z
  _atom_site_thermal_displace_type
  _atom_site_B_iso_or_equiv
  _atom_site_type_symbol
  C1       1.0000 0.57600  0.98343  0.33712  Biso   1.000  C
  C2       1.0000 0.33635  0.55238  0.01748  Biso   1.000  C
  C3       1.0000 0.02577  0.31015  0.56517  Biso   1.000  C
  C4       1.0000 0.07450  0.00117  0.19858  Biso   1.000  C
  C5       1.0000 0.82771  0.52556  0.52871  Biso   1.000  C
  C6       1.0000 0.51523  0.31067  0.96435  Biso   1.000  C
  C7       1.0000 0.95187  0.50238  0.33933  Biso   1.000  C
  C8       1.0000 0.19937  0.05452  0.00972  Biso   1.000  C
  C9       1.0000 0.49533  0.80594  0.57493  Biso   1.000  C
  C10      1.0000 0.45193  0.49890  0.19412  Biso   1.000  C
  C11      1.0000 0.70227  0.03007  0.52083  Biso   1.000  C
  C12      1.0000 0.02415  0.81125  0.97296  Biso   1.000  C
  C13      1.0000 0.45357  0.98339  0.69695  Biso   1.000  C
  C14      1.0000 0.69586  0.43488  0.03204  Biso   1.000  C
  C15      1.0000 0.00198  0.67590  0.47187  Biso   1.000  C
  C16      1.0000 0.95427  0.98169  0.84002  Biso   1.000  C
  C17      1.0000 0.20182  0.45012  0.50571  Biso   1.000  C
  C18      1.0000 0.51760  0.67303  0.07421  Biso   1.000  C
  C19      1.0000 0.06829  0.48773  0.69888  Biso   1.000  C
  C20      1.0000 0.83934  0.93885  0.00797  Biso   1.000  C
  C21      1.0000 0.52924  0.16597  0.46816  Biso   1.000  C
  C22      1.0000 0.57164  0.48026  0.84474  Biso   1.000  C
  C23      1.0000 0.33513  0.94768  0.52154  Biso   1.000  C
  C24      1.0000 0.01265  0.17591  0.06266  Biso   1.000  C
  C25      1.0000 0.33942  0.05527  0.50777  Biso   1.000  C
  C26      1.0000 0.51676  0.30978  0.07180  Biso   1.000  C
  C27      1.0000 0.06130  0.48964  0.33673  Biso   1.000  C
  C28      1.0000 0.83815  0.04387  0.03319  Biso   1.000  C
  C29      1.0000 0.03069  0.31584  0.45661  Biso   1.000  C
  C30      1.0000 0.55870  0.47874  0.19857  Biso   1.000  C
  C31      1.0000 0.19157  0.55736  0.52226  Biso   1.000  C
  C32      1.0000 0.01930  0.81512  0.08110  Biso   1.000  C
  C33      1.0000 0.46487  0.98643  0.33551  Biso   1.000  C
  C34      1.0000 0.69243  0.54289  0.02630  Biso   1.000  C
  C35      1.0000 0.50561  0.80451  0.46511  Biso   1.000  C
  C36      1.0000 0.96599  0.99250  0.19810  Biso   1.000  C
  C37      1.0000 0.69346  0.91969  0.51925  Biso   1.000  C
  C38      1.0000 0.52286  0.67579  0.96647  Biso   1.000  C
  C39      1.0000 0.95936  0.47062  0.70714  Biso   1.000  C
  C40      1.0000 0.19484  0.94819  0.01898  Biso   1.000  C
  C41      1.0000 0.99703  0.66521  0.58089  Biso   1.000  C
  C42      1.0000 0.46306  0.49934  0.83681  Biso   1.000  C
  C43      1.0000 0.83474  0.41927  0.51920  Biso   1.000  C
  C44      1.0000 0.02421  0.17284  0.95659  Biso   1.000  C
  C45      1.0000 0.56372  0.99196  0.69705  Biso   1.000  C
  C46      1.0000 0.33572  0.44326  0.01412  Biso   1.000  C
  C47      1.0000 0.52560  0.16589  0.57707  Biso   1.000  C
  C48      1.0000 0.06243  0.98287  0.83488  Biso   1.000  C
  C49      1.0000 0.01218  0.03497  0.83358  Biso   1.000  C
  C50      1.0000 0.84162  0.97452  0.07142  Biso   1.000  C
  C51      1.0000 0.07568  0.81672  0.03780  Biso   1.000  C
  C52      1.0000 0.50518  0.04277  0.69915  Biso   1.000  C
  C53      1.0000 0.33772  0.99609  0.46142  Biso   1.000  C
  C54      1.0000 0.55475  0.80178  0.52278  Biso   1.000  C
  C55      1.0000 0.52472  0.54486  0.84420  Biso   1.000  C
  C56      1.0000 0.69787  0.48769  0.08363  Biso   1.000  C
  C57      1.0000 0.46050  0.31126  0.01794  Biso   1.000  C
  C58      1.0000 0.00497  0.53494  0.70738  Biso   1.000  C
  C59      1.0000 0.19138  0.51544  0.46601  Biso   1.000  C
  C60      1.0000 0.97571  0.31067  0.51038  Biso   1.000  C
  C61      1.0000 0.02146  0.94708  0.20118  Biso   1.000  C
  C62      1.0000 0.19448  0.00079  0.95818  Biso   1.000  C
  C63      1.0000 0.96117  0.16827  0.00440  Biso   1.000  C
  C64      1.0000 0.52058  0.93289  0.34290  Biso   1.000  C
  C65      1.0000 0.69355  0.98145  0.57405  Biso   1.000  C
  C66      1.0000 0.47428  0.17054  0.51798  Biso   1.000  C
  C67      1.0000 0.49945  0.43290  0.19610  Biso   1.000  C
  C68      1.0000 0.33882  0.49735  0.96151  Biso   1.000  C
  C69      1.0000 0.57387  0.67553  0.02428  Biso   1.000  C
  C70      1.0000 0.99991  0.44419  0.33393  Biso   1.000  C
  C71      1.0000 0.83407  0.46914  0.58163  Biso   1.000  C
  C72      1.0000 0.05269  0.67509  0.53003  Biso   1.000  C
  C73      1.0000 0.01279  0.55244  0.34231  Biso   1.000  C
  C74      1.0000 0.32926  0.00873  0.56958  Biso   1.000  C
  C75      1.0000 0.56901  0.30835  0.01105  Biso   1.000  C
  C76      1.0000 0.51633  0.54110  0.19666  Biso   1.000  C
  C77      1.0000 0.83571  0.00461  0.96937  Biso   1.000  C
  C78      1.0000 0.08487  0.31770  0.51215  Biso   1.000  C
  C79      1.0000 0.52360  0.04161  0.33714  Biso   1.000  C
  C80      1.0000 0.20113  0.49542  0.57088  Biso   1.000  C
  C81      1.0000 0.96711  0.81000  0.02212  Biso   1.000  C
  C82      1.0000 0.01363  0.05430  0.19643  Biso   1.000  C
  C83      1.0000 0.69806  0.48874  0.97384  Biso   1.000  C
  C84      1.0000 0.44582  0.81086  0.51319  Biso   1.000  C
  C85      1.0000 0.01977  0.42897  0.70032  Biso   1.000  C
  C86      1.0000 0.69816  0.97187  0.46425  Biso   1.000  C
  C87      1.0000 0.46330  0.67771  0.01642  Biso   1.000  C
  C88      1.0000 0.50975  0.43506  0.84093  Biso   1.000  C
  C89      1.0000 0.19452  0.00730  0.06711  Biso   1.000  C
  C90      1.0000 0.94367  0.66476  0.52172  Biso   1.000  C
  C91      1.0000 0.51541  0.93262  0.69606  Biso   1.000  C
  C92      1.0000 0.83230  0.48125  0.47493  Biso   1.000  C
  C93      1.0000 0.07117  0.17519  0.01536  Biso   1.000  C
  C94      1.0000 0.01135  0.92923  0.83975  Biso   1.000  C
  C95      1.0000 0.33335  0.49807  0.06840  Biso   1.000  C
  C96      1.0000 0.58235  0.16384  0.51977  Biso   1.000  C
  C97      1.0000 0.70327  0.06314  0.51935  Biso   1.000  C
  C98      1.0000 0.51584  0.67139  0.10581  Biso   1.000  C
  C99      1.0000 0.09949  0.48583  0.69740  Biso   1.000  C
  C100     1.0000 0.19891  0.08652  0.01543  Biso   1.000  C
  C101     1.0000 0.00615  0.67784  0.43937  Biso   1.000  C
  C102     1.0000 0.60254  0.47642  0.84590  Biso   1.000  C
  C103     1.0000 0.82883  0.55649  0.52158  Biso   1.000  C
  C104     1.0000 0.00666  0.17773  0.09438  Biso   1.000  C
  C105     1.0000 0.42227  0.99236  0.69632  Biso   1.000  C
  C106     1.0000 0.33560  0.58573  0.01864  Biso   1.000  C
  C107     1.0000 0.53127  0.16691  0.43596  Biso   1.000  C
  C108     1.0000 0.92242  0.98268  0.83975  Biso   1.000  C
  C109     1.0000 0.33147  0.91599  0.52744  Biso   1.000  C
  C110     1.0000 0.50964  0.31000  0.93266  Biso   1.000  C
  C111     1.0000 0.91926  0.50332  0.34057  Biso   1.000  C
  C112     1.0000 0.83869  0.90770  0.00895  Biso   1.000  C
  C113     1.0000 0.01862  0.30519  0.59549  Biso   1.000  C
  C114     1.0000 0.41959  0.49846  0.19564  Biso   1.000  C
  C115     1.0000 0.20373  0.41944  0.49656  Biso   1.000  C
  C116     1.0000 0.02783  0.80904  0.94140  Biso   1.000  C
  C117     1.0000 0.60678  0.98048  0.33664  Biso   1.000  C
  C118     1.0000 0.69379  0.40184  0.03176  Biso   1.000  C
  C119     1.0000 0.49647  0.80658  0.60678  Biso   1.000  C
  C120     1.0000 0.10666  0.99880  0.19789  Biso   1.000  C
  C121     1.0000 0.84233  0.97259  0.10383  Biso   1.000  C
  C122     1.0000 0.10734  0.81854  0.04369  Biso   1.000  C
  C123     1.0000 0.01614  0.06767  0.83380  Biso   1.000  C
  C124     1.0000 0.33724  0.99327  0.42870  Biso   1.000  C
  C125     1.0000 0.58722  0.80025  0.52179  Biso   1.000  C
  C126     1.0000 0.49977  0.07458  0.70120  Biso   1.000  C
  C127     1.0000 0.69773  0.48298  0.11616  Biso   1.000  C
  C128     1.0000 0.42865  0.31318  0.02065  Biso   1.000  C
  C129     1.0000 0.52597  0.57640  0.84197  Biso   1.000  C
  C130     1.0000 0.19203  0.51707  0.43468  Biso   1.000  C
  C131     1.0000 0.94358  0.30630  0.51099  Biso   1.000  C
  C132     1.0000 0.00458  0.56740  0.70690  Biso   1.000  C
  C133     1.0000 0.19494  0.99997  0.92545  Biso   1.000  C
  C134     1.0000 0.92962  0.16893  0.00750  Biso   1.000  C
  C135     1.0000 0.02434  0.91561  0.20153  Biso   1.000  C
  C136     1.0000 0.69164  0.99336  0.60404  Biso   1.000  C
  C137     1.0000 0.44406  0.17395  0.50833  Biso   1.000  C
  C138     1.0000 0.52010  0.90062  0.34185  Biso   1.000  C
  C139     1.0000 0.33807  0.50229  0.92879  Biso   1.000  C
  C140     1.0000 0.60715  0.67396  0.02443  Biso   1.000  C
  C141     1.0000 0.50667  0.40157  0.19748  Biso   1.000  C
  C142     1.0000 0.83275  0.46964  0.61281  Biso   1.000  C
  C143     1.0000 0.08479  0.67944  0.52999  Biso   1.000  C
  C144     1.0000 0.99793  0.41090  0.33348  Biso   1.000  C
  C145     1.0000 0.32935  0.50237  0.09989  Biso   1.000  C
  C146     1.0000 0.11726  0.31904  0.50857  Biso   1.000  C
  C147     1.0000 0.52802  0.07350  0.33839  Biso   1.000  C
  C148     1.0000 0.83157  0.48345  0.44312  Biso   1.000  C
  C149     1.0000 0.60054  0.30865  0.00950  Biso   1.000  C
  C150     1.0000 0.00782  0.08604  0.19413  Biso   1.000  C
  C151     1.0000 0.19687  0.00754  0.09988  Biso   1.000  C
  C152     1.0000 0.41327  0.81174  0.51158  Biso   1.000  C
  C153     1.0000 0.01559  0.58533  0.34389  Biso   1.000  C
  C154     1.0000 0.69984  0.96744  0.43255  Biso   1.000  C
  C155     1.0000 0.93384  0.80955  0.02044  Biso   1.000  C
  C156     1.0000 0.51621  0.57342  0.19792  Biso   1.000  C
  C157     1.0000 0.69896  0.48553  0.94092  Biso   1.000  C
  C158     1.0000 0.91127  0.66182  0.52527  Biso   1.000  C
  C159     1.0000 0.52228  0.90109  0.69593  Biso   1.000  C
  C160     1.0000 0.19861  0.48913  0.60202  Biso   1.000  C
  C161     1.0000 0.43139  0.68004  0.01363  Biso   1.000  C
  C162     1.0000 0.01619  0.89726  0.84111  Biso   1.000  C
  C163     1.0000 0.83514  0.01035  0.93667  Biso   1.000  C
  C164     1.0000 0.61444  0.16386  0.51916  Biso   1.000  C
  C165     1.0000 0.01604  0.39711  0.69963  Biso   1.000  C
  C166     1.0000 0.32868  0.01033  0.60189  Biso   1.000  C
  C167     1.0000 0.10307  0.17768  0.01937  Biso   1.000  C
  C168     1.0000 0.50555  0.40370  0.83510  Biso   1.000  C
  C169     1.0000 0.01901  0.81542  0.11328  Biso   1.000  C
  C170     1.0000 0.09511  0.98441  0.83374  Biso   1.000  C
  C171     1.0000 0.83761  0.07618  0.03347  Biso   1.000  C
  C172     1.0000 0.51045  0.80520  0.43391  Biso   1.000  C
  C173     1.0000 0.59572  0.99770  0.69637  Biso   1.000  C
  C174     1.0000 0.34066  0.08633  0.50075  Biso   1.000  C
  C175     1.0000 0.51956  0.30649  0.10353  Biso   1.000  C
  C176     1.0000 0.43226  0.49795  0.83427  Biso   1.000  C
  C177     1.0000 0.69561  0.57557  0.02382  Biso   1.000  C
  C178     1.0000 0.02398  0.31542  0.42417  Biso   1.000  C
  C179     1.0000 0.92595  0.47067  0.70853  Biso   1.000  C
  C180     1.0000 0.18716  0.58951  0.51699  Biso   1.000  C
  C181     1.0000 0.02617  0.17051  0.92363  Biso   1.000  C
  C182     1.0000 0.93552  0.98419  0.19871  Biso   1.000  C
  C183     1.0000 0.19563  0.91691  0.02632  Biso   1.000  C
  C184     1.0000 0.51566  0.16708  0.60667  Biso   1.000  C
  C185     1.0000 0.43313  0.98732  0.33645  Biso   1.000  C
  C186     1.0000 0.69039  0.88796  0.51820  Biso   1.000  C
  C187     1.0000 0.52837  0.67488  0.93500  Biso   1.000  C
  C188     1.0000 0.59125  0.47788  0.20021  Biso   1.000  C
  C189     1.0000 0.33625  0.41251  0.01865  Biso   1.000  C
  C190     1.0000 0.00362  0.66559  0.61163  Biso   1.000  C
  C191     1.0000 0.09530  0.48928  0.33880  Biso   1.000  C
  C192     1.0000 0.83691  0.38806  0.51452  Biso   1.000  C
  C193     1.0000 0.86061  0.00143  0.91891  Biso   1.000  C
  C194     1.0000 0.91877  0.83790  0.01736  Biso   1.000  C
  C195     1.0000 0.02195  0.88253  0.86814  Biso   1.000  C
  C196     1.0000 0.35512  0.00882  0.61873  Biso   1.000  C
  C197     1.0000 0.40035  0.84069  0.51501  Biso   1.000  C
  C198     1.0000 0.51989  0.88379  0.66948  Biso   1.000  C
  C199     1.0000 0.67204  0.48344  0.92579  Biso   1.000  C
  C200     1.0000 0.61572  0.33558  0.01254  Biso   1.000  C
  C201     1.0000 0.50814  0.38726  0.86230  Biso   1.000  C
  C202     1.0000 0.17049  0.48821  0.61540  Biso   1.000  C
  C203     1.0000 0.13094  0.34668  0.50233  Biso   1.000  C
  C204     1.0000 0.01326  0.38120  0.67012  Biso   1.000  C
  C205     1.0000 0.17048  0.00565  0.11621  Biso   1.000  C
  C206     1.0000 0.11929  0.15007  0.01703  Biso   1.000  C
  C207     1.0000 0.00775  0.09943  0.16653  Biso   1.000  C
  C208     1.0000 0.67309  0.96648  0.41542  Biso   1.000  C
  C209     1.0000 0.62885  0.13524  0.51962  Biso   1.000  C
  C210     1.0000 0.53109  0.08833  0.36480  Biso   1.000  C
  C211     1.0000 0.35318  0.50077  0.11990  Biso   1.000  C
  C212     1.0000 0.41492  0.65283  0.01288  Biso   1.000  C
  C213     1.0000 0.51471  0.59180  0.17130  Biso   1.000  C
  C214     1.0000 0.85788  0.48597  0.42546  Biso   1.000  C
  C215     1.0000 0.90076  0.63339  0.52652  Biso   1.000  C
  C216     1.0000 0.01056  0.60103  0.37091  Biso   1.000  C
  C217     1.0000 0.11147  0.99012  0.86112  Biso   1.000  C
  C218     1.0000 0.86314  0.09247  0.02911  Biso   1.000  C
  C219     1.0000 0.02079  0.84311  0.12807  Biso   1.000  C
  C220     1.0000 0.61106  0.99533  0.66843  Biso   1.000  C
  C221     1.0000 0.36871  0.09978  0.50063  Biso   1.000  C
  C222     1.0000 0.51106  0.83326  0.41884  Biso   1.000  C
  C223     1.0000 0.41538  0.50064  0.86011  Biso   1.000  C
  C224     1.0000 0.66925  0.59237  0.02419  Biso   1.000  C
  C225     1.0000 0.51845  0.33261  0.12126  Biso   1.000  C
  C226     1.0000 0.91104  0.46526  0.68125  Biso   1.000  C
  C227     1.0000 0.15969  0.60489  0.52427  Biso   1.000  C
  C228     1.0000 0.01483  0.34221  0.41006  Biso   1.000  C
  C229     1.0000 0.91941  0.98085  0.17223  Biso   1.000  C
  C230     1.0000 0.16900  0.89958  0.03022  Biso   1.000  C
  C231     1.0000 0.02439  0.14172  0.90962  Biso   1.000  C
  C232     1.0000 0.41627  0.98822  0.36364  Biso   1.000  C
  C233     1.0000 0.66190  0.87380  0.51783  Biso   1.000  C
  C234     1.0000 0.51489  0.14126  0.62365  Biso   1.000  C
  C235     1.0000 0.60989  0.47334  0.17578  Biso   1.000  C
  C236     1.0000 0.36416  0.39547  0.01823  Biso   1.000  C
  C237     1.0000 0.52891  0.64645  0.92147  Biso   1.000  C
  C238     1.0000 0.11104  0.49437  0.36673  Biso   1.000  C
  C239     1.0000 0.86539  0.37457  0.51480  Biso   1.000  C
  C240     1.0000 0.00342  0.63826  0.62749  Biso   1.000  C
  C241     1.0000 0.61750  0.47658  0.87396  Biso   1.000  C
  C242     1.0000 0.85482  0.57373  0.52332  Biso   1.000  C
  C243     1.0000 0.50618  0.83196  0.62205  Biso   1.000  C
  C244     1.0000 0.11367  0.48376  0.66909  Biso   1.000  C
  C245     1.0000 0.36260  0.60099  0.01293  Biso   1.000  C
  C246     1.0000 0.02871  0.83574  0.92539  Biso   1.000  C
  C247     1.0000 0.90837  0.98642  0.86670  Biso   1.000  C
  C248     1.0000 0.67573  0.08102  0.51874  Biso   1.000  C
  C249     1.0000 0.01750  0.33123  0.61364  Biso   1.000  C
  C250     1.0000 0.40768  0.99950  0.67012  Biso   1.000  C
  C251     1.0000 0.17114  0.10139  0.01900  Biso   1.000  C
  C252     1.0000 0.50954  0.33751  0.91658  Biso   1.000  C
  C253     1.0000 0.40232  0.50085  0.16967  Biso   1.000  C
  C254     1.0000 0.17813  0.40108  0.49682  Biso   1.000  C
  C255     1.0000 0.52780  0.13969  0.42102  Biso   1.000  C
  C256     1.0000 0.90565  0.49825  0.36852  Biso   1.000  C
  C257     1.0000 0.66700  0.38766  0.02652  Biso   1.000  C
  C258     1.0000 0.00674  0.15134  0.11112  Biso   1.000  C
  C259     1.0000 0.12079  0.00311  0.16946  Biso   1.000  C
  C260     1.0000 0.35760  0.89641  0.52481  Biso   1.000  C
  C261     1.0000 0.00671  0.65121  0.42255  Biso   1.000  C
  C262     1.0000 0.62179  0.97717  0.36383  Biso   1.000  C
  C263     1.0000 0.86600  0.89060  0.01048  Biso   1.000  C
  C264     1.0000 0.51611  0.64368  0.12225  Biso   1.000  C
  C265     1.0000 0.01963  0.08677  0.85939  Biso   1.000  C
  C266     1.0000 0.86794  0.97865  0.12090  Biso   1.000  C
  C267     1.0000 0.12163  0.84668  0.04293  Biso   1.000  C
  C268     1.0000 0.50464  0.09053  0.67490  Biso   1.000  C
  C269     1.0000 0.36510  0.99236  0.41191  Biso   1.000  C
  C270     1.0000 0.60606  0.82552  0.52156  Biso   1.000  C
  C271     1.0000 0.52733  0.59230  0.86922  Biso   1.000  C
  C272     1.0000 0.66937  0.48006  0.12879  Biso   1.000  C
  C273     1.0000 0.41496  0.34169  0.01894  Biso   1.000  C
  C274     1.0000 0.00299  0.58471  0.68075  Biso   1.000  C
  C275     1.0000 0.16448  0.50831  0.41989  Biso   1.000  C
  C276     1.0000 0.92444  0.33073  0.51438  Biso   1.000  C
  C277     1.0000 0.02645  0.89758  0.17542  Biso   1.000  C
  C278     1.0000 0.16602  0.99563  0.91192  Biso   1.000  C
  C279     1.0000 0.91320  0.14195  0.01315  Biso   1.000  C
  C280     1.0000 0.51742  0.88486  0.36946  Biso   1.000  C
  C281     1.0000 0.66382  0.99623  0.61914  Biso   1.000  C
  C282     1.0000 0.42558  0.14764  0.50827  Biso   1.000  C
  C283     1.0000 0.51213  0.38345  0.17169  Biso   1.000  C
  C284     1.0000 0.36515  0.50102  0.91331  Biso   1.000  C
  C285     1.0000 0.62218  0.64614  0.02316  Biso   1.000  C
  C286     1.0000 0.00131  0.39424  0.35993  Biso   1.000  C
  C287     1.0000 0.86062  0.46905  0.62898  Biso   1.000  C
  C288     1.0000 0.10345  0.65409  0.53254  Biso   1.000  C
  C289     1.0000 0.35002  0.86538  0.52143  Biso   1.000  C
  C290     1.0000 0.50465  0.33496  0.88522  Biso   1.000  C
  C291     1.0000 0.87350  0.49953  0.37050  Biso   1.000  C
  C292     1.0000 0.86473  0.85998  0.01359  Biso   1.000  C
  C293     1.0000 0.01463  0.32951  0.64438  Biso   1.000  C
  C294     1.0000 0.36989  0.50217  0.17119  Biso   1.000  C
  C295     1.0000 0.18135  0.37018  0.49889  Biso   1.000  C
  C296     1.0000 0.02996  0.83166  0.89351  Biso   1.000  C
  C297     1.0000 0.65318  0.97488  0.36373  Biso   1.000  C
  C298     1.0000 0.66775  0.35644  0.02382  Biso   1.000  C
  C299     1.0000 0.50992  0.83058  0.65200  Biso   1.000  C
  C300     1.0000 0.15405  0.00360  0.17058  Biso   1.000  C
  C301     1.0000 0.67871  0.11150  0.51927  Biso   1.000  C
  C302     1.0000 0.52072  0.64505  0.15323  Biso   1.000  C
  C303     1.0000 0.14521  0.48639  0.66859  Biso   1.000  C
  C304     1.0000 0.17267  0.13216  0.02021  Biso   1.000  C
  C305     1.0000 0.01146  0.65419  0.39193  Biso   1.000  C
  C306     1.0000 0.64984  0.47691  0.87352  Biso   1.000  C
  C307     1.0000 0.85098  0.60449  0.52201  Biso   1.000  C
  C308     1.0000 0.00356  0.15305  0.14307  Biso   1.000  C
  C309     1.0000 0.37561  0.00169  0.67127  Biso   1.000  C
  C310     1.0000 0.36149  0.63216  0.01527  Biso   1.000  C
  C311     1.0000 0.53094  0.13895  0.38925  Biso   1.000  C
  C312     1.0000 0.87758  0.99322  0.86631  Biso   1.000  C
  C313     1.0000 0.16384  0.50825  0.38729  Biso   1.000  C
  C314     1.0000 0.39539  0.15041  0.50123  Biso   1.000  C
  C315     1.0000 0.51485  0.35284  0.17332  Biso   1.000  C
  C316     1.0000 0.66492  0.48022  0.16017  Biso   1.000  C
  C317     1.0000 0.88253  0.14408  0.01816  Biso   1.000  C
  C318     1.0000 0.00427  0.36318  0.35811  Biso   1.000  C
  C319     1.0000 0.36281  0.99541  0.38085  Biso   1.000  C
  C320     1.0000 0.13379  0.65603  0.52690  Biso   1.000  C
  C321     1.0000 0.02339  0.86620  0.17943  Biso   1.000  C
  C322     1.0000 0.86655  0.97680  0.15187  Biso   1.000  C
  C323     1.0000 0.65293  0.64614  0.02165  Biso   1.000  C
  C324     1.0000 0.51970  0.85352  0.36761  Biso   1.000  C
  C325     1.0000 0.85874  0.46793  0.66026  Biso   1.000  C
  C326     1.0000 0.63718  0.82256  0.51698  Biso   1.000  C
  C327     1.0000 0.52639  0.62419  0.86963  Biso   1.000  C
  C328     1.0000 0.36306  0.49861  0.88152  Biso   1.000  C
  C329     1.0000 0.15263  0.84689  0.03987  Biso   1.000  C
  C330     1.0000 0.00682  0.61738  0.68174  Biso   1.000  C
  C331     1.0000 0.66415  0.00113  0.64971  Biso   1.000  C
  C332     1.0000 0.89356  0.32592  0.51032  Biso   1.000  C
  C333     1.0000 0.01928  0.11839  0.85708  Biso   1.000  C
  C334     1.0000 0.16504  0.99393  0.88011  Biso   1.000  C
  C335     1.0000 0.38357  0.34288  0.02135  Biso   1.000  C
  C336     1.0000 0.50332  0.12169  0.67673  Biso   1.000  C
  C337     1.0000 0.67183  0.48050  0.89473  Biso   1.000  C
  C338     1.0000 0.86928  0.62925  0.52307  Biso   1.000  C
  C339     1.0000 0.51564  0.85245  0.67163  Biso   1.000  C
  C340     1.0000 0.16766  0.48683  0.64676  Biso   1.000  C
  C341     1.0000 0.38309  0.65428  0.01551  Biso   1.000  C
  C342     1.0000 0.02502  0.85103  0.87058  Biso   1.000  C
  C343     1.0000 0.85800  0.00098  0.88727  Biso   1.000  C
  C344     1.0000 0.65911  0.13457  0.51659  Biso   1.000  C
  C345     1.0000 0.01527  0.35035  0.66756  Biso   1.000  C
  C346     1.0000 0.35434  0.00583  0.64921  Biso   1.000  C
  C347     1.0000 0.15113  0.15313  0.02061  Biso   1.000  C
  C348     1.0000 0.50301  0.35667  0.86329  Biso   1.000  C
  C349     1.0000 0.34852  0.50114  0.15030  Biso   1.000  C
  C350     1.0000 0.16115  0.34639  0.49991  Biso   1.000  C
  C351     1.0000 0.52993  0.11902  0.36641  Biso   1.000  C
  C352     1.0000 0.85488  0.49301  0.39442  Biso   1.000  C
  C353     1.0000 0.64716  0.33361  0.01752  Biso   1.000  C
  C354     1.0000 0.00334  0.13127  0.16489  Biso   1.000  C
  C355     1.0000 0.17453  0.00450  0.14808  Biso   1.000  C
  C356     1.0000 0.36924  0.84240  0.51796  Biso   1.000  C
  C357     1.0000 0.01339  0.63253  0.37003  Biso   1.000  C
  C358     1.0000 0.67484  0.97135  0.38472  Biso   1.000  C
  C359     1.0000 0.88632  0.83773  0.01688  Biso   1.000  C
  C360     1.0000 0.51762  0.62258  0.17331  Biso   1.000  C
  C361     1.0000 0.02052  0.14087  0.87771  Biso   1.000  C
  C362     1.0000 0.88794  0.98035  0.17302  Biso   1.000  C
  C363     1.0000 0.17168  0.86991  0.03561  Biso   1.000  C
  C364     1.0000 0.50745  0.14238  0.65484  Biso   1.000  C
  C365     1.0000 0.38507  0.99255  0.36141  Biso   1.000  C
  C366     1.0000 0.66073  0.84282  0.51611  Biso   1.000  C
  C367     1.0000 0.52670  0.64683  0.89025  Biso   1.000  C
  C368     1.0000 0.64169  0.47847  0.17937  Biso   1.000  C
  C369     1.0000 0.36174  0.36539  0.02081  Biso   1.000  C
  C370     1.0000 0.00652  0.63898  0.65975  Biso   1.000  C
  C371     1.0000 0.14246  0.50304  0.36631  Biso   1.000  C
  C372     1.0000 0.86949  0.34412  0.51195  Biso   1.000  C
  C373     1.0000 0.01939  0.84456  0.15849  Biso   1.000  C
  C374     1.0000 0.14206  0.99206  0.85956  Biso   1.000  C
  C375     1.0000 0.86219  0.12312  0.02344  Biso   1.000  C
  C376     1.0000 0.51642  0.83244  0.38841  Biso   1.000  C
  C377     1.0000 0.64205  0.00145  0.67073  Biso   1.000  C
  C378     1.0000 0.37271  0.13059  0.49662  Biso   1.000  C
  C379     1.0000 0.51859  0.33147  0.15213  Biso   1.000  C
  C380     1.0000 0.38350  0.49640  0.85976  Biso   1.000  C
  C381     1.0000 0.67301  0.62363  0.02273  Biso   1.000  C
  C382     1.0000 0.00896  0.34178  0.37885  Biso   1.000  C
  C383     1.0000 0.87989  0.46647  0.68285  Biso   1.000  C
  C384     1.0000 0.15703  0.63646  0.52405  Biso   1.000  C
  C385     1.0000 0.19944  0.14774  0.02363  Biso   1.000  C
  C386     1.0000 0.00033  0.18006  0.15823  Biso   1.000  C
  C387     1.0000 0.17121  0.99862  0.19647  Biso   1.000  C
  C388     1.0000 0.70732  0.12492  0.51692  Biso   1.000  C
  C389     1.0000 0.53224  0.16629  0.37365  Biso   1.000  C
  C390     1.0000 0.66865  0.97685  0.33687  Biso   1.000  C
  C391     1.0000 0.33490  0.64830  0.02224  Biso   1.000  C
  C392     1.0000 0.52157  0.67117  0.17073  Biso   1.000  C
  C393     1.0000 0.35401  0.50484  0.19703  Biso   1.000  C
  C394     1.0000 0.82315  0.61830  0.51872  Biso   1.000  C
  C395     1.0000 0.01283  0.68259  0.37628  Biso   1.000  C
  C396     1.0000 0.85489  0.50443  0.34612  Biso   1.000  C
  C397     1.0000 0.83772  0.84462  0.01455  Biso   1.000  C
  C398     1.0000 0.03221  0.80275  0.87889  Biso   1.000  C
  C399     1.0000 0.86052  0.99448  0.83889  Biso   1.000  C
  C400     1.0000 0.32108  0.85263  0.52223  Biso   1.000  C
  C401     1.0000 0.50636  0.80456  0.66786  Biso   1.000  C
  C402     1.0000 0.35936  0.00017  0.69757  Biso   1.000  C
  C403     1.0000 0.69485  0.34047  0.02821  Biso   1.000  C
  C404     1.0000 0.49925  0.30830  0.86998  Biso   1.000  C
  C405     1.0000 0.66582  0.47519  0.84626  Biso   1.000  C
  C406     1.0000 0.20956  0.35716  0.50019  Biso   1.000  C
  C407     1.0000 0.01270  0.30208  0.65944  Biso   1.000  C
  C408     1.0000 0.16210  0.48280  0.69518  Biso   1.000  C
  C409     1.0000 0.15816  0.99018  0.83307  Biso   1.000  C
  C410     1.0000 0.83580  0.13974  0.02743  Biso   1.000  C
  C411     1.0000 0.01398  0.81768  0.17546  Biso   1.000  C
  C412     1.0000 0.65810  0.00557  0.69774  Biso   1.000  C
  C413     1.0000 0.34789  0.14816  0.49226  Biso   1.000  C
  C414     1.0000 0.51925  0.80536  0.37379  Biso   1.000  C
  C415     1.0000 0.36660  0.49206  0.83417  Biso   1.000  C
  C416     1.0000 0.70070  0.63700  0.02186  Biso   1.000  C
  C417     1.0000 0.51811  0.30471  0.16727  Biso   1.000  C
  C418     1.0000 0.86366  0.46830  0.70893  Biso   1.000  C
  C419     1.0000 0.18179  0.65463  0.51676  Biso   1.000  C
  C420     1.0000 0.01260  0.31487  0.36238  Biso   1.000  C
  C421     1.0000 0.87199  0.97877  0.19922  Biso   1.000  C
  C422     1.0000 0.19948  0.85598  0.03206  Biso   1.000  C
  C423     1.0000 0.02281  0.16664  0.86072  Biso   1.000  C
  C424     1.0000 0.36886  0.99093  0.33426  Biso   1.000  C
  C425     1.0000 0.68589  0.82593  0.51173  Biso   1.000  C
  C426     1.0000 0.50421  0.16941  0.66905  Biso   1.000  C
  C427     1.0000 0.65412  0.48485  0.20759  Biso   1.000  C
  C428     1.0000 0.33476  0.35032  0.02540  Biso   1.000  C
  C429     1.0000 0.52446  0.67221  0.87410  Biso   1.000  C
  C430     1.0000 0.15807  0.50599  0.33888  Biso   1.000  C
  C431     1.0000 0.84404  0.32613  0.50976  Biso   1.000  C
  C432     1.0000 0.01004  0.66646  0.67471  Biso   1.000  C
  C433     1.0000 0.02078  0.13281  0.82850  Biso   1.000  C
  C434     1.0000 0.83883  0.97263  0.16683  Biso   1.000  C
  C435     1.0000 0.16930  0.82073  0.04023  Biso   1.000  C
  C436     1.0000 0.49725  0.13784  0.70271  Biso   1.000  C
  C437     1.0000 0.33622  0.99562  0.36535  Biso   1.000  C
  C438     1.0000 0.65123  0.79463  0.51532  Biso   1.000  C
  C439     1.0000 0.52497  0.63973  0.84225  Biso   1.000  C
  C440     1.0000 0.69037  0.48589  0.17883  Biso   1.000  C
  C441     1.0000 0.36592  0.31760  0.02463  Biso   1.000  C
  C442     1.0000 0.00911  0.63371  0.70808  Biso   1.000  C
  C443     1.0000 0.18994  0.51469  0.37082  Biso   1.000  C
  C444     1.0000 0.88083  0.29780  0.50661  Biso   1.000  C
  C445     1.0000 0.01951  0.85139  0.20624  Biso   1.000  C
  C446     1.0000 0.19090  0.99216  0.86339  Biso   1.000  C
  C447     1.0000 0.86806  0.17088  0.01840  Biso   1.000  C
  C448     1.0000 0.52396  0.83768  0.34158  Biso   1.000  C
  C449     1.0000 0.69065  0.00406  0.66631  Biso   1.000  C
  C450     1.0000 0.38156  0.17868  0.49723  Biso   1.000  C
  C451     1.0000 0.51286  0.33762  0.19945  Biso   1.000  C
  C452     1.0000 0.33555  0.49681  0.86798  Biso   1.000  C
  C453     1.0000 0.67006  0.67176  0.01983  Biso   1.000  C
  C454     1.0000 0.00305  0.34822  0.33038  Biso   1.000  C
  C455     1.0000 0.83085  0.46624  0.67550  Biso   1.000  C
  C456     1.0000 0.14718  0.68418  0.52221  Biso   1.000  C
  C457     1.0000 0.01636  0.64902  0.34357  Biso   1.000  C
  C458     1.0000 0.32730  0.00733  0.66362  Biso   1.000  C
  C459     1.0000 0.66402  0.30753  0.01943  Biso   1.000  C
  C460     1.0000 0.52104  0.63629  0.20093  Biso   1.000  C
  C461     1.0000 0.83095  0.00597  0.87253  Biso   1.000  C
  C462     1.0000 0.17974  0.32038  0.50273  Biso   1.000  C
  C463     1.0000 0.53080  0.13565  0.33948  Biso   1.000  C
  C464     1.0000 0.19390  0.48693  0.66442  Biso   1.000  C
  C465     1.0000 0.86950  0.81169  0.02015  Biso   1.000  C
  C466     1.0000 0.99939  0.14834  0.19048  Biso   1.000  C
  C467     1.0000 0.69793  0.47980  0.87877  Biso   1.000  C
  C468     1.0000 0.35146  0.81703  0.51497  Biso   1.000  C
  C469     1.0000 0.01557  0.33333  0.69350  Biso   1.000  C
  C470     1.0000 0.70130  0.97354  0.36967  Biso   1.000  C
  C471     1.0000 0.36852  0.68101  0.01874  Biso   1.000  C
  C472     1.0000 0.49642  0.34223  0.83786  Biso   1.000  C
  C473     1.0000 0.20261  0.00390  0.16285  Biso   1.000  C
  C474     1.0000 0.85077  0.65343  0.52258  Biso   1.000  C
  C475     1.0000 0.51575  0.83803  0.69904  Biso   1.000  C
  C476     1.0000 0.82574  0.49506  0.38166  Biso   1.000  C
  C477     1.0000 0.16613  0.18009  0.02762  Biso   1.000  C
  C478     1.0000 0.02438  0.83327  0.84466  Biso   1.000  C
  C479     1.0000 0.32041  0.50488  0.16348  Biso   1.000  C
  C480     1.0000 0.67736  0.15977  0.51459  Biso   1.000  C
  C481     1.0000 0.36421  0.78814  0.51085  Biso   1.000  C
  C482     1.0000 0.49561  0.35737  0.81035  Biso   1.000  C
  C483     1.0000 0.79932  0.49344  0.40089  Biso   1.000  C
  C484     1.0000 0.88431  0.78381  0.02312  Biso   1.000  C
  C485     1.0000 0.01382  0.34664  0.72270  Biso   1.000  C
  C486     1.0000 0.29465  0.50780  0.14480  Biso   1.000  C
  C487     1.0000 0.16569  0.29265  0.50764  Biso   1.000  C
  C488     1.0000 0.02116  0.84767  0.81670  Biso   1.000  C
  C489     1.0000 0.72970  0.97133  0.38581  Biso   1.000  C
  C490     1.0000 0.64871  0.27993  0.01683  Biso   1.000  C
  C491     1.0000 0.52243  0.85509  0.72424  Biso   1.000  C
  C492     1.0000 0.22900  0.00686  0.14513  Biso   1.000  C
  C493     1.0000 0.66300  0.18816  0.51471  Biso   1.000  C
  C494     1.0000 0.52339  0.61867  0.22736  Biso   1.000  C
  C495     1.0000 0.22176  0.48767  0.65064  Biso   1.000  C
  C496     1.0000 0.14777  0.20535  0.03215  Biso   1.000  C
  C497     1.0000 0.02385  0.63240  0.31743  Biso   1.000  C
  C498     1.0000 0.72482  0.48425  0.89558  Biso   1.000  C
  C499     1.0000 0.86184  0.68224  0.52609  Biso   1.000  C
  C500     1.0000 0.00084  0.13341  0.21913  Biso   1.000  C
  C501     1.0000 0.29944  0.00813  0.64849  Biso   1.000  C
  C502     1.0000 0.38534  0.70837  0.02034  Biso   1.000  C
  C503     1.0000 0.52663  0.12035  0.31316  Biso   1.000  C
  C504     1.0000 0.80668  0.01614  0.89046  Biso   1.000  C
  C505     1.0000 0.65054  0.47177  0.81812  Biso   1.000  C
  C506     1.0000 0.79762  0.60048  0.51355  Biso   1.000  C
  C507     1.0000 0.49734  0.77815  0.65218  Biso   1.000  C
  C508     1.0000 0.14776  0.47871  0.72292  Biso   1.000  C
  C509     1.0000 0.30755  0.63215  0.02623  Biso   1.000  C
  C510     1.0000 0.03456  0.77760  0.89622  Biso   1.000  C
  C511     1.0000 0.87574  0.98942  0.81201  Biso   1.000  C
  C512     1.0000 0.73468  0.10873  0.51727  Biso   1.000  C
  C513     1.0000 0.01374  0.27501  0.64056  Biso   1.000  C
  C514     1.0000 0.37432  0.99618  0.72460  Biso   1.000  C
  C515     1.0000 0.22678  0.13336  0.02007  Biso   1.000  C
  C516     1.0000 0.50369  0.28312  0.88574  Biso   1.000  C
  C517     1.0000 0.37167  0.50204  0.22437  Biso   1.000  C
  C518     1.0000 0.23554  0.37498  0.49510  Biso   1.000  C
  C519     1.0000 0.53659  0.19363  0.39037  Biso   1.000  C
  C520     1.0000 0.86909  0.50959  0.31877  Biso   1.000  C
  C521     1.0000 0.72192  0.35464  0.03676  Biso   1.000  C
  C522     1.0000 0.99914  0.20728  0.14004  Biso   1.000  C
  C523     1.0000 0.15604  0.99601  0.22414  Biso   1.000  C
  C524     1.0000 0.29634  0.87161  0.52313  Biso   1.000  C
  C525     1.0000 0.00980  0.70874  0.39334  Biso   1.000  C
  C526     1.0000 0.65271  0.97866  0.30789  Biso   1.000  C
  C527     1.0000 0.81051  0.86067  0.01369  Biso   1.000  C
  C528     1.0000 0.51940  0.69776  0.15453  Biso   1.000  C
  C529     1.0000 0.80924  0.12543  0.03621  Biso   1.000  C
  C530     1.0000 0.01181  0.78938  0.16098  Biso   1.000  C
  C531     1.0000 0.14058  0.98504  0.80640  Biso   1.000  C
  C532     1.0000 0.31895  0.13417  0.49223  Biso   1.000  C
  C533     1.0000 0.52120  0.77635  0.38784  Biso   1.000  C
  C534     1.0000 0.64194  0.00581  0.72460  Biso   1.000  C
  C535     1.0000 0.72611  0.61891  0.01902  Biso   1.000  C
  C536     1.0000 0.51886  0.27772  0.15014  Biso   1.000  C
  C537     1.0000 0.38405  0.48827  0.80795  Biso   1.000  C
  C538     1.0000 0.20915  0.63973  0.50755  Biso   1.000  C
  C539     1.0000 0.02065  0.28832  0.37664  Biso   1.000  C
  C540     1.0000 0.87964  0.47258  0.73637  Biso   1.000  C
  C541     1.0000 0.22539  0.87130  0.02602  Biso   1.000  C
  C542     1.0000 0.02582  0.19475  0.87338  Biso   1.000  C
  C543     1.0000 0.88867  0.97940  0.22714  Biso   1.000  C
  C544     1.0000 0.71299  0.84080  0.51040  Biso   1.000  C
  C545     1.0000 0.50556  0.19648  0.65243  Biso   1.000  C
  C546     1.0000 0.38577  0.98663  0.30740  Biso   1.000  C
  C547     1.0000 0.30780  0.36742  0.02941  Biso   1.000  C
  C548     1.0000 0.52653  0.70070  0.88678  Biso   1.000  C
  C549     1.0000 0.63507  0.49170  0.23245  Biso   1.000  C
  C550     1.0000 0.81451  0.33865  0.51045  Biso   1.000  C
  C551     1.0000 0.01283  0.69441  0.65899  Biso   1.000  C
  C552     1.0000 0.14340  0.49956  0.31134  Biso   1.000  C
  C553     1.0000 0.01820  0.11491  0.80181  Biso   1.000  C
  C554     1.0000 0.81276  0.96896  0.14902  Biso   1.000  C
  C555     1.0000 0.15473  0.79301  0.04382  Biso   1.000  C
  C556     1.0000 0.49222  0.12227  0.72929  Biso   1.000  C
  C557     1.0000 0.30910  0.99650  0.38162  Biso   1.000  C
  C558     1.0000 0.63251  0.76989  0.51557  Biso   1.000  C
  C559     1.0000 0.52374  0.62343  0.81464  Biso   1.000  C
  C560     1.0000 0.71883  0.48591  0.16617  Biso   1.000  C
  C561     1.0000 0.38056  0.28910  0.02686  Biso   1.000  C
  C562     1.0000 0.00878  0.61719  0.73522  Biso   1.000  C
  C563     1.0000 0.21690  0.52426  0.38714  Biso   1.000  C
  C564     1.0000 0.90019  0.27274  0.50500  Biso   1.000  C
  C565     1.0000 0.01906  0.87004  0.23098  Biso   1.000  C
  C566     1.0000 0.21958  0.99277  0.87829  Biso   1.000  C
  C567     1.0000 0.88244  0.19850  0.00924  Biso   1.000  C
  C568     1.0000 0.52473  0.85397  0.31291  Biso   1.000  C
  C569     1.0000 0.71871  0.00461  0.65184  Biso   1.000  C
  C570     1.0000 0.39974  0.20477  0.49701  Biso   1.000  C
  C571     1.0000 0.50971  0.35574  0.22550  Biso   1.000  C
  C572     1.0000 0.30927  0.50413  0.88326  Biso   1.000  C
  C573     1.0000 0.65547  0.69954  0.02039  Biso   1.000  C
  C574     1.0000 0.99629  0.36547  0.30323  Biso   1.000  C
  C575     1.0000 0.80501  0.46561  0.65923  Biso   1.000  C
  C576     1.0000 0.12967  0.71057  0.52468  Biso   1.000  C
  C577     1.0000 0.29971  0.50605  0.11267  Biso   1.000  C
  C578     1.0000 0.13446  0.29328  0.50927  Biso   1.000  C
  C579     1.0000 0.52820  0.08957  0.31151  Biso   1.000  C
  C580     1.0000 0.80290  0.48668  0.43156  Biso   1.000  C
  C581     1.0000 0.61785  0.28136  0.01073  Biso   1.000  C
  C582     1.0000 0.00743  0.10337  0.22072  Biso   1.000  C
  C583     1.0000 0.22525  0.00798  0.11320  Biso   1.000  C
  C584     1.0000 0.39624  0.78536  0.51068  Biso   1.000  C
  C585     1.0000 0.02264  0.60115  0.31791  Biso   1.000  C
  C586     1.0000 0.72752  0.97067  0.41685  Biso   1.000  C
  C587     1.0000 0.91574  0.78417  0.02356  Biso   1.000  C
  C588     1.0000 0.51940  0.58770  0.22620  Biso   1.000  C
  C589     1.0000 0.72623  0.48555  0.92663  Biso   1.000  C
  C590     1.0000 0.89292  0.68797  0.52475  Biso   1.000  C
  C591     1.0000 0.52628  0.88717  0.72315  Biso   1.000  C
  C592     1.0000 0.22424  0.48702  0.61986  Biso   1.000  C
  C593     1.0000 0.41662  0.70783  0.01571  Biso   1.000  C
  C594     1.0000 0.01699  0.87840  0.81507  Biso   1.000  C
  C595     1.0000 0.80849  0.01899  0.92205  Biso   1.000  C
  C596     1.0000 0.63134  0.18932  0.51655  Biso   1.000  C
  C597     1.0000 0.01520  0.37930  0.72483  Biso   1.000  C
  C598     1.0000 0.30023  0.01169  0.61686  Biso   1.000  C
  C599     1.0000 0.11672  0.20476  0.02728  Biso   1.000  C
  C600     1.0000 0.49980  0.38848  0.80866  Biso   1.000  C
  C601     1.0000 0.22167  0.99721  0.90933  Biso   1.000  C
  C602     1.0000 0.91312  0.19666  0.00454  Biso   1.000  C
  C603     1.0000 0.02245  0.90099  0.22876  Biso   1.000  C
  C604     1.0000 0.71874  0.99780  0.62019  Biso   1.000  C
  C605     1.0000 0.43054  0.20152  0.50082  Biso   1.000  C
  C606     1.0000 0.52300  0.88371  0.31414  Biso   1.000  C
  C607     1.0000 0.31109  0.50391  0.91443  Biso   1.000  C
  C608     1.0000 0.62434  0.70010  0.02320  Biso   1.000  C
  C609     1.0000 0.50679  0.38766  0.22559  Biso   1.000  C
  C610     1.0000 0.80499  0.46666  0.62757  Biso   1.000  C
  C611     1.0000 0.09927  0.70810  0.52985  Biso   1.000  C
  C612     1.0000 0.99392  0.39696  0.30458  Biso   1.000  C
  C613     1.0000 0.81495  0.96622  0.11795  Biso   1.000  C
  C614     1.0000 0.12371  0.79166  0.04486  Biso   1.000  C
  C615     1.0000 0.01635  0.08313  0.80482  Biso   1.000  C
  C616     1.0000 0.30906  0.99496  0.41281  Biso   1.000  C
  C617     1.0000 0.60082  0.77281  0.51697  Biso   1.000  C
  C618     1.0000 0.49466  0.09023  0.72896  Biso   1.000  C
  C619     1.0000 0.72314  0.48450  0.13550  Biso   1.000  C
  C620     1.0000 0.41241  0.28840  0.02755  Biso   1.000  C
  C621     1.0000 0.52332  0.59223  0.81554  Biso   1.000  C
  C622     1.0000 0.21916  0.52681  0.41958  Biso   1.000  C
  C623     1.0000 0.93094  0.27775  0.50619  Biso   1.000  C
  C624     1.0000 0.00528  0.58468  0.73494  Biso   1.000  C
  C625     1.0000 0.02740  0.19617  0.90599  Biso   1.000  C
  C626     1.0000 0.92028  0.98204  0.22656  Biso   1.000  C
  C627     1.0000 0.22339  0.90339  0.02610  Biso   1.000  C
  C628     1.0000 0.51174  0.19537  0.62117  Biso   1.000  C
  C629     1.0000 0.41785  0.98425  0.31027  Biso   1.000  C
  C630     1.0000 0.71607  0.87089  0.51426  Biso   1.000  C
  C631     1.0000 0.52898  0.70114  0.91771  Biso   1.000  C
  C632     1.0000 0.60303  0.48771  0.22974  Biso   1.000  C
  C633     1.0000 0.30788  0.39877  0.02353  Biso   1.000  C
  C634     1.0000 0.00899  0.69339  0.62761  Biso   1.000  C
  C635     1.0000 0.11225  0.49117  0.31037  Biso   1.000  C
  C636     1.0000 0.80984  0.36923  0.51429  Biso   1.000  C
  C637     1.0000 0.01538  0.78963  0.12872  Biso   1.000  C
  C638     1.0000 0.10984  0.98125  0.80669  Biso   1.000  C
  C639     1.0000 0.80961  0.09381  0.03740  Biso   1.000  C
  C640     1.0000 0.51663  0.77552  0.41938  Biso   1.000  C
  C641     1.0000 0.61030  0.00387  0.72360  Biso   1.000  C
  C642     1.0000 0.31505  0.10295  0.49540  Biso   1.000  C
  C643     1.0000 0.52063  0.27949  0.11937  Biso   1.000  C
  C644     1.0000 0.41632  0.49276  0.80822  Biso   1.000  C
  C645     1.0000 0.72455  0.58775  0.02157  Biso   1.000  C
  C646     1.0000 0.02622  0.28779  0.40742  Biso   1.000  C
  C647     1.0000 0.91046  0.47565  0.73573  Biso   1.000  C
  C648     1.0000 0.21056  0.60804  0.50860  Biso   1.000  C
  C649     1.0000 0.00721  0.70555  0.42406  Biso   1.000  C
  C650     1.0000 0.40603  0.99157  0.72403  Biso   1.000  C
  C651     1.0000 0.72100  0.38561  0.03932  Biso   1.000  C
  C652     1.0000 0.51714  0.69783  0.12259  Biso   1.000  C
  C653     1.0000 0.90635  0.98201  0.81281  Biso   1.000  C
  C654     1.0000 0.23181  0.40671  0.49633  Biso   1.000  C
  C655     1.0000 0.53564  0.19416  0.42105  Biso   1.000  C
  C656     1.0000 0.11589  0.48192  0.72372  Biso   1.000  C
  C657     1.0000 0.81166  0.89209  0.01190  Biso   1.000  C
  C658     1.0000 0.00255  0.20606  0.10877  Biso   1.000  C
  C659     1.0000 0.61798  0.47260  0.81847  Biso   1.000  C
  C660     1.0000 0.30194  0.90223  0.52600  Biso   1.000  C
  C661     1.0000 0.01422  0.27678  0.60883  Biso   1.000  C
  C662     1.0000 0.62214  0.98190  0.30952  Biso   1.000  C
  C663     1.0000 0.30791  0.60152  0.02439  Biso   1.000  C
  C664     1.0000 0.50871  0.28265  0.91646  Biso   1.000  C
  C665     1.0000 0.12440  0.99463  0.22442  Biso   1.000  C
  C666     1.0000 0.80084  0.56974  0.51579  Biso   1.000  C
  C667     1.0000 0.49174  0.77835  0.62088  Biso   1.000  C
  C668     1.0000 0.90075  0.51027  0.31565  Biso   1.000  C
  C669     1.0000 0.22701  0.10263  0.01515  Biso   1.000  C
  C670     1.0000 0.03003  0.78097  0.92790  Biso   1.000  C
  C671     1.0000 0.40416  0.49953  0.22290  Biso   1.000  C
  C672     1.0000 0.73187  0.07674  0.51901  Biso   1.000  C
  C673     1.0000 0.20610  0.99501  0.81854  Biso   1.000  C
  C674     1.0000 0.82123  0.18560  0.02620  Biso   1.000  C
  C675     1.0000 0.01395  0.80723  0.22346  Biso   1.000  C
  C676     1.0000 0.70448  0.00533  0.71351  Biso   1.000  C
  C677     1.0000 0.33539  0.19613  0.49187  Biso   1.000  C
  C678     1.0000 0.52372  0.79057  0.32880  Biso   1.000  C
  C679     1.0000 0.32007  0.49339  0.82060  Biso   1.000  C
  C680     1.0000 0.71693  0.68352  0.01860  Biso   1.000  C
  C681     1.0000 0.51885  0.28913  0.21398  Biso   1.000  C
  C682     1.0000 0.81733  0.47031  0.72222  Biso   1.000  C
  C683     1.0000 0.19321  0.70201  0.51551  Biso   1.000  C
  C684     1.0000 0.00606  0.30137  0.31633  Biso   1.000  C
  C685     1.0000 0.82610  0.97153  0.21378  Biso   1.000  C
  C686     1.0000 0.21627  0.81074  0.03542  Biso   1.000  C
  C687     1.0000 0.01921  0.17839  0.81306  Biso   1.000  C
  C688     1.0000 0.32241  0.99114  0.31891  Biso   1.000  C
  C689     1.0000 0.69621  0.77706  0.51441  Biso   1.000  C
  C690     1.0000 0.49732  0.18650  0.71359  Biso   1.000  C
  C691     1.0000 0.69832  0.49167  0.22667  Biso   1.000  C
  C692     1.0000 0.31847  0.30451  0.02887  Biso   1.000  C
  C693     1.0000 0.52007  0.68595  0.82704  Biso   1.000  C
  C694     1.0000 0.20266  0.51735  0.32336  Biso   1.000  C
  C695     1.0000 0.83421  0.28047  0.50141  Biso   1.000  C
  C696     1.0000 0.01471  0.68085  0.72155  Biso   1.000  C
  C697     1.0000 0.71674  0.97452  0.32333  Biso   1.000  C
  C698     1.0000 0.32392  0.69620  0.02518  Biso   1.000  C
  C699     1.0000 0.01264  0.28604  0.70613  Biso   1.000  C
  C700     1.0000 0.21960  0.99626  0.20587  Biso   1.000  C
  C701     1.0000 0.80415  0.66493  0.51721  Biso   1.000  C
  C702     1.0000 0.49493  0.29560  0.82265  Biso   1.000  C
  C703     1.0000 0.80722  0.49923  0.33711  Biso   1.000  C
  C704     1.0000 0.21297  0.19362  0.03128  Biso   1.000  C
  C705     1.0000 0.50731  0.79249  0.71474  Biso   1.000  C
  C706     1.0000 0.30644  0.51104  0.21022  Biso   1.000  C
  C707     1.0000 0.72387  0.17180  0.51028  Biso   1.000  C
  C708     1.0000 0.02784  0.78644  0.83442  Biso   1.000  C
  C709     1.0000 0.31224  0.00226  0.70970  Biso   1.000  C
  C710     1.0000 0.70803  0.29206  0.02652  Biso   1.000  C
  C711     1.0000 0.02031  0.69666  0.33151  Biso   1.000  C
  C712     1.0000 0.81457  0.00221  0.82598  Biso   1.000  C
  C713     1.0000 0.22694  0.31037  0.49968  Biso   1.000  C
  C714     1.0000 0.52155  0.68277  0.21780  Biso   1.000  C
  C715     1.0000 0.20873  0.48601  0.71110  Biso   1.000  C
  C716     1.0000 0.82168  0.79742  0.01461  Biso   1.000  C
  C717     1.0000 0.53302  0.18138  0.32511  Biso   1.000  C
  C718     1.0000 0.71336  0.47382  0.83284  Biso   1.000  C
  C719     1.0000 0.30219  0.80913  0.51595  Biso   1.000  C
  C720     1.0000 0.99530  0.19393  0.20503  Biso   1.000  C
  C721     1.0000 0.54564  0.79044  0.30618  Biso   1.000  C
  C722     1.0000 0.32447  0.50349  0.79078  Biso   1.000  C
  C723     1.0000 0.81084  0.27688  0.52257  Biso   1.000  C
  C724     1.0000 0.99247  0.78326  0.22410  Biso   1.000  C
  C725     1.0000 0.79138  0.48921  0.72003  Biso   1.000  C
  C726     1.0000 0.29387  0.30723  0.01087  Biso   1.000  C
  C727     1.0000 0.99350  0.27137  0.32060  Biso   1.000  C
  C728     1.0000 0.22892  0.01679  0.82102  Biso   1.000  C
  C729     1.0000 0.72368  0.78035  0.53155  Biso   1.000  C
  C730     1.0000 0.50258  0.29158  0.24131  Biso   1.000  C
  C731     1.0000 0.73199  0.98855  0.70908  Biso   1.000  C
  C732     1.0000 0.23590  0.80968  0.01154  Biso   1.000  C
  C733     1.0000 0.47251  0.18771  0.73372  Biso   1.000  C
  C734     1.0000 0.69174  0.47553  0.25491  Biso   1.000  C
  C735     1.0000 0.18724  0.72961  0.50302  Biso   1.000  C
  C736     1.0000 0.00131  0.20398  0.81542  Biso   1.000  C
  C737     1.0000 0.23059  0.50364  0.32792  Biso   1.000  C
  C738     1.0000 0.74388  0.68182  0.03506  Biso   1.000  C
  C739     1.0000 0.03100  0.67465  0.74756  Biso   1.000  C
  C740     1.0000 0.80062  0.95420  0.21154  Biso   1.000  C
  C741     1.0000 0.30881  0.19597  0.47358  Biso   1.000  C
  C742     1.0000 0.53740  0.68527  0.80065  Biso   1.000  C
  C743     1.0000 0.29481  0.97630  0.32104  Biso   1.000  C
  C744     1.0000 0.82517  0.21438  0.04122  Biso   1.000  C
  C745     1.0000 0.03125  0.72518  0.33871  Biso   1.000  C
  C746     1.0000 0.28755  0.02315  0.71009  Biso   1.000  C
  C747     1.0000 0.73072  0.29353  0.04921  Biso   1.000  C
  C748     1.0000 0.53766  0.70927  0.21479  Biso   1.000  C
  C749     1.0000 0.81504  0.98447  0.80070  Biso   1.000  C
  C750     1.0000 0.25591  0.31466  0.51342  Biso   1.000  C
  C751     1.0000 0.54913  0.17669  0.29794  Biso   1.000  C
  C752     1.0000 0.23367  0.46746  0.70916  Biso   1.000  C
  C753     1.0000 0.79877  0.79591  0.99290  Biso   1.000  C
  C754     1.0000 0.01769  0.21788  0.20382  Biso   1.000  C
  C755     1.0000 0.71021  0.45344  0.80822  Biso   1.000  C
  C756     1.0000 0.27718  0.80889  0.53669  Biso   1.000  C
  C757     1.0000 0.99264  0.26171  0.70209  Biso   1.000  C
  C758     1.0000 0.71409  0.99141  0.29560  Biso   1.000  C
  C759     1.0000 0.29868  0.69607  0.04415  Biso   1.000  C
  C760     1.0000 0.50974  0.30021  0.79611  Biso   1.000  C
  C761     1.0000 0.24365  0.01602  0.20647  Biso   1.000  C
  C762     1.0000 0.80784  0.69396  0.50191  Biso   1.000  C
  C763     1.0000 0.49684  0.79775  0.74515  Biso   1.000  C
  C764     1.0000 0.77990  0.51240  0.34418  Biso   1.000  C
  C765     1.0000 0.24100  0.19056  0.04821  Biso   1.000  C
  C766     1.0000 0.00395  0.78757  0.81105  Biso   1.000  C
  C767     1.0000 0.31442  0.52234  0.24044  Biso   1.000  C
  C768     1.0000 0.72225  0.19539  0.48633  Biso   1.000  C
  C769     1.0000 0.49828  0.70966  0.82989  Biso   1.000  C
  C770     1.0000 0.82077  0.45212  0.74692  Biso   1.000  C
  C771     1.0000 0.69310  0.75088  0.49721  Biso   1.000  C
  C772     1.0000 0.00134  0.71005  0.72072  Biso   1.000  C
  C773     1.0000 0.29075  0.48222  0.82668  Biso   1.000  C
  C774     1.0000 0.22044  0.79055  0.05837  Biso   1.000  C
  C775     1.0000 0.03401  0.17439  0.78369  Biso   1.000  C
  C776     1.0000 0.70368  0.02475  0.73727  Biso   1.000  C
  C777     1.0000 0.83476  0.26026  0.47702  Biso   1.000  C
  C778     1.0000 0.51667  0.21203  0.71401  Biso   1.000  C
  C779     1.0000 0.20639  0.97530  0.79364  Biso   1.000  C
  C780     1.0000 0.32119  0.28047  0.04908  Biso   1.000  C
  C781     1.0000 0.53707  0.26196  0.20959  Biso   1.000  C
  C782     1.0000 0.19812  0.53312  0.29535  Biso   1.000  C
  C783     1.0000 0.34036  0.22264  0.51070  Biso   1.000  C
  C784     1.0000 0.01859  0.30564  0.28740  Biso   1.000  C
  C785     1.0000 0.72424  0.51048  0.22424  Biso   1.000  C
  C786     1.0000 0.79227  0.18157  0.01183  Biso   1.000  C
  C787     1.0000 0.03404  0.80994  0.24752  Biso   1.000  C
  C788     1.0000 0.33006  0.00323  0.29106  Biso   1.000  C
  C789     1.0000 0.22221  0.69811  0.52667  Biso   1.000  C
  C790     1.0000 0.50296  0.76688  0.32844  Biso   1.000  C
  C791     1.0000 0.83020  0.98802  0.24113  Biso   1.000  C
  C792     1.0000 0.71220  0.70672  0.99922  Biso   1.000  C
  C793     1.0000 0.51752  0.20911  0.32913  Biso   1.000  C
  C794     1.0000 0.27725  0.50161  0.20681  Biso   1.000  C
  C795     1.0000 0.22399  0.28576  0.48067  Biso   1.000  C
  C796     1.0000 0.97227  0.19508  0.22700  Biso   1.000  C
  C797     1.0000 0.80827  0.48735  0.30835  Biso   1.000  C
  C798     1.0000 0.70706  0.26919  0.00566  Biso   1.000  C
  C799     1.0000 0.00743  0.69216  0.30272  Biso   1.000  C
  C800     1.0000 0.21756  0.97236  0.22588  Biso   1.000  C
  C801     1.0000 0.30414  0.78721  0.49355  Biso   1.000  C
  C802     1.0000 0.50665  0.67739  0.24579  Biso   1.000  C
  C803     1.0000 0.74264  0.95492  0.32552  Biso   1.000  C
  C804     1.0000 0.82209  0.77488  0.03629  Biso   1.000  C
  C805     1.0000 0.51666  0.76304  0.70908  Biso   1.000  C
  C806     1.0000 0.73913  0.48991  0.83564  Biso   1.000  C
  C807     1.0000 0.77641  0.66047  0.53349  Biso   1.000  C
  C808     1.0000 0.04785  0.76119  0.83327  Biso   1.000  C
  C809     1.0000 0.20529  0.50328  0.73816  Biso   1.000  C
  C810     1.0000 0.32827  0.72262  0.00831  Biso   1.000  C
  C811     1.0000 0.03124  0.28513  0.73235  Biso   1.000  C
  C812     1.0000 0.78954  0.02300  0.82585  Biso   1.000  C
  C813     1.0000 0.75196  0.17222  0.52653  Biso   1.000  C
  C814     1.0000 0.47734  0.26979  0.82582  Biso   1.000  C
  C815     1.0000 0.31384  0.98011  0.73305  Biso   1.000  C
  C816     1.0000 0.20855  0.22002  0.01458  Biso   1.000  C
  C817     1.0000 0.99449  0.22139  0.79207  Biso   1.000  C
  C818     1.0000 0.78073  0.95416  0.23320  Biso   1.000  C
  C819     1.0000 0.25796  0.78914  0.01296  Biso   1.000  C
  C820     1.0000 0.46943  0.21214  0.75235  Biso   1.000  C
  C821     1.0000 0.27479  0.97764  0.29874  Biso   1.000  C
  C822     1.0000 0.74287  0.75639  0.53407  Biso   1.000  C
  C823     1.0000 0.53444  0.70644  0.77939  Biso   1.000  C
  C824     1.0000 0.71339  0.47988  0.27684  Biso   1.000  C
  C825     1.0000 0.27202  0.28703  0.01101  Biso   1.000  C
  C826     1.0000 0.03298  0.69499  0.77081  Biso   1.000  C
  C827     1.0000 0.25010  0.50270  0.30543  Biso   1.000  C
  C828     1.0000 0.78988  0.25487  0.52097  Biso   1.000  C
  C829     1.0000 0.99343  0.76594  0.24851  Biso   1.000  C
  C830     1.0000 0.25028  0.01807  0.80016  Biso   1.000  C
  C831     1.0000 0.80405  0.23646  0.03999  Biso   1.000  C
  C832     1.0000 0.54581  0.76877  0.28587  Biso   1.000  C
  C833     1.0000 0.75248  0.99057  0.73029  Biso   1.000  C
  C834     1.0000 0.29087  0.22006  0.47304  Biso   1.000  C
  C835     1.0000 0.50907  0.27020  0.26297  Biso   1.000  C
  C836     1.0000 0.30105  0.50206  0.77047  Biso   1.000  C
  C837     1.0000 0.76413  0.70327  0.03277  Biso   1.000  C
  C838     1.0000 0.99141  0.25078  0.29865  Biso   1.000  C
  C839     1.0000 0.77090  0.48765  0.74165  Biso   1.000  C
  C840     1.0000 0.20774  0.75186  0.50112  Biso   1.000  C
  C841     1.0000 0.22787  0.97864  0.77238  Biso   1.000  C
  C842     1.0000 0.77049  0.20333  0.01286  Biso   1.000  C
  C843     1.0000 0.03470  0.78902  0.27014  Biso   1.000  C
  C844     1.0000 0.72376  0.02487  0.75884  Biso   1.000  C
  C845     1.0000 0.32130  0.24642  0.50896  Biso   1.000  C
  C846     1.0000 0.50221  0.74724  0.30626  Biso   1.000  C
  C847     1.0000 0.26867  0.48351  0.80558  Biso   1.000  C
  C848     1.0000 0.73266  0.72898  0.99829  Biso   1.000  C
  C849     1.0000 0.54243  0.24320  0.23213  Biso   1.000  C
  C850     1.0000 0.80028  0.45110  0.76950  Biso   1.000  C
  C851     1.0000 0.24239  0.71933  0.52394  Biso   1.000  C
  C852     1.0000 0.01157  0.28494  0.26566  Biso   1.000  C
  C853     1.0000 0.81078  0.98466  0.26443  Biso   1.000  C
  C854     1.0000 0.24299  0.76924  0.05817  Biso   1.000  C
  C855     1.0000 0.02874  0.19421  0.76180  Biso   1.000  C
  C856     1.0000 0.31100  0.99999  0.26762  Biso   1.000  C
  C857     1.0000 0.71405  0.72964  0.49799  Biso   1.000  C
  C858     1.0000 0.51582  0.23250  0.73582  Biso   1.000  C
  C859     1.0000 0.74074  0.51540  0.24852  Biso   1.000  C
  C860     1.0000 0.29894  0.26055  0.04889  Biso   1.000  C
  C861     1.0000 0.49494  0.73026  0.80813  Biso   1.000  C
  C862     1.0000 0.21906  0.52968  0.27353  Biso   1.000  C
  C863     1.0000 0.81333  0.23836  0.47766  Biso   1.000  C
  C864     1.0000 0.00525  0.72868  0.74332  Biso   1.000  C
  C865     1.0000 0.73258  0.45358  0.78895  Biso   1.000  C
  C866     1.0000 0.78566  0.71416  0.50363  Biso   1.000  C
  C867     1.0000 0.49916  0.77691  0.76629  Biso   1.000  C
  C868     1.0000 0.25426  0.46896  0.73248  Biso   1.000  C
  C869     1.0000 0.27853  0.71825  0.04745  Biso   1.000  C
  C870     1.0000 0.00156  0.76586  0.79077  Biso   1.000  C
  C871     1.0000 0.79460  0.98892  0.77864  Biso   1.000  C
  C872     1.0000 0.74378  0.21491  0.48255  Biso   1.000  C
  C873     1.0000 0.99012  0.24054  0.72318  Biso   1.000  C
  C874     1.0000 0.26773  0.01980  0.73193  Biso   1.000  C
  C875     1.0000 0.26147  0.21326  0.04662  Biso   1.000  C
  C876     1.0000 0.50830  0.27970  0.77379  Biso   1.000  C
  C877     1.0000 0.29455  0.52405  0.26240  Biso   1.000  C
  C878     1.0000 0.27972  0.29476  0.50849  Biso   1.000  C
  C879     1.0000 0.54940  0.19853  0.27738  Biso   1.000  C
  C880     1.0000 0.75700  0.51391  0.32375  Biso   1.000  C
  C881     1.0000 0.75237  0.27263  0.04909  Biso   1.000  C
  C882     1.0000 0.01815  0.23923  0.22428  Biso   1.000  C
  C883     1.0000 0.26443  0.01333  0.22723  Biso   1.000  C
  C884     1.0000 0.25689  0.78610  0.53280  Biso   1.000  C
  C885     1.0000 0.02859  0.75011  0.31969  Biso   1.000  C
  C886     1.0000 0.73660  0.98886  0.27525  Biso   1.000  C
  C887     1.0000 0.77903  0.77305  0.99228  Biso   1.000  C
  C888     1.0000 0.53930  0.72982  0.23621  Biso   1.000  C
  C889     1.0000 0.76318  0.95203  0.30398  Biso   1.000  C
  C890     1.0000 0.30613  0.74351  0.01136  Biso   1.000  C
  C891     1.0000 0.02912  0.26205  0.75242  Biso   1.000  C
  C892     1.0000 0.24063  0.96827  0.24599  Biso   1.000  C
  C893     1.0000 0.75472  0.68181  0.53317  Biso   1.000  C
  C894     1.0000 0.47566  0.24905  0.80293  Biso   1.000  C
  C895     1.0000 0.78461  0.48730  0.28956  Biso   1.000  C
  C896     1.0000 0.22931  0.24214  0.01520  Biso   1.000  C
  C897     1.0000 0.52043  0.74349  0.73199  Biso   1.000  C
  C898     1.0000 0.25772  0.50336  0.22978  Biso   1.000  C
  C899     1.0000 0.77207  0.19434  0.52317  Biso   1.000  C
  C900     1.0000 0.04398  0.74055  0.81132  Biso   1.000  C
  C901     1.0000 0.29310  0.97920  0.75416  Biso   1.000  C
  C902     1.0000 0.72973  0.24812  0.00775  Biso   1.000  C
  C903     1.0000 0.00885  0.71613  0.28435  Biso   1.000  C
  C904     1.0000 0.76861  0.02431  0.80367  Biso   1.000  C
  C905     1.0000 0.24579  0.26588  0.47861  Biso   1.000  C
  C906     1.0000 0.50650  0.69981  0.26607  Biso   1.000  C
  C907     1.0000 0.22668  0.50232  0.76026  Biso   1.000  C
  C908     1.0000 0.80060  0.75186  0.03620  Biso   1.000  C
  C909     1.0000 0.51940  0.22879  0.30811  Biso   1.000  C
  C910     1.0000 0.75930  0.49135  0.81333  Biso   1.000  C
  C911     1.0000 0.28180  0.76711  0.49095  Biso   1.000  C
  C912     1.0000 0.97401  0.21694  0.24847  Biso   1.000  C
  C913     1.0000 0.77738  0.47028  0.76628  Biso   1.000  C
  C914     1.0000 0.73737  0.73143  0.51806  Biso   1.000  C
  C915     1.0000 0.51338  0.72838  0.78255  Biso   1.000  C
  C916     1.0000 0.27374  0.49306  0.77875  Biso   1.000  C
  C917     1.0000 0.25916  0.76670  0.03369  Biso   1.000  C
  C918     1.0000 0.01870  0.72127  0.76926  Biso   1.000  C
  C919     1.0000 0.74898  0.00838  0.75484  Biso   1.000  C
  C920     1.0000 0.79122  0.23613  0.49900  Biso   1.000  C
  C921     1.0000 0.00976  0.21668  0.76728  Biso   1.000  C
  C922     1.0000 0.25002  0.99788  0.77780  Biso   1.000  C
  C923     1.0000 0.27467  0.26354  0.03100  Biso   1.000  C
  C924     1.0000 0.49202  0.23244  0.75500  Biso   1.000  C
  C925     1.0000 0.24467  0.51516  0.27821  Biso   1.000  C
  C926     1.0000 0.29645  0.24579  0.49020  Biso   1.000  C
  C927     1.0000 0.52830  0.24616  0.25974  Biso   1.000  C
  C928     1.0000 0.73629  0.49967  0.27375  Biso   1.000  C
  C929     1.0000 0.77661  0.22918  0.02719  Biso   1.000  C
  C930     1.0000 0.99871  0.25828  0.27014  Biso   1.000  C
  C931     1.0000 0.28322  0.98899  0.27143  Biso   1.000  C
  C932     1.0000 0.23573  0.74465  0.51030  Biso   1.000  C
  C933     1.0000 0.01430  0.76787  0.27114  Biso   1.000  C
  C934     1.0000 0.78472  0.96963  0.25966  Biso   1.000  C
  C935     1.0000 0.75794  0.72699  0.01587  Biso   1.000  C
  C936     1.0000 0.52380  0.74781  0.28568  Biso   1.000  C
  C937     1.0000 0.75270  0.25079  0.02815  Biso   1.000  C
  C938     1.0000 0.01713  0.74465  0.29271  Biso   1.000  C
  C939     1.0000 0.27110  0.00005  0.75504  Biso   1.000  C
  C940     1.0000 0.27329  0.26785  0.49364  Biso   1.000  C
  C941     1.0000 0.52299  0.72570  0.26258  Biso   1.000  C
  C942     1.0000 0.77140  0.00782  0.77977  Biso   1.000  C
  C943     1.0000 0.77972  0.75031  0.01410  Biso   1.000  C
  C944     1.0000 0.53284  0.22407  0.28148  Biso   1.000  C
  C945     1.0000 0.25263  0.48841  0.75576  Biso   1.000  C
  C946     1.0000 0.25960  0.76636  0.51072  Biso   1.000  C
  C947     1.0000 0.99579  0.23872  0.24616  Biso   1.000  C
  C948     1.0000 0.75648  0.47151  0.79111  Biso   1.000  C
  C949     1.0000 0.28276  0.74242  0.03070  Biso   1.000  C
  C950     1.0000 0.00996  0.23933  0.74591  Biso   1.000  C
  C951     1.0000 0.76066  0.96965  0.28001  Biso   1.000  C
  C952     1.0000 0.76089  0.70863  0.51957  Biso   1.000  C
  C953     1.0000 0.49179  0.25410  0.77789  Biso   1.000  C
  C954     1.0000 0.26345  0.98967  0.24670  Biso   1.000  C
  C955     1.0000 0.25558  0.23854  0.03021  Biso   1.000  C
  C956     1.0000 0.51015  0.74953  0.75972  Biso   1.000  C
  C957     1.0000 0.75964  0.50038  0.29687  Biso   1.000  C
  C958     1.0000 0.76852  0.21431  0.50017  Biso   1.000  C
  C959     1.0000 0.02148  0.74361  0.79147  Biso   1.000  C
  C960     1.0000 0.26670  0.51337  0.25651  Biso   1.000  C
  Cu1      1.0000 0.01104  0.48354  0.67636  Biso   1.000  Cu
  Cu2      1.0000 0.66798  0.97572  0.51818  Biso   1.000  Cu
  Cu3      1.0000 0.51728  0.65069  0.01880  Biso   1.000  Cu
  Cu4      1.0000 0.51641  0.48958  0.86740  Biso   1.000  Cu
  Cu5      1.0000 0.16760  0.00390  0.01167  Biso   1.000  Cu
  Cu6      1.0000 0.00062  0.64365  0.52580  Biso   1.000  Cu
  Cu7      1.0000 0.50788  0.98710  0.66948  Biso   1.000  Cu
  Cu8      1.0000 0.85794  0.47411  0.52895  Biso   1.000  Cu
  Cu9      1.0000 0.01748  0.14661  0.01141  Biso   1.000  Cu
  Cu10     1.0000 0.01026  0.98174  0.86498  Biso   1.000  Cu
  Cu11     1.0000 0.36262  0.49529  0.01560  Biso   1.000  Cu
  Cu12     1.0000 0.52762  0.13981  0.52280  Biso   1.000  Cu
  Cu13     1.0000 0.00817  0.49635  0.36462  Biso   1.000  Cu
  Cu14     1.0000 0.36446  0.00175  0.51714  Biso   1.000  Cu
  Cu15     1.0000 0.51818  0.33771  0.01678  Biso   1.000  Cu
  Cu16     1.0000 0.50644  0.48727  0.16941  Biso   1.000  Cu
  Cu17     1.0000 0.86564  0.99087  0.01924  Biso   1.000  Cu
  Cu18     1.0000 0.02857  0.34088  0.51167  Biso   1.000  Cu
  Cu19     1.0000 0.52143  0.98785  0.36519  Biso   1.000  Cu
  Cu20     1.0000 0.16926  0.50153  0.51914  Biso   1.000  Cu
  Cu21     1.0000 0.02060  0.83904  0.02564  Biso   1.000  Cu
  Cu22     1.0000 0.01825  0.99900  0.17107  Biso   1.000  Cu
  Cu23     1.0000 0.66837  0.48874  0.02828  Biso   1.000  Cu
  Cu24     1.0000 0.50239  0.83270  0.51949  Biso   1.000  Cu
  Cu25     1.0000 0.22194  0.00078  0.01289  Biso   1.000  Cu
  Cu26     1.0000 0.01589  0.19952  0.00685  Biso   1.000  Cu
  Cu27     1.0000 0.02007  0.00241  0.22501  Biso   1.000  Cu
  Cu28     1.0000 0.72341  0.97193  0.52298  Biso   1.000  Cu
  Cu29     1.0000 0.53061  0.19382  0.52198  Biso   1.000  Cu
  Cu30     1.0000 0.51865  0.98630  0.31095  Biso   1.000  Cu
  Cu31     1.0000 0.30786  0.49739  0.01282  Biso   1.000  Cu
  Cu32     1.0000 0.51970  0.70495  0.02097  Biso   1.000  Cu
  Cu33     1.0000 0.50376  0.48865  0.22449  Biso   1.000  Cu
  Cu34     1.0000 0.80459  0.47265  0.52801  Biso   1.000  Cu
  Cu35     1.0000 0.99404  0.69844  0.52894  Biso   1.000  Cu
  Cu36     1.0000 0.00686  0.49937  0.31172  Biso   1.000  Cu
  Cu37     1.0000 0.81184  0.98899  0.02114  Biso   1.000  Cu
  Cu38     1.0000 0.02226  0.78595  0.02801  Biso   1.000  Cu
  Cu39     1.0000 0.00522  0.98173  0.80989  Biso   1.000  Cu
  Cu40     1.0000 0.30851  0.00276  0.51414  Biso   1.000  Cu
  Cu41     1.0000 0.49894  0.77735  0.51983  Biso   1.000  Cu
  Cu42     1.0000 0.50762  0.98728  0.72329  Biso   1.000  Cu
  Cu43     1.0000 0.72166  0.48904  0.03015  Biso   1.000  Cu
  Cu44     1.0000 0.51492  0.28417  0.01604  Biso   1.000  Cu
  Cu45     1.0000 0.51901  0.48966  0.81290  Biso   1.000  Cu
  Cu46     1.0000 0.22530  0.50550  0.51619  Biso   1.000  Cu
  Cu47     1.0000 0.03257  0.28747  0.50930  Biso   1.000  Cu
  Cu48     1.0000 0.01729  0.48018  0.72984  Biso   1.000  Cu
  H1       1.0000 0.24098  0.78225  0.54893  Biso   1.000  H
  H2       1.0000 0.51644  0.28347  0.75237  Biso   1.000  H
  H3       1.0000 0.73696  0.52577  0.33050  Biso   1.000  H
  H4       1.0000 0.76323  0.77597  0.97583  Biso   1.000  H
  H5       1.0000 0.97690  0.22204  0.71888  Biso   1.000  H
  H6       1.0000 0.29817  0.53514  0.28363  Biso   1.000  H
  H7       1.0000 0.30078  0.29958  0.51985  Biso   1.000  H
  H8       1.0000 0.98310  0.76437  0.77467  Biso   1.000  H
  H9       1.0000 0.73595  0.99988  0.25494  Biso   1.000  H
  H10      1.0000 0.76991  0.27398  0.06494  Biso   1.000  H
  H11      1.0000 0.49398  0.78055  0.78905  Biso   1.000  H
  H12      1.0000 0.28299  0.02782  0.22758  Biso   1.000  H
  H13      1.0000 0.74044  0.23063  0.46482  Biso   1.000  H
  H14      1.0000 0.55542  0.74825  0.23331  Biso   1.000  H
  H15      1.0000 0.27262  0.45410  0.73074  Biso   1.000  H
  H16      1.0000 0.28338  0.20950  0.05519  Biso   1.000  H
  H17      1.0000 0.03451  0.77194  0.32704  Biso   1.000  H
  H18      1.0000 0.72895  0.44248  0.76935  Biso   1.000  H
  H19      1.0000 0.78719  0.73496  0.49324  Biso   1.000  H
  H20      1.0000 0.03532  0.25599  0.22470  Biso   1.000  H
  H21      1.0000 0.24670  0.03400  0.72839  Biso   1.000  H
  H22      1.0000 0.26181  0.71553  0.06454  Biso   1.000  H
  H23      1.0000 0.56071  0.19639  0.25828  Biso   1.000  H
  H24      1.0000 0.79587  0.97797  0.75869  Biso   1.000  H
  H25      1.0000 0.26726  0.03437  0.80244  Biso   1.000  H
  H26      1.0000 0.80779  0.25658  0.04976  Biso   1.000  H
  H27      1.0000 0.97689  0.74927  0.25006  Biso   1.000  H
  H28      1.0000 0.77241  0.97891  0.72573  Biso   1.000  H
  H29      1.0000 0.27075  0.21829  0.46025  Biso   1.000  H
  H30      1.0000 0.56420  0.76899  0.26997  Biso   1.000  H
  H31      1.0000 0.30632  0.50906  0.74853  Biso   1.000  H
  H32      1.0000 0.78554  0.69745  0.04452  Biso   1.000  H
  H33      1.0000 0.49750  0.27395  0.28354  Biso   1.000  H
  H34      1.0000 0.75116  0.50103  0.73976  Biso   1.000  H
  H35      1.0000 0.20561  0.77005  0.48732  Biso   1.000  H
  H36      1.0000 0.98171  0.22918  0.30411  Biso   1.000  H
  H37      1.0000 0.76171  0.94027  0.23124  Biso   1.000  H
  H38      1.0000 0.27266  0.78859  0.99310  Biso   1.000  H
  H39      1.0000 0.97672  0.23697  0.79188  Biso   1.000  H
  H40      1.0000 0.25393  0.96861  0.30252  Biso   1.000  H
  H41      1.0000 0.76183  0.75681  0.54753  Biso   1.000  H
  H42      1.0000 0.44821  0.21470  0.76317  Biso   1.000  H
  H43      1.0000 0.71077  0.46710  0.29611  Biso   1.000  H
  H44      1.0000 0.25135  0.29103  0.00167  Biso   1.000  H
  H45      1.0000 0.54882  0.70685  0.76136  Biso   1.000  H
  H46      1.0000 0.26975  0.48959  0.30822  Biso   1.000  H
  H47      1.0000 0.77351  0.25032  0.53604  Biso   1.000  H
  H48      1.0000 0.04669  0.68894  0.78907  Biso   1.000  H
  H49      1.0000 0.21425  0.53506  0.25115  Biso   1.000  H
  H50      1.0000 0.32261  0.26417  0.52600  Biso   1.000  H
  H51      1.0000 0.55807  0.22483  0.22954  Biso   1.000  H
  H52      1.0000 0.75756  0.53343  0.24763  Biso   1.000  H
  H53      1.0000 0.75021  0.19711  0.00171  Biso   1.000  H
  H54      1.0000 0.01508  0.29165  0.24287  Biso   1.000  H
  H55      1.0000 0.31773  0.00977  0.24713  Biso   1.000  H
  H56      1.0000 0.26315  0.71414  0.53393  Biso   1.000  H
  H57      1.0000 0.05249  0.79141  0.28636  Biso   1.000  H
  H58      1.0000 0.81360  0.99500  0.28528  Biso   1.000  H
  H59      1.0000 0.73118  0.74650  0.98279  Biso   1.000  H
  H60      1.0000 0.48334  0.73179  0.30471  Biso   1.000  H
  H61      1.0000 0.80351  0.43635  0.78800  Biso   1.000  H
  H62      1.0000 0.71164  0.71024  0.48498  Biso   1.000  H
  H63      1.0000 0.48117  0.74895  0.81396  Biso   1.000  H
  H64      1.0000 0.24627  0.47563  0.81105  Biso   1.000  H
  H65      1.0000 0.24892  0.75768  0.07767  Biso   1.000  H
  H66      1.0000 0.99331  0.74944  0.74155  Biso   1.000  H
  H67      1.0000 0.71751  0.03915  0.77761  Biso   1.000  H
  H68      1.0000 0.81377  0.22346  0.45857  Biso   1.000  H
  H69      1.0000 0.04164  0.19460  0.74219  Biso   1.000  H
  H70      1.0000 0.22596  0.96725  0.75130  Biso   1.000  H
  H71      1.0000 0.30080  0.24377  0.06593  Biso   1.000  H
  H72      1.0000 0.53535  0.24549  0.73931  Biso   1.000  H
  H73      1.0000 0.77639  0.50661  0.80948  Biso   1.000  H
  H74      1.0000 0.73344  0.68046  0.54273  Biso   1.000  H
  H75      1.0000 0.53452  0.72530  0.72879  Biso   1.000  H
  H76      1.0000 0.22576  0.51485  0.77875  Biso   1.000  H
  H77      1.0000 0.31145  0.76394  0.99967  Biso   1.000  H
  H78      1.0000 0.05655  0.72080  0.81096  Biso   1.000  H
  H79      1.0000 0.74992  0.04052  0.80641  Biso   1.000  H
  H80      1.0000 0.79083  0.19348  0.53795  Biso   1.000  H
  H81      1.0000 0.04113  0.25894  0.77139  Biso   1.000  H
  H82      1.0000 0.29366  0.96316  0.77050  Biso   1.000  H
  H83      1.0000 0.22382  0.26308  0.00578  Biso   1.000  H
  H84      1.0000 0.46086  0.23127  0.80946  Biso   1.000  H
  H85      1.0000 0.23703  0.49278  0.22744  Biso   1.000  H
  H86      1.0000 0.24370  0.24657  0.46575  Biso   1.000  H
  H87      1.0000 0.51026  0.24940  0.31186  Biso   1.000  H
  H88      1.0000 0.78644  0.47626  0.26784  Biso   1.000  H
  H89      1.0000 0.73170  0.23191  0.99088  Biso   1.000  H
  H90      1.0000 0.95656  0.21677  0.26372  Biso   1.000  H
  H91      1.0000 0.24149  0.95113  0.26130  Biso   1.000  H
  H92      1.0000 0.28219  0.75006  0.47440  Biso   1.000  H
  H93      1.0000 0.00154  0.71254  0.26302  Biso   1.000  H
  H94      1.0000 0.78113  0.93617  0.30739  Biso   1.000  H
  H95      1.0000 0.80180  0.73742  0.05457  Biso   1.000  H
  H96      1.0000 0.49563  0.69786  0.28556  Biso   1.000  H
  H97      1.0000 0.88073  0.99348  0.92992  Biso   1.000  H
  H98      1.0000 0.93553  0.85660  0.01427  Biso   1.000  H
  H99      1.0000 0.02261  0.89616  0.88726  Biso   1.000  H
  H100     1.0000 0.37583  0.00832  0.60702  Biso   1.000  H
  H101     1.0000 0.41211  0.85985  0.52090  Biso   1.000  H
  H102     1.0000 0.51915  0.89362  0.64852  Biso   1.000  H
  H103     1.0000 0.65250  0.47900  0.93647  Biso   1.000  H
  H104     1.0000 0.60392  0.35526  0.01157  Biso   1.000  H
  H105     1.0000 0.51511  0.39807  0.88357  Biso   1.000  H
  H106     1.0000 0.14952  0.48689  0.60168  Biso   1.000  H
  H107     1.0000 0.11965  0.36658  0.50281  Biso   1.000  H
  H108     1.0000 0.00972  0.39312  0.65024  Biso   1.000  H
  H109     1.0000 0.14769  0.00402  0.10794  Biso   1.000  H
  H110     1.0000 0.10863  0.12995  0.01040  Biso   1.000  H
  H111     1.0000 0.01081  0.08916  0.14598  Biso   1.000  H
  H112     1.0000 0.65104  0.96374  0.42358  Biso   1.000  H
  H113     1.0000 0.61648  0.11530  0.52433  Biso   1.000  H
  H114     1.0000 0.53343  0.07743  0.38509  Biso   1.000  H
  H115     1.0000 0.37470  0.50065  0.10940  Biso   1.000  H
  H116     1.0000 0.42588  0.63306  0.00850  Biso   1.000  H
  H117     1.0000 0.51730  0.58326  0.14911  Biso   1.000  H
  H118     1.0000 0.87904  0.48223  0.43439  Biso   1.000  H
  H119     1.0000 0.91553  0.61492  0.52816  Biso   1.000  H
  H120     1.0000 0.00691  0.59107  0.39152  Biso   1.000  H
  H121     1.0000 0.10114  0.98975  0.88244  Biso   1.000  H
  H122     1.0000 0.88266  0.08049  0.03058  Biso   1.000  H
  H123     1.0000 0.02610  0.86213  0.11568  Biso   1.000  H
  H124     1.0000 0.60163  0.99097  0.64587  Biso   1.000  H
  H125     1.0000 0.38654  0.08636  0.50782  Biso   1.000  H
  H126     1.0000 0.50493  0.85296  0.43072  Biso   1.000  H
  H127     1.0000 0.42663  0.50708  0.87945  Biso   1.000  H
  H128     1.0000 0.64735  0.58438  0.02608  Biso   1.000  H
  H129     1.0000 0.51538  0.35392  0.11092  Biso   1.000  H
  H130     1.0000 0.92062  0.46247  0.66086  Biso   1.000  H
  H131     1.0000 0.13934  0.59348  0.52859  Biso   1.000  H
  H132     1.0000 0.01483  0.36067  0.42463  Biso   1.000  H
  H133     1.0000 0.92949  0.98030  0.15116  Biso   1.000  H
  H134     1.0000 0.14843  0.90905  0.02406  Biso   1.000  H
  H135     1.0000 0.02345  0.12141  0.92378  Biso   1.000  H
  H136     1.0000 0.42795  0.98915  0.38406  Biso   1.000  H
  H137     1.0000 0.64359  0.88780  0.51912  Biso   1.000  H
  H138     1.0000 0.51864  0.11917  0.61584  Biso   1.000  H
  H139     1.0000 0.59914  0.46665  0.15493  Biso   1.000  H
  H140     1.0000 0.38590  0.40411  0.01506  Biso   1.000  H
  H141     1.0000 0.52701  0.62570  0.93023  Biso   1.000  H
  H142     1.0000 0.10015  0.49079  0.38776  Biso   1.000  H
  H143     1.0000 0.88500  0.38792  0.51680  Biso   1.000  H
  H144     1.0000 0.00537  0.61755  0.61638  Biso   1.000  H
  H145     1.0000 0.60804  0.48022  0.89651  Biso   1.000  H
  H146     1.0000 0.87656  0.56504  0.52612  Biso   1.000  H
  H147     1.0000 0.50649  0.85197  0.60869  Biso   1.000  H
  H148     1.0000 0.10432  0.48119  0.64742  Biso   1.000  H
  H149     1.0000 0.38209  0.58792  0.00970  Biso   1.000  H
  H150     1.0000 0.02401  0.85724  0.93619  Biso   1.000  H
  H151     1.0000 0.91963  0.98719  0.88756  Biso   1.000  H
  H152     1.0000 0.65434  0.07058  0.51588  Biso   1.000  H
  H153     1.0000 0.01368  0.35275  0.60428  Biso   1.000  H
  H154     1.0000 0.42028  0.00294  0.65040  Biso   1.000  H
  H155     1.0000 0.15092  0.08858  0.02039  Biso   1.000  H
  H156     1.0000 0.51125  0.35911  0.92607  Biso   1.000  H
  H157     1.0000 0.41252  0.50108  0.14888  Biso   1.000  H
  H158     1.0000 0.15657  0.41170  0.49635  Biso   1.000  H
  H159     1.0000 0.52565  0.11989  0.43231  Biso   1.000  H
  H160     1.0000 0.91836  0.49355  0.38787  Biso   1.000  H
  H161     1.0000 0.64746  0.39965  0.02399  Biso   1.000  H
  H162     1.0000 0.00906  0.12990  0.10103  Biso   1.000  H
  H163     1.0000 0.10781  0.00316  0.15047  Biso   1.000  H
  H164     1.0000 0.37957  0.90328  0.52853  Biso   1.000  H
  H165     1.0000 0.00684  0.63128  0.43340  Biso   1.000  H
  H166     1.0000 0.60927  0.97775  0.38442  Biso   1.000  H
  H167     1.0000 0.88764  0.90146  0.01062  Biso   1.000  H
  H168     1.0000 0.50994  0.62361  0.11095  Biso   1.000  H
  H169     1.0000 0.02132  0.07522  0.87974  Biso   1.000  H
  H170     1.0000 0.88804  0.98111  0.10969  Biso   1.000  H
  H171     1.0000 0.10914  0.86656  0.03963  Biso   1.000  H
  H172     1.0000 0.50609  0.07997  0.65336  Biso   1.000  H
  H173     1.0000 0.38442  0.98750  0.42320  Biso   1.000  H
  H174     1.0000 0.59778  0.84687  0.52639  Biso   1.000  H
  H175     1.0000 0.53164  0.58129  0.89058  Biso   1.000  H
  H176     1.0000 0.65087  0.47805  0.11509  Biso   1.000  H
  H177     1.0000 0.42933  0.36034  0.01465  Biso   1.000  H
  H178     1.0000 0.99968  0.57399  0.65921  Biso   1.000  H
  H179     1.0000 0.14554  0.50075  0.43259  Biso   1.000  H
  H180     1.0000 0.93088  0.35105  0.52101  Biso   1.000  H
  H181     1.0000 0.02908  0.90580  0.15385  Biso   1.000  H
  H182     1.0000 0.14586  0.99694  0.92392  Biso   1.000  H
  H183     1.0000 0.92562  0.12242  0.01453  Biso   1.000  H
  H184     1.0000 0.51278  0.89614  0.39010  Biso   1.000  H
  H185     1.0000 0.64329  0.99277  0.60697  Biso   1.000  H
  H186     1.0000 0.43282  0.12643  0.51072  Biso   1.000  H
  H187     1.0000 0.51280  0.39176  0.14927  Biso   1.000  H
  H188     1.0000 0.38546  0.50485  0.92645  Biso   1.000  H
  H189     1.0000 0.60969  0.62641  0.02443  Biso   1.000  H
  H190     1.0000 0.00245  0.40522  0.38086  Biso   1.000  H
  H191     1.0000 0.88090  0.46856  0.61774  Biso   1.000  H
  H192     1.0000 0.09382  0.63486  0.53926  Biso   1.000  H
  H193     1.0000 0.27427  0.86600  0.52143  Biso   1.000  H
  H194     1.0000 0.50304  0.26224  0.87810  Biso   1.000  H
  H195     1.0000 0.85619  0.51403  0.29863  Biso   1.000  H
  H196     1.0000 0.78916  0.85013  0.01532  Biso   1.000  H
  H197     1.0000 0.01187  0.25340  0.65211  Biso   1.000  H
  H198     1.0000 0.36162  0.50297  0.24591  Biso   1.000  H
  H199     1.0000 0.25538  0.36203  0.49327  Biso   1.000  H
  H200     1.0000 0.03605  0.75528  0.88982  Biso   1.000  H
  H201     1.0000 0.66242  0.97810  0.28754  Biso   1.000  H
  H202     1.0000 0.74248  0.34141  0.03766  Biso   1.000  H
  H203     1.0000 0.48771  0.76043  0.66427  Biso   1.000  H
  H204     1.0000 0.16932  0.99556  0.24304  Biso   1.000  H
  H205     1.0000 0.75630  0.11907  0.51780  Biso   1.000  H
  H206     1.0000 0.51597  0.71553  0.16874  Biso   1.000  H
  H207     1.0000 0.15899  0.47297  0.74260  Biso   1.000  H
  H208     1.0000 0.24794  0.14514  0.02147  Biso   1.000  H
  H209     1.0000 0.00666  0.72875  0.38398  Biso   1.000  H
  H210     1.0000 0.65988  0.46782  0.79616  Biso   1.000  H
  H211     1.0000 0.77810  0.61129  0.50810  Biso   1.000  H
  H212     1.0000 0.99433  0.22786  0.15227  Biso   1.000  H
  H213     1.0000 0.36326  0.99847  0.74615  Biso   1.000  H
  H214     1.0000 0.28711  0.64531  0.03136  Biso   1.000  H
  H215     1.0000 0.53952  0.21422  0.37849  Biso   1.000  H
  H216     1.0000 0.86564  0.99270  0.79132  Biso   1.000  H
  H217     1.0000 0.23464  0.53279  0.37466  Biso   1.000  H
  H218     1.0000 0.39069  0.22635  0.49370  Biso   1.000  H
  H219     1.0000 0.51198  0.34522  0.24690  Biso   1.000  H
  H220     1.0000 0.73794  0.48675  0.17936  Biso   1.000  H
  H221     1.0000 0.87200  0.22031  0.00700  Biso   1.000  H
  H222     1.0000 0.99122  0.35702  0.28102  Biso   1.000  H
  H223     1.0000 0.28842  0.00138  0.37050  Biso   1.000  H
  H224     1.0000 0.13953  0.73227  0.52519  Biso   1.000  H
  H225     1.0000 0.01464  0.86119  0.25186  Biso   1.000  H
  H226     1.0000 0.79161  0.96762  0.15762  Biso   1.000  H
  H227     1.0000 0.66884  0.71612  0.02571  Biso   1.000  H
  H228     1.0000 0.52771  0.84404  0.29195  Biso   1.000  H
  H229     1.0000 0.78352  0.46640  0.66853  Biso   1.000  H
  H230     1.0000 0.64097  0.74823  0.50967  Biso   1.000  H
  H231     1.0000 0.52152  0.63428  0.79371  Biso   1.000  H
  H232     1.0000 0.28694  0.50855  0.87415  Biso   1.000  H
  H233     1.0000 0.16815  0.77454  0.04591  Biso   1.000  H
  H234     1.0000 0.01108  0.62774  0.75589  Biso   1.000  H
  H235     1.0000 0.74025  0.00881  0.66202  Biso   1.000  H
  H236     1.0000 0.89179  0.25034  0.50245  Biso   1.000  H
  H237     1.0000 0.01795  0.12469  0.78087  Biso   1.000  H
  H238     1.0000 0.23937  0.98940  0.86556  Biso   1.000  H
  H239     1.0000 0.36659  0.27045  0.02725  Biso   1.000  H
  H240     1.0000 0.48793  0.13516  0.74853  Biso   1.000  H
  H241     1.0000 0.74534  0.48601  0.88591  Biso   1.000  H
  H242     1.0000 0.84980  0.70242  0.52688  Biso   1.000  H
  H243     1.0000 0.52505  0.84343  0.74424  Biso   1.000  H
  H244     1.0000 0.24133  0.49017  0.66279  Biso   1.000  H
  H245     1.0000 0.37526  0.72917  0.02528  Biso   1.000  H
  H246     1.0000 0.01963  0.83368  0.79829  Biso   1.000  H
  H247     1.0000 0.78599  0.02365  0.88083  Biso   1.000  H
  H248     1.0000 0.67427  0.20962  0.51380  Biso   1.000  H
  H249     1.0000 0.01167  0.33646  0.74355  Biso   1.000  H
  H250     1.0000 0.27756  0.00505  0.65882  Biso   1.000  H
  H251     1.0000 0.15952  0.22546  0.03765  Biso   1.000  H
  H252     1.0000 0.49253  0.34884  0.78783  Biso   1.000  H
  H253     1.0000 0.27284  0.51243  0.15045  Biso   1.000  H
  H254     1.0000 0.17767  0.27075  0.50755  Biso   1.000  H
  H255     1.0000 0.52545  0.12934  0.29225  Biso   1.000  H
  H256     1.0000 0.77742  0.49667  0.39321  Biso   1.000  H
  H257     1.0000 0.65962  0.25786  0.02099  Biso   1.000  H
  H258     1.0000 0.99627  0.14515  0.24014  Biso   1.000  H
  H259     1.0000 0.25047  0.00953  0.15430  Biso   1.000  H
  H260     1.0000 0.34949  0.76928  0.51007  Biso   1.000  H
  H261     1.0000 0.03145  0.64362  0.29714  Biso   1.000  H
  H262     1.0000 0.75119  0.97352  0.37483  Biso   1.000  H
  H263     1.0000 0.87228  0.76367  0.02171  Biso   1.000  H
  H264     1.0000 0.52587  0.62883  0.24822  Biso   1.000  H
  H265     1.0000 0.02828  0.21508  0.86070  Biso   1.000  H
  H266     1.0000 0.87730  0.97508  0.24679  Biso   1.000  H
  H267     1.0000 0.24458  0.85918  0.02180  Biso   1.000  H
  H268     1.0000 0.50259  0.21626  0.66322  Biso   1.000  H
  H269     1.0000 0.37670  0.98303  0.28536  Biso   1.000  H
  H270     1.0000 0.73247  0.82695  0.50701  Biso   1.000  H
  H271     1.0000 0.52870  0.72054  0.87563  Biso   1.000  H
  H272     1.0000 0.64269  0.49894  0.25467  Biso   1.000  H
  H273     1.0000 0.28782  0.35652  0.03494  Biso   1.000  H
  H274     1.0000 0.02064  0.71356  0.67016  Biso   1.000  H
  H275     1.0000 0.15415  0.50041  0.29145  Biso   1.000  H
  H276     1.0000 0.79449  0.32598  0.50665  Biso   1.000  H
  H277     1.0000 0.00903  0.76650  0.16998  Biso   1.000  H
  H278     1.0000 0.15179  0.98290  0.78582  Biso   1.000  H
  H279     1.0000 0.78992  0.13997  0.04120  Biso   1.000  H
  H280     1.0000 0.52476  0.75567  0.37723  Biso   1.000  H
  H281     1.0000 0.65243  0.00901  0.74528  Biso   1.000  H
  H282     1.0000 0.29962  0.14763  0.49008  Biso   1.000  H
  H283     1.0000 0.52137  0.25754  0.16123  Biso   1.000  H
  H284     1.0000 0.37323  0.48085  0.78930  Biso   1.000  H
  H285     1.0000 0.74709  0.62846  0.01584  Biso   1.000  H
  H286     1.0000 0.02070  0.26796  0.36528  Biso   1.000  H
  H287     1.0000 0.86753  0.47194  0.75713  Biso   1.000  H
  H288     1.0000 0.22970  0.64873  0.50098  Biso   1.000  H
  H289     1.0000 0.10565  0.22702  0.02990  Biso   1.000  H
  H290     1.0000 0.00825  0.09376  0.24142  Biso   1.000  H
  H291     1.0000 0.24458  0.00799  0.10032  Biso   1.000  H
  H292     1.0000 0.62290  0.21007  0.51592  Biso   1.000  H
  H293     1.0000 0.52992  0.07720  0.29118  Biso   1.000  H
  H294     1.0000 0.74741  0.97259  0.42821  Biso   1.000  H
  H295     1.0000 0.42974  0.72798  0.01484  Biso   1.000  H
  H296     1.0000 0.51562  0.57609  0.24653  Biso   1.000  H
  H297     1.0000 0.28175  0.50906  0.09717  Biso   1.000  H
  H298     1.0000 0.90252  0.71031  0.52527  Biso   1.000  H
  H299     1.0000 0.02708  0.58914  0.29794  Biso   1.000  H
  H300     1.0000 0.78345  0.48619  0.44395  Biso   1.000  H
  H301     1.0000 0.92685  0.76322  0.02669  Biso   1.000  H
  H302     1.0000 0.01121  0.88860  0.79545  Biso   1.000  H
  H303     1.0000 0.79046  0.02673  0.93552  Biso   1.000  H
  H304     1.0000 0.40648  0.76322  0.50923  Biso   1.000  H
  H305     1.0000 0.52905  0.89902  0.74289  Biso   1.000  H
  H306     1.0000 0.28095  0.01451  0.60469  Biso   1.000  H
  H307     1.0000 0.60817  0.26044  0.00890  Biso   1.000  H
  H308     1.0000 0.49802  0.40048  0.78858  Biso   1.000  H
  H309     1.0000 0.74946  0.48878  0.93534  Biso   1.000  H
  H310     1.0000 0.12364  0.27311  0.51418  Biso   1.000  H
  H311     1.0000 0.01316  0.39011  0.74501  Biso   1.000  H
  H312     1.0000 0.24595  0.49099  0.61055  Biso   1.000  H
  H313     1.0000 0.24317  0.99686  0.91892  Biso   1.000  H
  H314     1.0000 0.92462  0.21566  0.99565  Biso   1.000  H
  H315     1.0000 0.01580  0.91309  0.24892  Biso   1.000  H
  H316     1.0000 0.73983  0.99497  0.60884  Biso   1.000  H
  H317     1.0000 0.44340  0.22062  0.50002  Biso   1.000  H
  H318     1.0000 0.52471  0.89593  0.29471  Biso   1.000  H
  H319     1.0000 0.29074  0.50706  0.92875  Biso   1.000  H
  H320     1.0000 0.61131  0.71893  0.02649  Biso   1.000  H
  H321     1.0000 0.50419  0.39609  0.24725  Biso   1.000  H
  H322     1.0000 0.78345  0.46541  0.61622  Biso   1.000  H
  H323     1.0000 0.08444  0.72756  0.53181  Biso   1.000  H
  H324     1.0000 0.98545  0.40890  0.28606  Biso   1.000  H
  H325     1.0000 0.79467  0.96362  0.10400  Biso   1.000  H
  H326     1.0000 0.11464  0.76921  0.04836  Biso   1.000  H
  H327     1.0000 0.01345  0.06925  0.78568  Biso   1.000  H
  H328     1.0000 0.28802  0.99704  0.42287  Biso   1.000  H
  H329     1.0000 0.58814  0.75303  0.51924  Biso   1.000  H
  H330     1.0000 0.49260  0.07894  0.74889  Biso   1.000  H
  H331     1.0000 0.74378  0.48655  0.12486  Biso   1.000  H
  H332     1.0000 0.42063  0.26594  0.02934  Biso   1.000  H
  H333     1.0000 0.51844  0.58025  0.79484  Biso   1.000  H
  H334     1.0000 0.23790  0.53301  0.43057  Biso   1.000  H
  H335     1.0000 0.94542  0.25884  0.50700  Biso   1.000  H
  H336     1.0000 0.00755  0.57371  0.75515  Biso   1.000  H
  H337     1.0000 0.02963  0.21731  0.91626  Biso   1.000  H
  H338     1.0000 0.93296  0.98348  0.24740  Biso   1.000  H
  H339     1.0000 0.24335  0.91502  0.02492  Biso   1.000  H
  H340     1.0000 0.51404  0.21663  0.60959  Biso   1.000  H
  H341     1.0000 0.43182  0.97959  0.29195  Biso   1.000  H
  H342     1.0000 0.73761  0.88095  0.51486  Biso   1.000  H
  H343     1.0000 0.52928  0.72198  0.93017  Biso   1.000  H
  H344     1.0000 0.58969  0.49081  0.24821  Biso   1.000  H
  H345     1.0000 0.28761  0.41246  0.02656  Biso   1.000  H
  H346     1.0000 0.00897  0.71277  0.61392  Biso   1.000  H
  H347     1.0000 0.09938  0.48527  0.29155  Biso   1.000  H
  H348     1.0000 0.78697  0.37621  0.51388  Biso   1.000  H
  H349     1.0000 0.01477  0.76917  0.11603  Biso   1.000  H
  H350     1.0000 0.09647  0.97734  0.78677  Biso   1.000  H
  H351     1.0000 0.78830  0.08487  0.03848  Biso   1.000  H
  H352     1.0000 0.51523  0.75636  0.43247  Biso   1.000  H
  H353     1.0000 0.59671  0.00430  0.74269  Biso   1.000  H
  H354     1.0000 0.29406  0.09138  0.49265  Biso   1.000  H
  H355     1.0000 0.52145  0.25901  0.10493  Biso   1.000  H
  H356     1.0000 0.42628  0.49067  0.78663  Biso   1.000  H
  H357     1.0000 0.74251  0.57217  0.01840  Biso   1.000  H
  H358     1.0000 0.03228  0.26847  0.41853  Biso   1.000  H
  H359     1.0000 0.92398  0.48013  0.75425  Biso   1.000  H
  H360     1.0000 0.23184  0.59954  0.50271  Biso   1.000  H
  H361     1.0000 0.00073  0.72566  0.43564  Biso   1.000  H
  H362     1.0000 0.41795  0.98793  0.74391  Biso   1.000  H
  H363     1.0000 0.74039  0.39727  0.04641  Biso   1.000  H
  H364     1.0000 0.51613  0.71655  0.10807  Biso   1.000  H
  H365     1.0000 0.91762  0.97645  0.79351  Biso   1.000  H
  H366     1.0000 0.25232  0.42106  0.49690  Biso   1.000  H
  H367     1.0000 0.53646  0.21431  0.43357  Biso   1.000  H
  H368     1.0000 0.10718  0.47705  0.74464  Biso   1.000  H
  H369     1.0000 0.79151  0.90372  0.01064  Biso   1.000  H
  H370     1.0000 0.00158  0.22559  0.09742  Biso   1.000  H
  H371     1.0000 0.60559  0.47001  0.79902  Biso   1.000  H
  H372     1.0000 0.28224  0.91650  0.52745  Biso   1.000  H
  H373     1.0000 0.01386  0.25799  0.59484  Biso   1.000  H
  H374     1.0000 0.61105  0.98542  0.28984  Biso   1.000  H
  H375     1.0000 0.28717  0.59044  0.02155  Biso   1.000  H
  H376     1.0000 0.51028  0.26317  0.92857  Biso   1.000  H
  H377     1.0000 0.11421  0.99085  0.24537  Biso   1.000  H
  H378     1.0000 0.78213  0.55484  0.51201  Biso   1.000  H
  H379     1.0000 0.48293  0.75985  0.61045  Biso   1.000  H
  H380     1.0000 0.90932  0.51393  0.29402  Biso   1.000  H
  H381     1.0000 0.24709  0.09223  0.01043  Biso   1.000  H
  H382     1.0000 0.03150  0.76218  0.94160  Biso   1.000  H
  H383     1.0000 0.41626  0.50035  0.24421  Biso   1.000  H
  H384     1.0000 0.75087  0.06251  0.51972  Biso   1.000  H
  H385     1.0000 0.23482  0.49152  0.34718  Biso   1.000  H
  H386     1.0000 0.30373  0.17719  0.45968  Biso   1.000  H
  H387     1.0000 0.49080  0.31076  0.24780  Biso   1.000  H
  H388     1.0000 0.67282  0.46450  0.25478  Biso   1.000  H
  H389     1.0000 0.84579  0.21926  0.05164  Biso   1.000  H
  H390     1.0000 0.98465  0.26682  0.34134  Biso   1.000  H
  H391     1.0000 0.28890  0.96457  0.34078  Biso   1.000  H
  H392     1.0000 0.16675  0.73221  0.49070  Biso   1.000  H
  H393     1.0000 0.97801  0.77965  0.20678  Biso   1.000  H
  H394     1.0000 0.79777  0.94064  0.19216  Biso   1.000  H
  H395     1.0000 0.74737  0.66230  0.04780  Biso   1.000  H
  H396     1.0000 0.56329  0.80743  0.30438  Biso   1.000  H
  H397     1.0000 0.78826  0.50225  0.70060  Biso   1.000  H
  H398     1.0000 0.73204  0.79940  0.54334  Biso   1.000  H
  H399     1.0000 0.55329  0.66897  0.80076  Biso   1.000  H
  H400     1.0000 0.34542  0.51271  0.78419  Biso   1.000  H
  H401     1.0000 0.23590  0.82422  0.99362  Biso   1.000  H
  H402     1.0000 0.04234  0.65397  0.74868  Biso   1.000  H
  H403     1.0000 0.73650  0.97312  0.69042  Biso   1.000  H
  H404     1.0000 0.81228  0.29007  0.54199  Biso   1.000  H
  H405     1.0000 0.99032  0.20807  0.83445  Biso   1.000  H
  H406     1.0000 0.22781  0.03303  0.83608  Biso   1.000  H
  H407     1.0000 0.29038  0.32521  0.99580  Biso   1.000  H
  H408     1.0000 0.45615  0.17137  0.73302  Biso   1.000  H
  H409     1.0000 0.27092  0.49270  0.18713  Biso   1.000  H
  H410     1.0000 0.20366  0.28257  0.46788  Biso   1.000  H
  H411     1.0000 0.50327  0.21537  0.34885  Biso   1.000  H
  H412     1.0000 0.82883  0.47745  0.30009  Biso   1.000  H
  H413     1.0000 0.69090  0.26692  0.98902  Biso   1.000  H
  H414     1.0000 0.95339  0.17912  0.22465  Biso   1.000  H
  H415     1.0000 0.19890  0.95922  0.22486  Biso   1.000  H
  H416     1.0000 0.32133  0.78851  0.47773  Biso   1.000  H
  H417     1.0000 0.99903  0.67054  0.29513  Biso   1.000  H
  H418     1.0000 0.74744  0.94126  0.34475  Biso   1.000  H
  H419     1.0000 0.83783  0.77628  0.05361  Biso   1.000  H
  H420     1.0000 0.49264  0.66008  0.25139  Biso   1.000  H
  H421     1.0000 0.73844  0.50700  0.85107  Biso   1.000  H
  H422     1.0000 0.77316  0.64107  0.54434  Biso   1.000  H
  H423     1.0000 0.52708  0.75614  0.68842  Biso   1.000  H
  H424     1.0000 0.18593  0.51588  0.73976  Biso   1.000  H
  H425     1.0000 0.34431  0.72741  0.99336  Biso   1.000  H
  H426     1.0000 0.06565  0.75733  0.84961  Biso   1.000  H
  H427     1.0000 0.78451  0.03501  0.84508  Biso   1.000  H
  H428     1.0000 0.75642  0.15426  0.54027  Biso   1.000  H
  H429     1.0000 0.04521  0.30255  0.73977  Biso   1.000  H
  H430     1.0000 0.33076  0.96292  0.73576  Biso   1.000  H
  H431     1.0000 0.18952  0.22429  0.00157  Biso   1.000  H
  H432     1.0000 0.46503  0.26824  0.84506  Biso   1.000  H
  H433     1.0000 0.28598  0.04237  0.69683  Biso   1.000  H
  H434     1.0000 0.73011  0.30909  0.06667  Biso   1.000  H
  H435     1.0000 0.04275  0.72838  0.35875  Biso   1.000  H
  H436     1.0000 0.83197  0.96853  0.79825  Biso   1.000  H
  H437     1.0000 0.26034  0.33448  0.52556  Biso   1.000  H
  H438     1.0000 0.55200  0.70695  0.19643  Biso   1.000  H
  H439     1.0000 0.23802  0.45169  0.69171  Biso   1.000  H
  H440     1.0000 0.79725  0.81277  0.97630  Biso   1.000  H
  H441     1.0000 0.55956  0.15715  0.29509  Biso   1.000  H
  H442     1.0000 0.69267  0.43766  0.80466  Biso   1.000  H
  H443     1.0000 0.27523  0.82415  0.55698  Biso   1.000  H
  H444     1.0000 0.03391  0.21874  0.18599  Biso   1.000  H
  H445     1.0000 0.69473  0.00306  0.29284  Biso   1.000  H
  H446     1.0000 0.29605  0.67684  0.05810  Biso   1.000  H
  H447     1.0000 0.97905  0.25878  0.68205  Biso   1.000  H
  H448     1.0000 0.24503  0.03584  0.19293  Biso   1.000  H
  H449     1.0000 0.82764  0.70153  0.49127  Biso   1.000  H
  H450     1.0000 0.52285  0.31956  0.79454  Biso   1.000  H
  H451     1.0000 0.78195  0.52453  0.36408  Biso   1.000  H
  H452     1.0000 0.24576  0.17190  0.06146  Biso   1.000  H
  H453     1.0000 0.48650  0.81862  0.74906  Biso   1.000  H
  H454     1.0000 0.33520  0.53320  0.24461  Biso   1.000  H
  H455     1.0000 0.70297  0.19584  0.47141  Biso   1.000  H
  H456     1.0000 0.98515  0.80370  0.80811  Biso   1.000  H
  H457     1.0000 0.67756  0.74836  0.47966  Biso   1.000  H
  H458     1.0000 0.48388  0.71022  0.84814  Biso   1.000  H
  H459     1.0000 0.83726  0.43565  0.74899  Biso   1.000  H
  H460     1.0000 0.20570  0.79235  0.07644  Biso   1.000  H
  H461     1.0000 0.98598  0.71752  0.70314  Biso   1.000  H
  H462     1.0000 0.28620  0.46996  0.84703  Biso   1.000  H
  H463     1.0000 0.85162  0.26370  0.46233  Biso   1.000  H
  H464     1.0000 0.05215  0.15975  0.78034  Biso   1.000  H
  H465     1.0000 0.68608  0.03942  0.73973  Biso   1.000  H
  H466     1.0000 0.33952  0.27905  0.06593  Biso   1.000  H
  H467     1.0000 0.53469  0.21372  0.69933  Biso   1.000  H
  H468     1.0000 0.19353  0.95603  0.79224  Biso   1.000  H
  H469     1.0000 0.35801  0.22227  0.52678  Biso   1.000  H
  H470     1.0000 0.54888  0.25755  0.18986  Biso   1.000  H
  H471     1.0000 0.17671  0.54301  0.29299  Biso   1.000  H
  H472     1.0000 0.78558  0.16267  0.99725  Biso   1.000  H
  H473     1.0000 0.03163  0.32393  0.28410  Biso   1.000  H
  H474     1.0000 0.72897  0.52126  0.20408  Biso   1.000  H
  H475     1.0000 0.22685  0.67808  0.53920  Biso   1.000  H
  H476     1.0000 0.05124  0.82660  0.24923  Biso   1.000  H
  H477     1.0000 0.34992  0.01548  0.28527  Biso   1.000  H
  H478     1.0000 0.69222  0.70680  0.98477  Biso   1.000  H
  H479     1.0000 0.48462  0.76719  0.34332  Biso   1.000  H
  H480     1.0000 0.84816  0.00397  0.24540  Biso   1.000  H
  N1       1.0000 0.70471  0.15251  0.51160  Biso   1.000  N
  N2       1.0000 0.52239  0.66379  0.19761  Biso   1.000  N
  N3       1.0000 0.18917  0.48548  0.69112  Biso   1.000  N
  N4       1.0000 0.19339  0.17416  0.02876  Biso   1.000  N
  N5       1.0000 0.01681  0.67647  0.34896  Biso   1.000  N
  N6       1.0000 0.69311  0.47722  0.85166  Biso   1.000  N
  N7       1.0000 0.82502  0.64585  0.51796  Biso   1.000  N
  N8       1.0000 0.99748  0.17563  0.18525  Biso   1.000  N
  N9       1.0000 0.33230  0.00388  0.69129  Biso   1.000  N
  N10      1.0000 0.34157  0.67500  0.02271  Biso   1.000  N
  N11      1.0000 0.53216  0.16256  0.34606  Biso   1.000  N
  N12      1.0000 0.83424  0.00103  0.84510  Biso   1.000  N
  N13      1.0000 0.32516  0.82532  0.51833  Biso   1.000  N
  N14      1.0000 0.49544  0.31462  0.84256  Biso   1.000  N
  N15      1.0000 0.82876  0.50016  0.35472  Biso   1.000  N
  N16      1.0000 0.84170  0.81738  0.01614  Biso   1.000  N
  N17      1.0000 0.01304  0.30644  0.68735  Biso   1.000  N
  N18      1.0000 0.32595  0.50635  0.19083  Biso   1.000  N
  N19      1.0000 0.20572  0.32820  0.50070  Biso   1.000  N
  N20      1.0000 0.02782  0.80736  0.85246  Biso   1.000  N
  N21      1.0000 0.69646  0.97603  0.34218  Biso   1.000  N
  N22      1.0000 0.68954  0.31340  0.02548  Biso   1.000  N
  N23      1.0000 0.50962  0.81084  0.69473  Biso   1.000  N
  N24      1.0000 0.19791  0.99973  0.18931  Biso   1.000  N
  N25      1.0000 0.83562  0.46758  0.70228  Biso   1.000  N
  N26      1.0000 0.67891  0.79853  0.51258  Biso   1.000  N
  N27      1.0000 0.52370  0.66723  0.84664  Biso   1.000  N
  N28      1.0000 0.33887  0.49362  0.84019  Biso   1.000  N
  N29      1.0000 0.19607  0.82837  0.03639  Biso   1.000  N
  N30      1.0000 0.01249  0.66138  0.70247  Biso   1.000  N
  N31      1.0000 0.68580  0.00547  0.69267  Biso   1.000  N
  N32      1.0000 0.85305  0.29984  0.50644  Biso   1.000  N
  N33      1.0000 0.02176  0.16058  0.83385  Biso   1.000  N
  N34      1.0000 0.18538  0.99343  0.83666  Biso   1.000  N
  N35      1.0000 0.33806  0.32326  0.02598  Biso   1.000  N
  N36      1.0000 0.49938  0.16559  0.69537  Biso   1.000  N
  N37      1.0000 0.18421  0.51376  0.34355  Biso   1.000  N
  N38      1.0000 0.35399  0.17585  0.49196  Biso   1.000  N
  N39      1.0000 0.51659  0.31026  0.19415  Biso   1.000  N
  N40      1.0000 0.68194  0.48694  0.20459  Biso   1.000  N
  N41      1.0000 0.84177  0.16651  0.02480  Biso   1.000  N
  N42      1.0000 0.00702  0.32074  0.33554  Biso   1.000  N
  N43      1.0000 0.34154  0.99262  0.33852  Biso   1.000  N
  N44      1.0000 0.17508  0.68184  0.51670  Biso   1.000  N
  N45      1.0000 0.01571  0.82418  0.20210  Biso   1.000  N
  N46      1.0000 0.84463  0.97546  0.19450  Biso   1.000  N
  N47      1.0000 0.69683  0.66429  0.02013  Biso   1.000  N
  N48      1.0000 0.52303  0.81077  0.34748  Biso   1.000  N
  O1       1.0000 0.36096  0.53999  0.01875  Biso   1.000  O
  O2       1.0000 0.02819  0.33546  0.55659  Biso   1.000  O
  O3       1.0000 0.56525  0.98947  0.36111  Biso   1.000  O
  O4       1.0000 0.85179  0.51422  0.53431  Biso   1.000  O
  O5       1.0000 0.51561  0.33596  0.97496  Biso   1.000  O
  O6       1.0000 0.05923  0.00226  0.17557  Biso   1.000  O
  O7       1.0000 0.17396  0.04360  0.00531  Biso   1.000  O
  O8       1.0000 0.49621  0.82939  0.56201  Biso   1.000  O
  O9       1.0000 0.96480  0.49869  0.36314  Biso   1.000  O
  O10      1.0000 0.67734  0.01885  0.51740  Biso   1.000  O
  O11      1.0000 0.02063  0.83521  0.98327  Biso   1.000  O
  O12      1.0000 0.46423  0.49812  0.16965  Biso   1.000  O
  O13      1.0000 0.67284  0.44773  0.02643  Biso   1.000  O
  O14      1.0000 0.00235  0.65168  0.48450  Biso   1.000  O
  O15      1.0000 0.46653  0.98352  0.67195  Biso   1.000  O
  O16      1.0000 0.17666  0.46088  0.51099  Biso   1.000  O
  O17      1.0000 0.51786  0.64895  0.06038  Biso   1.000  O
  O18      1.0000 0.96699  0.98417  0.86508  Biso   1.000  O
  O19      1.0000 0.86340  0.95047  0.01311  Biso   1.000  O
  O20      1.0000 0.52365  0.14216  0.48056  Biso   1.000  O
  O21      1.0000 0.05488  0.48856  0.67541  Biso   1.000  O
  O22      1.0000 0.35937  0.95860  0.52629  Biso   1.000  O
  O23      1.0000 0.01498  0.14998  0.05242  Biso   1.000  O
  O24      1.0000 0.55748  0.48323  0.86883  Biso   1.000  O
  O25      1.0000 0.97714  0.99724  0.17422  Biso   1.000  O
  O26      1.0000 0.17098  0.96054  0.01777  Biso   1.000  O
  O27      1.0000 0.02148  0.14949  0.96932  Biso   1.000  O
  O28      1.0000 0.47696  0.98403  0.35971  Biso   1.000  O
  O29      1.0000 0.66992  0.93444  0.51915  Biso   1.000  O
  O30      1.0000 0.53028  0.14167  0.56484  Biso   1.000  O
  O31      1.0000 0.54836  0.47923  0.17346  Biso   1.000  O
  O32      1.0000 0.36088  0.45380  0.01570  Biso   1.000  O
  O33      1.0000 0.52305  0.65148  0.97906  Biso   1.000  O
  O34      1.0000 0.04816  0.49344  0.36074  Biso   1.000  O
  O35      1.0000 0.85872  0.43337  0.52040  Biso   1.000  O
  O36      1.0000 0.99657  0.64176  0.56605  Biso   1.000  O
  O37      1.0000 0.05097  0.97892  0.85966  Biso   1.000  O
  O38      1.0000 0.86268  0.03086  0.03191  Biso   1.000  O
  O39      1.0000 0.02057  0.83802  0.06658  Biso   1.000  O
  O40      1.0000 0.55128  0.98923  0.67268  Biso   1.000  O
  O41      1.0000 0.36137  0.03992  0.50796  Biso   1.000  O
  O42      1.0000 0.50820  0.82879  0.47873  Biso   1.000  O
  O43      1.0000 0.47617  0.49780  0.86104  Biso   1.000  O
  O44      1.0000 0.66835  0.53119  0.02641  Biso   1.000  O
  O45      1.0000 0.51849  0.33365  0.06049  Biso   1.000  O
  O46      1.0000 0.96957  0.47489  0.68309  Biso   1.000  O
  O47      1.0000 0.16976  0.54243  0.52816  Biso   1.000  O
  O48      1.0000 0.02763  0.33952  0.47053  Biso   1.000  O
  O49      1.0000 0.02111  0.95772  0.17540  Biso   1.000  O
  O50      1.0000 0.16966  0.00323  0.97079  Biso   1.000  O
  O51      1.0000 0.97495  0.14451  0.00657  Biso   1.000  O
  O52      1.0000 0.52126  0.94572  0.36670  Biso   1.000  O
  O53      1.0000 0.66963  0.98125  0.55989  Biso   1.000  O
  O54      1.0000 0.48523  0.14539  0.52300  Biso   1.000  O
  O55      1.0000 0.49973  0.44544  0.17271  Biso   1.000  O
  O56      1.0000 0.36294  0.49541  0.97541  Biso   1.000  O
  O57      1.0000 0.56066  0.65202  0.02236  Biso   1.000  O
  O58      1.0000 0.00253  0.45433  0.35955  Biso   1.000  O
  O59      1.0000 0.85898  0.46580  0.57066  Biso   1.000  O
  O60      1.0000 0.04251  0.65026  0.52695  Biso   1.000  O
  O61      1.0000 0.01290  0.02357  0.85723  Biso   1.000  O
  O62      1.0000 0.86583  0.98113  0.06059  Biso   1.000  O
  O63      1.0000 0.06301  0.83912  0.03075  Biso   1.000  O
  O64      1.0000 0.50422  0.03189  0.67344  Biso   1.000  O
  O65      1.0000 0.36285  0.99635  0.47401  Biso   1.000  O
  O66      1.0000 0.54239  0.82595  0.52310  Biso   1.000  O
  O67      1.0000 0.52372  0.53156  0.86791  Biso   1.000  O
  O68      1.0000 0.67457  0.49012  0.07184  Biso   1.000  O
  O69      1.0000 0.47441  0.33611  0.01795  Biso   1.000  O
  O70      1.0000 0.00283  0.52408  0.68277  Biso   1.000  O
  O71      1.0000 0.16791  0.50917  0.47852  Biso   1.000  O
  O72      1.0000 0.98652  0.33670  0.51339  Biso   1.000  O
  O73      1.0000 0.01708  0.44215  0.67643  Biso   1.000  O
  O74      1.0000 0.67275  0.97172  0.47481  Biso   1.000  O
  O75      1.0000 0.47597  0.65298  0.01688  Biso   1.000  O
  O76      1.0000 0.51042  0.44607  0.86670  Biso   1.000  O
  O77      1.0000 0.17070  0.00977  0.05386  Biso   1.000  O
  O78      1.0000 0.95864  0.64141  0.52224  Biso   1.000  O
  O79      1.0000 0.51331  0.94525  0.67183  Biso   1.000  O
  O80      1.0000 0.85735  0.48310  0.48753  Biso   1.000  O
  O81      1.0000 0.05892  0.15076  0.01502  Biso   1.000  O
  O82      1.0000 0.01069  0.94206  0.86375  Biso   1.000  O
  O83      1.0000 0.35882  0.49576  0.05860  Biso   1.000  O
  O84      1.0000 0.56901  0.13967  0.51960  Biso   1.000  O
  O85      1.0000 0.01232  0.53959  0.36549  Biso   1.000  O
  O86      1.0000 0.35511  0.00987  0.55827  Biso   1.000  O
  O87      1.0000 0.55811  0.33358  0.01021  Biso   1.000  O
  O88      1.0000 0.51608  0.52843  0.17171  Biso   1.000  O
  O89      1.0000 0.86038  0.00306  0.98139  Biso   1.000  O
  O90      1.0000 0.07073  0.34051  0.51207  Biso   1.000  O
  O91      1.0000 0.52236  0.02895  0.36157  Biso   1.000  O
  O92      1.0000 0.17539  0.49544  0.55966  Biso   1.000  O
  O93      1.0000 0.97913  0.83402  0.02260  Biso   1.000  O
  O94      1.0000 0.01391  0.04118  0.17263  Biso   1.000  O
  O95      1.0000 0.67315  0.48934  0.98530  Biso   1.000  O
  O96      1.0000 0.45904  0.83474  0.51339  Biso   1.000  O
  O97      1.0000 0.48777  0.19311  0.52051  Biso   1.000  O
  O98      1.0000 0.49682  0.44534  0.22098  Biso   1.000  O
  O99      1.0000 0.21545  0.51724  0.47846  Biso   1.000  O
  O100     1.0000 0.97422  0.19354  0.00178  Biso   1.000  O
  O101     1.0000 0.99911  0.45860  0.31117  Biso   1.000  O
  O102     1.0000 0.72326  0.48908  0.07133  Biso   1.000  O
  O103     1.0000 0.03740  0.69775  0.53333  Biso   1.000  O
  O104     1.0000 0.02155  0.96139  0.22626  Biso   1.000  O
  O105     1.0000 0.31277  0.99789  0.47364  Biso   1.000  O
  O106     1.0000 0.56181  0.70081  0.02517  Biso   1.000  O
  O107     1.0000 0.51627  0.94386  0.31668  Biso   1.000  O
  O108     1.0000 0.81682  0.97470  0.05921  Biso   1.000  O
  O109     1.0000 0.54043  0.77854  0.52277  Biso   1.000  O
  O110     1.0000 0.52418  0.53217  0.81988  Biso   1.000  O
  O111     1.0000 0.80943  0.47034  0.56939  Biso   1.000  O
  O112     1.0000 0.06455  0.79272  0.03442  Biso   1.000  O
  O113     1.0000 0.00695  0.52212  0.73146  Biso   1.000  O
  O114     1.0000 0.31383  0.49725  0.97374  Biso   1.000  O
  O115     1.0000 0.99049  0.28767  0.50774  Biso   1.000  O
  O116     1.0000 0.00706  0.02351  0.81006  Biso   1.000  O
  O117     1.0000 0.71862  0.97548  0.56447  Biso   1.000  O
  O118     1.0000 0.47148  0.28677  0.01390  Biso   1.000  O
  O119     1.0000 0.50753  0.02990  0.72241  Biso   1.000  O
  O120     1.0000 0.21857  0.99983  0.97230  Biso   1.000  O
  O121     1.0000 0.05682  0.48933  0.72362  Biso   1.000  O
  O122     1.0000 0.72604  0.01587  0.52115  Biso   1.000  O
  O123     1.0000 0.51953  0.69732  0.06248  Biso   1.000  O
  O124     1.0000 0.56050  0.48107  0.81979  Biso   1.000  O
  O125     1.0000 0.22325  0.04279  0.01337  Biso   1.000  O
  O126     1.0000 0.99952  0.69921  0.48552  Biso   1.000  O
  O127     1.0000 0.46611  0.98226  0.72146  Biso   1.000  O
  O128     1.0000 0.80334  0.51255  0.52999  Biso   1.000  O
  O129     1.0000 0.01127  0.19860  0.04694  Biso   1.000  O
  O130     1.0000 0.96556  0.97951  0.81440  Biso   1.000  O
  O131     1.0000 0.31150  0.53994  0.01425  Biso   1.000  O
  O132     1.0000 0.53404  0.18874  0.48174  Biso   1.000  O
  O133     1.0000 0.96463  0.50777  0.31539  Biso   1.000  O
  O134     1.0000 0.31146  0.96024  0.51451  Biso   1.000  O
  O135     1.0000 0.51766  0.28602  0.97571  Biso   1.000  O
  O136     1.0000 0.46387  0.49621  0.21840  Biso   1.000  O
  O137     1.0000 0.81600  0.95101  0.00249  Biso   1.000  O
  O138     1.0000 0.02949  0.28632  0.55080  Biso   1.000  O
  O139     1.0000 0.56219  0.98095  0.31325  Biso   1.000  O
  O140     1.0000 0.22498  0.46407  0.50781  Biso   1.000  O
  O141     1.0000 0.02590  0.78786  0.98725  Biso   1.000  O
  O142     1.0000 0.06377  0.00251  0.22318  Biso   1.000  O
  O143     1.0000 0.72054  0.44775  0.03110  Biso   1.000  O
  O144     1.0000 0.49495  0.78032  0.56210  Biso   1.000  O
  O145     1.0000 0.54413  0.48203  0.22237  Biso   1.000  O
  O146     1.0000 0.21657  0.54743  0.52044  Biso   1.000  O
  O147     1.0000 0.52878  0.19018  0.56408  Biso   1.000  O
  O148     1.0000 0.04893  0.49153  0.31211  Biso   1.000  O
  O149     1.0000 0.71708  0.53056  0.02858  Biso   1.000  O
  O150     1.0000 0.02283  0.19782  0.96723  Biso   1.000  O
  O151     1.0000 0.97774  0.99607  0.22276  Biso   1.000  O
  O152     1.0000 0.31465  0.04343  0.51210  Biso   1.000  O
  O153     1.0000 0.99273  0.69063  0.57142  Biso   1.000  O
  O154     1.0000 0.47714  0.98729  0.31207  Biso   1.000  O
  O155     1.0000 0.81383  0.03092  0.03347  Biso   1.000  O
  O156     1.0000 0.52051  0.70107  0.97860  Biso   1.000  O
  O157     1.0000 0.47594  0.49935  0.81326  Biso   1.000  O
  O158     1.0000 0.80975  0.42964  0.52355  Biso   1.000  O
  O159     1.0000 0.50183  0.77967  0.47725  Biso   1.000  O
  O160     1.0000 0.97560  0.46818  0.72933  Biso   1.000  O
  O161     1.0000 0.31087  0.45465  0.01134  Biso   1.000  O
  O162     1.0000 0.02100  0.79079  0.06911  Biso   1.000  O
  O163     1.0000 0.04954  0.98401  0.81084  Biso   1.000  O
  O164     1.0000 0.71867  0.93187  0.52049  Biso   1.000  O
  O165     1.0000 0.03653  0.29123  0.46703  Biso   1.000  O
  O166     1.0000 0.55057  0.98947  0.72226  Biso   1.000  O
  O167     1.0000 0.22015  0.96026  0.01407  Biso   1.000  O
  O168     1.0000 0.51317  0.28687  0.05856  Biso   1.000  O
  O169     1.0000 0.01633  0.04352  0.22249  Biso   1.000  O
  O170     1.0000 0.21936  0.00017  0.05460  Biso   1.000  O
  O171     1.0000 0.05793  0.19802  0.01153  Biso   1.000  O
  O172     1.0000 0.52083  0.02902  0.31273  Biso   1.000  O
  O173     1.0000 0.72127  0.97395  0.47939  Biso   1.000  O
  O174     1.0000 0.57016  0.18782  0.52024  Biso   1.000  O
  O175     1.0000 0.51432  0.52866  0.22081  Biso   1.000  O
  O176     1.0000 0.30882  0.49823  0.05471  Biso   1.000  O
  O177     1.0000 0.47525  0.70155  0.01927  Biso   1.000  O
  O178     1.0000 0.01561  0.53945  0.31845  Biso   1.000  O
  O179     1.0000 0.81017  0.47828  0.48895  Biso   1.000  O
  O180     1.0000 0.95384  0.69048  0.52269  Biso   1.000  O
  O181     1.0000 0.00826  0.94029  0.81464  Biso   1.000  O
  O182     1.0000 0.81101  0.00237  0.98072  Biso   1.000  O
  O183     1.0000 0.98046  0.78556  0.02237  Biso   1.000  O
  O184     1.0000 0.51264  0.94541  0.71999  Biso   1.000  O
  O185     1.0000 0.30587  0.00318  0.55656  Biso   1.000  O
  O186     1.0000 0.45756  0.78568  0.51522  Biso   1.000  O
  O187     1.0000 0.51221  0.44816  0.81633  Biso   1.000  O
  O188     1.0000 0.72181  0.48688  0.98669  Biso   1.000  O
  O189     1.0000 0.55590  0.28528  0.01540  Biso   1.000  O
  O190     1.0000 0.02287  0.44011  0.72519  Biso   1.000  O
  O191     1.0000 0.22593  0.49854  0.55852  Biso   1.000  O
  O192     1.0000 0.07633  0.29167  0.51297  Biso   1.000  O
