data_image0
_cell_length_a       46.831
_cell_length_b       47.0576
_cell_length_c       46.6382
_cell_angle_alpha    90
_cell_angle_beta     90
_cell_angle_gamma    90

_symmetry_space_group_name_H-M    "P 1"
_symmetry_int_tables_number       1

loop_
  _symmetry_equiv_pos_as_xyz
  'x, y, z'

loop_
  _atom_site_label
  _atom_site_occupancy
  _atom_site_fract_x
  _atom_site_fract_y
  _atom_site_fract_z
  _atom_site_thermal_displace_type
  _atom_site_B_iso_or_equiv
  _atom_site_type_symbol
  C1       1.0000 0.56235  0.99614  0.33721  Biso   1.000  C
  C2       1.0000 0.32894  0.54912  0.00613  Biso   1.000  C
  C3       1.0000 0.01608  0.32792  0.59093  Biso   1.000  C
  C4       1.0000 0.05786  0.99975  0.20440  Biso   1.000  C
  C5       1.0000 0.82644  0.55546  0.53700  Biso   1.000  C
  C6       1.0000 0.50700  0.32243  0.96997  Biso   1.000  C
  C7       1.0000 0.95078  0.49132  0.34364  Biso   1.000  C
  C8       1.0000 0.19360  0.05009  0.02501  Biso   1.000  C
  C9       1.0000 0.49919  0.82074  0.57455  Biso   1.000  C
  C10      1.0000 0.44704  0.48963  0.20424  Biso   1.000  C
  C11      1.0000 0.70043  0.05376  0.52088  Biso   1.000  C
  C12      1.0000 0.01190  0.82601  0.95735  Biso   1.000  C
  C13      1.0000 0.46442  0.00045  0.70643  Biso   1.000  C
  C14      1.0000 0.69358  0.45523  0.03012  Biso   1.000  C
  C15      1.0000 0.00053  0.68198  0.45375  Biso   1.000  C
  C16      1.0000 0.96878  0.00836  0.83875  Biso   1.000  C
  C17      1.0000 0.19811  0.44993  0.51829  Biso   1.000  C
  C18      1.0000 0.50614  0.68052  0.07679  Biso   1.000  C
  C19      1.0000 0.06416  0.50852  0.70057  Biso   1.000  C
  C20      1.0000 0.83509  0.95500  0.01670  Biso   1.000  C
  C21      1.0000 0.51749  0.17699  0.47264  Biso   1.000  C
  C22      1.0000 0.56378  0.50768  0.84838  Biso   1.000  C
  C23      1.0000 0.33311  0.94473  0.52236  Biso   1.000  C
  C24      1.0000 0.01747  0.18015  0.08405  Biso   1.000  C
  C25      1.0000 0.33485  0.05479  0.52475  Biso   1.000  C
  C26      1.0000 0.51952  0.31973  0.07820  Biso   1.000  C
  C27      1.0000 0.05964  0.48970  0.34387  Biso   1.000  C
  C28      1.0000 0.83584  0.06321  0.00401  Biso   1.000  C
  C29      1.0000 0.02079  0.31430  0.48243  Biso   1.000  C
  C30      1.0000 0.55667  0.50582  0.20984  Biso   1.000  C
  C31      1.0000 0.18412  0.55715  0.52817  Biso   1.000  C
  C32      1.0000 0.00371  0.81787  0.06504  Biso   1.000  C
  C33      1.0000 0.45369  0.99375  0.34168  Biso   1.000  C
  C34      1.0000 0.69225  0.56522  0.02734  Biso   1.000  C
  C35      1.0000 0.51720  0.81174  0.46918  Biso   1.000  C
  C36      1.0000 0.94941  0.99146  0.19626  Biso   1.000  C
  C37      1.0000 0.69105  0.94449  0.50760  Biso   1.000  C
  C38      1.0000 0.50571  0.67714  0.96815  Biso   1.000  C
  C39      1.0000 0.95908  0.52659  0.70850  Biso   1.000  C
  C40      1.0000 0.19280  0.93873  0.03341  Biso   1.000  C
  C41      1.0000 0.00495  0.68777  0.56352  Biso   1.000  C
  C42      1.0000 0.45408  0.50185  0.84181  Biso   1.000  C
  C43      1.0000 0.83396  0.44650  0.52068  Biso   1.000  C
  C44      1.0000 0.01510  0.18886  0.97505  Biso   1.000  C
  C45      1.0000 0.57466  0.99959  0.69756  Biso   1.000  C
  C46      1.0000 0.32680  0.44175  0.03258  Biso   1.000  C
  C47      1.0000 0.52656  0.18433  0.58153  Biso   1.000  C
  C48      1.0000 0.07672  0.01055  0.84268  Biso   1.000  C
  C49      1.0000 0.01953  0.06535  0.84505  Biso   1.000  C
  C50      1.0000 0.83081  0.01652  0.06738  Biso   1.000  C
  C51      1.0000 0.06114  0.81564  0.01901  Biso   1.000  C
  C52      1.0000 0.52404  0.05575  0.70662  Biso   1.000  C
  C53      1.0000 0.33139  0.00074  0.47459  Biso   1.000  C
  C54      1.0000 0.56200  0.82113  0.53118  Biso   1.000  C
  C55      1.0000 0.51383  0.55807  0.84038  Biso   1.000  C
  C56      1.0000 0.68754  0.50917  0.08661  Biso   1.000  C
  C57      1.0000 0.46056  0.32216  0.02987  Biso   1.000  C
  C58      1.0000 0.02609  0.57353  0.70355  Biso   1.000  C
  C59      1.0000 0.18932  0.50952  0.46891  Biso   1.000  C
  C60      1.0000 0.96174  0.32496  0.53588  Biso   1.000  C
  C61      1.0000 0.01039  0.94115  0.19698  Biso   1.000  C
  C62      1.0000 0.19729  0.98734  0.97625  Biso   1.000  C
  C63      1.0000 0.96095  0.18948  0.03311  Biso   1.000  C
  C64      1.0000 0.50618  0.94042  0.34264  Biso   1.000  C
  C65      1.0000 0.69936  0.99111  0.56808  Biso   1.000  C
  C66      1.0000 0.46534  0.17857  0.53053  Biso   1.000  C
  C67      1.0000 0.50634  0.44425  0.20568  Biso   1.000  C
  C68      1.0000 0.32908  0.48721  0.96861  Biso   1.000  C
  C69      1.0000 0.56040  0.68733  0.02297  Biso   1.000  C
  C70      1.0000 0.00242  0.43283  0.34521  Biso   1.000  C
  C71      1.0000 0.83095  0.49251  0.58617  Biso   1.000  C
  C72      1.0000 0.05616  0.68390  0.51060  Biso   1.000  C
  C73      1.0000 0.00668  0.54315  0.33649  Biso   1.000  C
  C74      1.0000 0.33607  0.99635  0.58250  Biso   1.000  C
  C75      1.0000 0.56744  0.32416  0.02212  Biso   1.000  C
  C76      1.0000 0.49790  0.55442  0.20430  Biso   1.000  C
  C77      1.0000 0.83679  0.00861  0.95920  Biso   1.000  C
  C78      1.0000 0.07114  0.32227  0.53439  Biso   1.000  C
  C79      1.0000 0.50747  0.04909  0.34382  Biso   1.000  C
  C80      1.0000 0.19652  0.50042  0.57691  Biso   1.000  C
  C81      1.0000 0.95354  0.82159  0.01035  Biso   1.000  C
  C82      1.0000 0.99891  0.04794  0.20479  Biso   1.000  C
  C83      1.0000 0.68987  0.50780  0.97675  Biso   1.000  C
  C84      1.0000 0.45566  0.81540  0.51270  Biso   1.000  C
  C85      1.0000 0.00129  0.46574  0.70580  Biso   1.000  C
  C86      1.0000 0.69569  0.00503  0.46086  Biso   1.000  C
  C87      1.0000 0.45185  0.67656  0.02253  Biso   1.000  C
  C88      1.0000 0.51272  0.44863  0.84534  Biso   1.000  C
  C89      1.0000 0.18853  0.00063  0.08420  Biso   1.000  C
  C90      1.0000 0.94811  0.68212  0.51232  Biso   1.000  C
  C91      1.0000 0.52335  0.94749  0.69574  Biso   1.000  C
  C92      1.0000 0.83169  0.51228  0.47640  Biso   1.000  C
  C93      1.0000 0.06925  0.18269  0.02813  Biso   1.000  C
  C94      1.0000 0.02569  0.95766  0.83519  Biso   1.000  C
  C95      1.0000 0.32771  0.50563  0.07522  Biso   1.000  C
  C96      1.0000 0.57535  0.18203  0.52401  Biso   1.000  C
  C97      1.0000 0.70264  0.08606  0.51641  Biso   1.000  C
  C98      1.0000 0.50053  0.68215  0.10943  Biso   1.000  C
  C99      1.0000 0.09624  0.50740  0.70125  Biso   1.000  C
  C100     1.0000 0.19416  0.08224  0.01967  Biso   1.000  C
  C101     1.0000 0.99938  0.68019  0.42135  Biso   1.000  C
  C102     1.0000 0.59621  0.51048  0.85075  Biso   1.000  C
  C103     1.0000 0.82316  0.58658  0.53324  Biso   1.000  C
  C104     1.0000 0.01550  0.17868  0.11618  Biso   1.000  C
  C105     1.0000 0.43324  0.00482  0.70668  Biso   1.000  C
  C106     1.0000 0.32826  0.57948  0.99522  Biso   1.000  C
  C107     1.0000 0.52165  0.17396  0.44102  Biso   1.000  C
  C108     1.0000 0.93642  0.01005  0.83606  Biso   1.000  C
  C109     1.0000 0.33416  0.91272  0.52418  Biso   1.000  C
  C110     1.0000 0.50451  0.32038  0.93929  Biso   1.000  C
  C111     1.0000 0.91769  0.49403  0.34483  Biso   1.000  C
  C112     1.0000 0.83304  0.92301  0.01544  Biso   1.000  C
  C113     1.0000 0.01711  0.33024  0.62226  Biso   1.000  C
  C114     1.0000 0.41536  0.48561  0.20505  Biso   1.000  C
  C115     1.0000 0.19943  0.41753  0.52244  Biso   1.000  C
  C116     1.0000 0.01518  0.82648  0.92555  Biso   1.000  C
  C117     1.0000 0.59459  0.99472  0.33677  Biso   1.000  C
  C118     1.0000 0.69382  0.42268  0.02740  Biso   1.000  C
  C119     1.0000 0.49860  0.82002  0.60574  Biso   1.000  C
  C120     1.0000 0.08983  0.99979  0.20824  Biso   1.000  C
  C121     1.0000 0.82848  0.01568  0.09908  Biso   1.000  C
  C122     1.0000 0.09312  0.81481  0.01384  Biso   1.000  C
  C123     1.0000 0.01267  0.09691  0.84673  Biso   1.000  C
  C124     1.0000 0.32948  0.00175  0.44206  Biso   1.000  C
  C125     1.0000 0.59357  0.82158  0.53257  Biso   1.000  C
  C126     1.0000 0.52957  0.08695  0.70846  Biso   1.000  C
  C127     1.0000 0.68689  0.50733  0.11841  Biso   1.000  C
  C128     1.0000 0.42967  0.31987  0.02548  Biso   1.000  C
  C129     1.0000 0.52131  0.58810  0.84169  Biso   1.000  C
  C130     1.0000 0.18623  0.51304  0.43658  Biso   1.000  C
  C131     1.0000 0.93014  0.32408  0.53586  Biso   1.000  C
  C132     1.0000 0.03107  0.60471  0.69983  Biso   1.000  C
  C133     1.0000 0.19798  0.98409  0.94445  Biso   1.000  C
  C134     1.0000 0.92825  0.18857  0.03200  Biso   1.000  C
  C135     1.0000 0.01591  0.90908  0.19432  Biso   1.000  C
  C136     1.0000 0.70117  0.99388  0.59907  Biso   1.000  C
  C137     1.0000 0.43271  0.17761  0.53378  Biso   1.000  C
  C138     1.0000 0.50443  0.90843  0.34199  Biso   1.000  C
  C139     1.0000 0.32876  0.48641  0.93693  Biso   1.000  C
  C140     1.0000 0.59218  0.68920  0.02264  Biso   1.000  C
  C141     1.0000 0.50279  0.41265  0.20600  Biso   1.000  C
  C142     1.0000 0.83204  0.49009  0.61900  Biso   1.000  C
  C143     1.0000 0.08850  0.68401  0.51344  Biso   1.000  C
  C144     1.0000 0.00569  0.39934  0.34657  Biso   1.000  C
  C145     1.0000 0.32696  0.50964  0.10665  Biso   1.000  C
  C146     1.0000 0.10356  0.32192  0.53048  Biso   1.000  C
  C147     1.0000 0.51046  0.08114  0.34533  Biso   1.000  C
  C148     1.0000 0.82920  0.51540  0.44551  Biso   1.000  C
  C149     1.0000 0.59883  0.32516  0.01923  Biso   1.000  C
  C150     1.0000 0.99741  0.07966  0.20594  Biso   1.000  C
  C151     1.0000 0.18594  0.00120  0.11667  Biso   1.000  C
  C152     1.0000 0.42466  0.81621  0.51096  Biso   1.000  C
  C153     1.0000 0.00935  0.57566  0.33418  Biso   1.000  C
  C154     1.0000 0.69347  0.00570  0.42920  Biso   1.000  C
  C155     1.0000 0.92234  0.82371  0.01238  Biso   1.000  C
  C156     1.0000 0.49559  0.58639  0.20460  Biso   1.000  C
  C157     1.0000 0.69002  0.50968  0.94417  Biso   1.000  C
  C158     1.0000 0.91722  0.68285  0.51509  Biso   1.000  C
  C159     1.0000 0.52566  0.91570  0.69681  Biso   1.000  C
  C160     1.0000 0.19650  0.50221  0.60957  Biso   1.000  C
  C161     1.0000 0.42134  0.67524  0.01345  Biso   1.000  C
  C162     1.0000 0.02881  0.92541  0.83341  Biso   1.000  C
  C163     1.0000 0.83699  0.01031  0.92787  Biso   1.000  C
  C164     1.0000 0.60720  0.18232  0.52444  Biso   1.000  C
  C165     1.0000 0.99838  0.43320  0.70723  Biso   1.000  C
  C166     1.0000 0.33630  0.99520  0.61486  Biso   1.000  C
  C167     1.0000 0.10158  0.18206  0.02857  Biso   1.000  C
  C168     1.0000 0.51367  0.41569  0.84431  Biso   1.000  C
  C169     1.0000 0.00154  0.81691  0.09693  Biso   1.000  C
  C170     1.0000 0.10823  0.00287  0.84578  Biso   1.000  C
  C171     1.0000 0.83580  0.09595  0.00379  Biso   1.000  C
  C172     1.0000 0.51900  0.81082  0.43722  Biso   1.000  C
  C173     1.0000 0.60637  0.99872  0.69596  Biso   1.000  C
  C174     1.0000 0.33601  0.08734  0.52089  Biso   1.000  C
  C175     1.0000 0.51909  0.31892  0.11136  Biso   1.000  C
  C176     1.0000 0.42181  0.49341  0.84249  Biso   1.000  C
  C177     1.0000 0.69154  0.59734  0.02289  Biso   1.000  C
  C178     1.0000 0.01827  0.31090  0.45060  Biso   1.000  C
  C179     1.0000 0.92508  0.52061  0.70976  Biso   1.000  C
  C180     1.0000 0.18433  0.59079  0.52895  Biso   1.000  C
  C181     1.0000 0.01002  0.18740  0.94316  Biso   1.000  C
  C182     1.0000 0.91612  0.99265  0.19534  Biso   1.000  C
  C183     1.0000 0.19116  0.90618  0.02866  Biso   1.000  C
  C184     1.0000 0.52630  0.18487  0.61381  Biso   1.000  C
  C185     1.0000 0.42200  0.99078  0.34102  Biso   1.000  C
  C186     1.0000 0.68873  0.91302  0.50734  Biso   1.000  C
  C187     1.0000 0.50481  0.67958  0.93624  Biso   1.000  C
  C188     1.0000 0.58962  0.51076  0.21122  Biso   1.000  C
  C189     1.0000 0.33029  0.40957  0.03988  Biso   1.000  C
  C190     1.0000 0.01550  0.69012  0.59337  Biso   1.000  C
  C191     1.0000 0.09189  0.49645  0.34404  Biso   1.000  C
  C192     1.0000 0.83586  0.41576  0.51358  Biso   1.000  C
  C193     1.0000 0.86459  0.00504  0.91203  Biso   1.000  C
  C194     1.0000 0.90971  0.85215  0.01297  Biso   1.000  C
  C195     1.0000 0.02249  0.90786  0.85882  Biso   1.000  C
  C196     1.0000 0.36486  0.00003  0.62970  Biso   1.000  C
  C197     1.0000 0.41030  0.84445  0.51488  Biso   1.000  C
  C198     1.0000 0.51801  0.90049  0.66995  Biso   1.000  C
  C199     1.0000 0.66278  0.51509  0.92977  Biso   1.000  C
  C200     1.0000 0.61443  0.35288  0.02214  Biso   1.000  C
  C201     1.0000 0.51063  0.40079  0.87250  Biso   1.000  C
  C202     1.0000 0.17010  0.50001  0.62524  Biso   1.000  C
  C203     1.0000 0.12105  0.34797  0.52448  Biso   1.000  C
  C204     1.0000 0.00204  0.41524  0.68150  Biso   1.000  C
  C205     1.0000 0.15900  0.00273  0.13288  Biso   1.000  C
  C206     1.0000 0.11768  0.15408  0.02915  Biso   1.000  C
  C207     1.0000 0.99637  0.09651  0.17925  Biso   1.000  C
  C208     1.0000 0.66768  0.00005  0.41341  Biso   1.000  C
  C209     1.0000 0.62243  0.15496  0.51999  Biso   1.000  C
  C210     1.0000 0.51243  0.09409  0.37255  Biso   1.000  C
  C211     1.0000 0.35217  0.50454  0.12350  Biso   1.000  C
  C212     1.0000 0.40780  0.64695  0.01009  Biso   1.000  C
  C213     1.0000 0.49207  0.60237  0.17780  Biso   1.000  C
  C214     1.0000 0.85469  0.51068  0.42716  Biso   1.000  C
  C215     1.0000 0.90139  0.65603  0.52331  Biso   1.000  C
  C216     1.0000 0.01156  0.59319  0.36110  Biso   1.000  C
  C217     1.0000 0.12315  0.99863  0.87324  Biso   1.000  C
  C218     1.0000 0.86153  0.11184  0.01231  Biso   1.000  C
  C219     1.0000 0.00009  0.84467  0.11434  Biso   1.000  C
  C220     1.0000 0.62197  0.00031  0.66889  Biso   1.000  C
  C221     1.0000 0.36322  0.10231  0.52389  Biso   1.000  C
  C222     1.0000 0.51624  0.83779  0.42074  Biso   1.000  C
  C223     1.0000 0.40808  0.49116  0.86955  Biso   1.000  C
  C224     1.0000 0.66297  0.61179  0.02440  Biso   1.000  C
  C225     1.0000 0.51526  0.34603  0.12760  Biso   1.000  C
  C226     1.0000 0.90873  0.51192  0.68378  Biso   1.000  C
  C227     1.0000 0.15730  0.60532  0.52300  Biso   1.000  C
  C228     1.0000 0.01466  0.33732  0.43159  Biso   1.000  C
  C229     1.0000 0.90195  0.99973  0.16850  Biso   1.000  C
  C230     1.0000 0.16370  0.89168  0.02561  Biso   1.000  C
  C231     1.0000 0.00891  0.16181  0.92699  Biso   1.000  C
  C232     1.0000 0.40710  0.99472  0.36889  Biso   1.000  C
  C233     1.0000 0.66070  0.89947  0.51338  Biso   1.000  C
  C234     1.0000 0.52450  0.15659  0.63003  Biso   1.000  C
  C235     1.0000 0.60673  0.51285  0.18459  Biso   1.000  C
  C236     1.0000 0.35857  0.39460  0.03930  Biso   1.000  C
  C237     1.0000 0.50939  0.65315  0.92025  Biso   1.000  C
  C238     1.0000 0.10801  0.50222  0.37037  Biso   1.000  C
  C239     1.0000 0.86300  0.40006  0.51778  Biso   1.000  C
  C240     1.0000 0.01896  0.66528  0.61242  Biso   1.000  C
  C241     1.0000 0.61233  0.51090  0.87805  Biso   1.000  C
  C242     1.0000 0.84808  0.60424  0.53626  Biso   1.000  C
  C243     1.0000 0.50306  0.84697  0.62070  Biso   1.000  C
  C244     1.0000 0.11387  0.50531  0.67610  Biso   1.000  C
  C245     1.0000 0.35745  0.59459  0.99597  Biso   1.000  C
  C246     1.0000 0.01659  0.85421  0.90914  Biso   1.000  C
  C247     1.0000 0.91853  0.00402  0.86166  Biso   1.000  C
  C248     1.0000 0.67574  0.10319  0.51844  Biso   1.000  C
  C249     1.0000 0.01378  0.35842  0.63574  Biso   1.000  C
  C250     1.0000 0.41678  0.00512  0.68073  Biso   1.000  C
  C251     1.0000 0.16777  0.09964  0.02446  Biso   1.000  C
  C252     1.0000 0.50834  0.34782  0.92231  Biso   1.000  C
  C253     1.0000 0.40134  0.49196  0.17703  Biso   1.000  C
  C254     1.0000 0.17264  0.40141  0.52275  Biso   1.000  C
  C255     1.0000 0.51645  0.14736  0.42606  Biso   1.000  C
  C256     1.0000 0.90278  0.49590  0.37320  Biso   1.000  C
  C257     1.0000 0.66674  0.40689  0.03024  Biso   1.000  C
  C258     1.0000 0.00827  0.15056  0.12949  Biso   1.000  C
  C259     1.0000 0.10664  0.99729  0.18253  Biso   1.000  C
  C260     1.0000 0.36099  0.89634  0.51985  Biso   1.000  C
  C261     1.0000 0.00485  0.65269  0.40755  Biso   1.000  C
  C262     1.0000 0.61145  0.99677  0.36412  Biso   1.000  C
  C263     1.0000 0.85969  0.90629  0.01353  Biso   1.000  C
  C264     1.0000 0.49887  0.65416  0.12574  Biso   1.000  C
  C265     1.0000 0.01087  0.11198  0.87409  Biso   1.000  C
  C266     1.0000 0.85337  0.00714  0.11563  Biso   1.000  C
  C267     1.0000 0.10912  0.84216  0.01631  Biso   1.000  C
  C268     1.0000 0.52875  0.10317  0.68103  Biso   1.000  C
  C269     1.0000 0.35650  0.99890  0.42592  Biso   1.000  C
  C270     1.0000 0.60867  0.84852  0.53044  Biso   1.000  C
  C271     1.0000 0.51973  0.60378  0.86976  Biso   1.000  C
  C272     1.0000 0.65882  0.51119  0.13359  Biso   1.000  C
  C273     1.0000 0.41117  0.34605  0.03334  Biso   1.000  C
  C274     1.0000 0.02566  0.61701  0.66968  Biso   1.000  C
  C275     1.0000 0.15840  0.50960  0.42170  Biso   1.000  C
  C276     1.0000 0.91278  0.35106  0.53411  Biso   1.000  C
  C277     1.0000 0.00910  0.89350  0.16671  Biso   1.000  C
  C278     1.0000 0.17228  0.98721  0.92697  Biso   1.000  C
  C279     1.0000 0.91118  0.16182  0.02957  Biso   1.000  C
  C280     1.0000 0.50802  0.89226  0.36875  Biso   1.000  C
  C281     1.0000 0.67353  0.99296  0.61636  Biso   1.000  C
  C282     1.0000 0.41656  0.15075  0.53128  Biso   1.000  C
  C283     1.0000 0.50645  0.39660  0.17964  Biso   1.000  C
  C284     1.0000 0.35523  0.49060  0.92174  Biso   1.000  C
  C285     1.0000 0.60834  0.66255  0.02416  Biso   1.000  C
  C286     1.0000 0.00825  0.38526  0.37594  Biso   1.000  C
  C287     1.0000 0.85926  0.49646  0.63440  Biso   1.000  C
  C288     1.0000 0.10481  0.65661  0.51729  Biso   1.000  C
  C289     1.0000 0.35787  0.86582  0.51829  Biso   1.000  C
  C290     1.0000 0.50771  0.34717  0.89125  Biso   1.000  C
  C291     1.0000 0.87346  0.50586  0.37339  Biso   1.000  C
  C292     1.0000 0.85887  0.87533  0.01606  Biso   1.000  C
  C293     1.0000 0.00958  0.36000  0.66610  Biso   1.000  C
  C294     1.0000 0.37005  0.49857  0.17780  Biso   1.000  C
  C295     1.0000 0.17368  0.36978  0.52355  Biso   1.000  C
  C296     1.0000 0.02035  0.85395  0.87864  Biso   1.000  C
  C297     1.0000 0.64359  0.99882  0.36224  Biso   1.000  C
  C298     1.0000 0.66705  0.37567  0.02503  Biso   1.000  C
  C299     1.0000 0.50274  0.84742  0.65310  Biso   1.000  C
  C300     1.0000 0.13761  0.99837  0.18413  Biso   1.000  C
  C301     1.0000 0.67502  0.13446  0.51804  Biso   1.000  C
  C302     1.0000 0.49243  0.65692  0.15609  Biso   1.000  C
  C303     1.0000 0.14458  0.50797  0.67646  Biso   1.000  C
  C304     1.0000 0.16945  0.13054  0.02489  Biso   1.000  C
  C305     1.0000 0.00622  0.64999  0.37656  Biso   1.000  C
  C306     1.0000 0.64317  0.51156  0.87537  Biso   1.000  C
  C307     1.0000 0.84819  0.63520  0.52780  Biso   1.000  C
  C308     1.0000 0.00601  0.14949  0.16130  Biso   1.000  C
  C309     1.0000 0.38563  0.99979  0.68200  Biso   1.000  C
  C310     1.0000 0.35633  0.62623  0.00270  Biso   1.000  C
  C311     1.0000 0.51368  0.14892  0.39421  Biso   1.000  C
  C312     1.0000 0.88774  0.00668  0.86001  Biso   1.000  C
  C313     1.0000 0.15918  0.50875  0.39043  Biso   1.000  C
  C314     1.0000 0.38510  0.15371  0.53002  Biso   1.000  C
  C315     1.0000 0.50573  0.36504  0.18045  Biso   1.000  C
  C316     1.0000 0.66050  0.51404  0.16521  Biso   1.000  C
  C317     1.0000 0.88076  0.16372  0.02339  Biso   1.000  C
  C318     1.0000 0.01353  0.35430  0.37750  Biso   1.000  C
  C319     1.0000 0.35555  0.99736  0.39443  Biso   1.000  C
  C320     1.0000 0.13512  0.65823  0.51696  Biso   1.000  C
  C321     1.0000 0.01073  0.86244  0.16679  Biso   1.000  C
  C322     1.0000 0.85047  0.00726  0.14776  Biso   1.000  C
  C323     1.0000 0.63976  0.66480  0.02162  Biso   1.000  C
  C324     1.0000 0.51071  0.86051  0.36806  Biso   1.000  C
  C325     1.0000 0.85643  0.50031  0.66538  Biso   1.000  C
  C326     1.0000 0.63951  0.84610  0.52184  Biso   1.000  C
  C327     1.0000 0.51512  0.63490  0.86806  Biso   1.000  C
  C328     1.0000 0.35312  0.49085  0.89001  Biso   1.000  C
  C329     1.0000 0.14104  0.84003  0.01363  Biso   1.000  C
  C330     1.0000 0.02824  0.64792  0.66557  Biso   1.000  C
  C331     1.0000 0.67485  0.99644  0.64735  Biso   1.000  C
  C332     1.0000 0.88307  0.34802  0.52600  Biso   1.000  C
  C333     1.0000 0.00732  0.14382  0.87401  Biso   1.000  C
  C334     1.0000 0.17485  0.99022  0.89576  Biso   1.000  C
  C335     1.0000 0.38032  0.34198  0.03732  Biso   1.000  C
  C336     1.0000 0.52706  0.13556  0.68138  Biso   1.000  C
  C337     1.0000 0.66441  0.51219  0.89819  Biso   1.000  C
  C338     1.0000 0.86971  0.65708  0.52494  Biso   1.000  C
  C339     1.0000 0.50946  0.86951  0.67283  Biso   1.000  C
  C340     1.0000 0.16707  0.50589  0.65554  Biso   1.000  C
  C341     1.0000 0.37740  0.64820  0.00458  Biso   1.000  C
  C342     1.0000 0.02223  0.87656  0.85711  Biso   1.000  C
  C343     1.0000 0.86533  0.00704  0.88074  Biso   1.000  C
  C344     1.0000 0.65383  0.15561  0.51911  Biso   1.000  C
  C345     1.0000 0.00578  0.38317  0.68613  Biso   1.000  C
  C346     1.0000 0.36512  0.99999  0.66048  Biso   1.000  C
  C347     1.0000 0.14864  0.15262  0.02609  Biso   1.000  C
  C348     1.0000 0.51080  0.36948  0.87034  Biso   1.000  C
  C349     1.0000 0.34986  0.50514  0.15530  Biso   1.000  C
  C350     1.0000 0.15262  0.34807  0.52520  Biso   1.000  C
  C351     1.0000 0.51212  0.12738  0.37268  Biso   1.000  C
  C352     1.0000 0.85283  0.51132  0.39526  Biso   1.000  C
  C353     1.0000 0.64547  0.35283  0.02144  Biso   1.000  C
  C354     1.0000 0.00219  0.12748  0.18214  Biso   1.000  C
  C355     1.0000 0.15936  0.99962  0.16362  Biso   1.000  C
  C356     1.0000 0.37878  0.84466  0.51458  Biso   1.000  C
  C357     1.0000 0.00866  0.62534  0.35714  Biso   1.000  C
  C358     1.0000 0.66558  0.00150  0.38232  Biso   1.000  C
  C359     1.0000 0.87835  0.85246  0.01481  Biso   1.000  C
  C360     1.0000 0.49209  0.63457  0.17778  Biso   1.000  C
  C361     1.0000 0.00664  0.16398  0.89621  Biso   1.000  C
  C362     1.0000 0.87021  0.00261  0.16986  Biso   1.000  C
  C363     1.0000 0.16403  0.86145  0.01754  Biso   1.000  C
  C364     1.0000 0.52630  0.15742  0.66027  Biso   1.000  C
  C365     1.0000 0.37583  0.99593  0.37096  Biso   1.000  C
  C366     1.0000 0.66167  0.86744  0.51385  Biso   1.000  C
  C367     1.0000 0.50970  0.65499  0.88929  Biso   1.000  C
  C368     1.0000 0.63849  0.51384  0.18583  Biso   1.000  C
  C369     1.0000 0.35734  0.36239  0.03924  Biso   1.000  C
  C370     1.0000 0.02462  0.66847  0.64360  Biso   1.000  C
  C371     1.0000 0.13845  0.50601  0.36861  Biso   1.000  C
  C372     1.0000 0.86174  0.36883  0.52092  Biso   1.000  C
  C373     1.0000 0.00731  0.84099  0.14501  Biso   1.000  C
  C374     1.0000 0.15474  0.99464  0.87410  Biso   1.000  C
  C375     1.0000 0.86022  0.14354  0.01661  Biso   1.000  C
  C376     1.0000 0.51566  0.83837  0.38906  Biso   1.000  C
  C377     1.0000 0.65310  0.00007  0.66950  Biso   1.000  C
  C378     1.0000 0.36262  0.13339  0.52749  Biso   1.000  C
  C379     1.0000 0.50894  0.34404  0.15821  Biso   1.000  C
  C380     1.0000 0.37575  0.49169  0.86890  Biso   1.000  C
  C381     1.0000 0.66113  0.64299  0.02148  Biso   1.000  C
  C382     1.0000 0.01427  0.33377  0.39996  Biso   1.000  C
  C383     1.0000 0.87742  0.50772  0.68658  Biso   1.000  C
  C384     1.0000 0.15656  0.63736  0.52029  Biso   1.000  C
  C385     1.0000 0.19731  0.14597  0.02504  Biso   1.000  C
  C386     1.0000 0.00687  0.17566  0.17818  Biso   1.000  C
  C387     1.0000 0.15281  0.99869  0.21160  Biso   1.000  C
  C388     1.0000 0.70215  0.15041  0.51802  Biso   1.000  C
  C389     1.0000 0.51454  0.17688  0.37912  Biso   1.000  C
  C390     1.0000 0.65953  0.00127  0.33580  Biso   1.000  C
  C391     1.0000 0.32905  0.64125  0.99987  Biso   1.000  C
  C392     1.0000 0.49103  0.68341  0.17072  Biso   1.000  C
  C393     1.0000 0.35334  0.49877  0.20387  Biso   1.000  C
  C394     1.0000 0.82112  0.64981  0.52123  Biso   1.000  C
  C395     1.0000 0.00288  0.67458  0.35746  Biso   1.000  C
  C396     1.0000 0.85621  0.50755  0.34730  Biso   1.000  C
  C397     1.0000 0.83021  0.86155  0.01787  Biso   1.000  C
  C398     1.0000 0.02205  0.82790  0.86245  Biso   1.000  C
  C399     1.0000 0.87346  0.01273  0.83274  Biso   1.000  C
  C400     1.0000 0.33006  0.85046  0.51834  Biso   1.000  C
  C401     1.0000 0.50016  0.82068  0.66944  Biso   1.000  C
  C402     1.0000 0.37115  0.99858  0.70919  Biso   1.000  C
  C403     1.0000 0.69423  0.35974  0.01997  Biso   1.000  C
  C404     1.0000 0.50771  0.32039  0.87645  Biso   1.000  C
  C405     1.0000 0.65902  0.50927  0.84930  Biso   1.000  C
  C406     1.0000 0.20052  0.35317  0.52378  Biso   1.000  C
  C407     1.0000 0.00693  0.33462  0.68467  Biso   1.000  C
  C408     1.0000 0.15945  0.51094  0.70377  Biso   1.000  C
  C409     1.0000 0.17233  0.99523  0.84746  Biso   1.000  C
  C410     1.0000 0.83441  0.15955  0.00868  Biso   1.000  C
  C411     1.0000 0.01151  0.81400  0.15902  Biso   1.000  C
  C412     1.0000 0.66941  0.00287  0.69560  Biso   1.000  C
  C413     1.0000 0.33550  0.15017  0.52730  Biso   1.000  C
  C414     1.0000 0.51863  0.81080  0.37392  Biso   1.000  C
  C415     1.0000 0.35928  0.49344  0.84330  Biso   1.000  C
  C416     1.0000 0.68815  0.66012  0.01902  Biso   1.000  C
  C417     1.0000 0.50831  0.31648  0.17369  Biso   1.000  C
  C418     1.0000 0.86108  0.51124  0.71398  Biso   1.000  C
  C419     1.0000 0.18349  0.65420  0.52129  Biso   1.000  C
  C420     1.0000 0.01819  0.30494  0.38797  Biso   1.000  C
  C421     1.0000 0.85286  0.00054  0.19493  Biso   1.000  C
  C422     1.0000 0.18989  0.84488  0.01206  Biso   1.000  C
  C423     1.0000 0.00315  0.19195  0.88197  Biso   1.000  C
  C424     1.0000 0.35816  0.99177  0.34541  Biso   1.000  C
  C425     1.0000 0.68731  0.85073  0.50965  Biso   1.000  C
  C426     1.0000 0.52738  0.18449  0.67594  Biso   1.000  C
  C427     1.0000 0.65343  0.51653  0.21238  Biso   1.000  C
  C428     1.0000 0.33191  0.34541  0.03982  Biso   1.000  C
  C429     1.0000 0.50823  0.68407  0.87436  Biso   1.000  C
  C430     1.0000 0.15444  0.50730  0.34204  Biso   1.000  C
  C431     1.0000 0.83530  0.35364  0.51916  Biso   1.000  C
  C432     1.0000 0.02594  0.69750  0.65621  Biso   1.000  C
  C433     1.0000 0.00425  0.15967  0.84858  Biso   1.000  C
  C434     1.0000 0.82329  0.01154  0.16237  Biso   1.000  C
  C435     1.0000 0.15698  0.81375  0.00658  Biso   1.000  C
  C436     1.0000 0.52768  0.15187  0.70811  Biso   1.000  C
  C437     1.0000 0.32729  0.99719  0.38068  Biso   1.000  C
  C438     1.0000 0.65459  0.81938  0.51924  Biso   1.000  C
  C439     1.0000 0.51570  0.65231  0.84102  Biso   1.000  C
  C440     1.0000 0.68673  0.51467  0.18118  Biso   1.000  C
  C441     1.0000 0.36619  0.31387  0.03072  Biso   1.000  C
  C442     1.0000 0.03424  0.66652  0.68997  Biso   1.000  C
  C443     1.0000 0.18600  0.51222  0.37427  Biso   1.000  C
  C444     1.0000 0.86882  0.32120  0.52551  Biso   1.000  C
  C445     1.0000 0.01681  0.84654  0.19307  Biso   1.000  C
  C446     1.0000 0.20265  0.98991  0.88107  Biso   1.000  C
  C447     1.0000 0.86566  0.19057  0.02164  Biso   1.000  C
  C448     1.0000 0.51180  0.84360  0.34086  Biso   1.000  C
  C449     1.0000 0.70139  0.00069  0.66222  Biso   1.000  C
  C450     1.0000 0.36982  0.18089  0.53367  Biso   1.000  C
  C451     1.0000 0.50136  0.34843  0.20632  Biso   1.000  C
  C452     1.0000 0.32545  0.49017  0.87574  Biso   1.000  C
  C453     1.0000 0.65572  0.69208  0.01687  Biso   1.000  C
  C454     1.0000 0.01631  0.33558  0.35231  Biso   1.000  C
  C455     1.0000 0.83038  0.49679  0.68183  Biso   1.000  C
  C456     1.0000 0.15085  0.68459  0.51187  Biso   1.000  C
  C457     1.0000 0.00793  0.63780  0.32804  Biso   1.000  C
  C458     1.0000 0.33883  0.99501  0.67697  Biso   1.000  C
  C459     1.0000 0.66116  0.32644  0.01824  Biso   1.000  C
  C460     1.0000 0.49302  0.64946  0.20410  Biso   1.000  C
  C461     1.0000 0.83879  0.01087  0.86327  Biso   1.000  C
  C462     1.0000 0.16852  0.32068  0.52798  Biso   1.000  C
  C463     1.0000 0.51290  0.14454  0.34562  Biso   1.000  C
  C464     1.0000 0.19394  0.51004  0.67204  Biso   1.000  C
  C465     1.0000 0.86018  0.82663  0.01377  Biso   1.000  C
  C466     1.0000 0.00195  0.14185  0.21056  Biso   1.000  C
  C467     1.0000 0.69209  0.50628  0.88306  Biso   1.000  C
  C468     1.0000 0.36126  0.81785  0.51326  Biso   1.000  C
  C469     1.0000 0.00224  0.36985  0.71413  Biso   1.000  C
  C470     1.0000 0.69225  0.00599  0.36591  Biso   1.000  C
  C471     1.0000 0.36076  0.67429  0.00222  Biso   1.000  C
  C472     1.0000 0.51356  0.35370  0.84433  Biso   1.000  C
  C473     1.0000 0.18593  0.99788  0.18001  Biso   1.000  C
  C474     1.0000 0.85468  0.68399  0.51918  Biso   1.000  C
  C475     1.0000 0.51304  0.85473  0.70016  Biso   1.000  C
  C476     1.0000 0.82611  0.51544  0.38219  Biso   1.000  C
  C477     1.0000 0.16444  0.17848  0.02562  Biso   1.000  C
  C478     1.0000 0.02760  0.86201  0.83155  Biso   1.000  C
  C479     1.0000 0.32290  0.50989  0.16935  Biso   1.000  C
  C480     1.0000 0.66846  0.18308  0.52034  Biso   1.000  C
  C481     1.0000 0.37633  0.78946  0.51016  Biso   1.000  C
  C482     1.0000 0.51344  0.36889  0.81666  Biso   1.000  C
  C483     1.0000 0.80031  0.51986  0.39988  Biso   1.000  C
  C484     1.0000 0.87200  0.79773  0.01063  Biso   1.000  C
  C485     1.0000 0.99541  0.38739  0.73837  Biso   1.000  C
  C486     1.0000 0.29832  0.51925  0.15224  Biso   1.000  C
  C487     1.0000 0.15241  0.29417  0.53418  Biso   1.000  C
  C488     1.0000 0.03616  0.87972  0.80655  Biso   1.000  C
  C489     1.0000 0.71994  0.01020  0.38047  Biso   1.000  C
  C490     1.0000 0.64500  0.29944  0.01701  Biso   1.000  C
  C491     1.0000 0.52192  0.87043  0.72605  Biso   1.000  C
  C492     1.0000 0.21365  0.00120  0.16457  Biso   1.000  C
  C493     1.0000 0.65312  0.21051  0.52592  Biso   1.000  C
  C494     1.0000 0.49540  0.63295  0.23117  Biso   1.000  C
  C495     1.0000 0.22167  0.51291  0.65647  Biso   1.000  C
  C496     1.0000 0.14928  0.20740  0.02992  Biso   1.000  C
  C497     1.0000 0.01156  0.61993  0.30225  Biso   1.000  C
  C498     1.0000 0.71880  0.50223  0.89856  Biso   1.000  C
  C499     1.0000 0.87012  0.71072  0.51431  Biso   1.000  C
  C500     1.0000 0.99987  0.12371  0.23702  Biso   1.000  C
  C501     1.0000 0.31202  0.99176  0.66169  Biso   1.000  C
  C502     1.0000 0.37471  0.70127  0.00490  Biso   1.000  C
  C503     1.0000 0.50924  0.12958  0.31861  Biso   1.000  C
  C504     1.0000 0.81207  0.01331  0.88056  Biso   1.000  C
  C505     1.0000 0.64362  0.51043  0.82268  Biso   1.000  C
  C506     1.0000 0.79556  0.63093  0.51593  Biso   1.000  C
  C507     1.0000 0.49597  0.79401  0.65298  Biso   1.000  C
  C508     1.0000 0.14216  0.51317  0.73024  Biso   1.000  C
  C509     1.0000 0.30235  0.62624  0.99503  Biso   1.000  C
  C510     1.0000 0.01615  0.79937  0.87686  Biso   1.000  C
  C511     1.0000 0.89087  0.01425  0.80652  Biso   1.000  C
  C512     1.0000 0.72944  0.13373  0.51559  Biso   1.000  C
  C513     1.0000 0.01085  0.30626  0.67155  Biso   1.000  C
  C514     1.0000 0.38769  0.00236  0.73525  Biso   1.000  C
  C515     1.0000 0.22385  0.12904  0.02044  Biso   1.000  C
  C516     1.0000 0.50564  0.29228  0.89191  Biso   1.000  C
  C517     1.0000 0.36569  0.49053  0.23087  Biso   1.000  C
  C518     1.0000 0.22799  0.36961  0.51932  Biso   1.000  C
  C519     1.0000 0.51861  0.20414  0.39509  Biso   1.000  C
  C520     1.0000 0.87035  0.50554  0.31934  Biso   1.000  C
  C521     1.0000 0.72148  0.37731  0.01657  Biso   1.000  C
  C522     1.0000 0.01009  0.20269  0.16460  Biso   1.000  C
  C523     1.0000 0.13605  0.99927  0.23728  Biso   1.000  C
  C524     1.0000 0.30352  0.86596  0.52666  Biso   1.000  C
  C525     1.0000 0.99657  0.70266  0.37021  Biso   1.000  C
  C526     1.0000 0.64342  0.00063  0.30815  Biso   1.000  C
  C527     1.0000 0.80326  0.87755  0.01854  Biso   1.000  C
  C528     1.0000 0.49111  0.71053  0.15429  Biso   1.000  C
  C529     1.0000 0.80724  0.14507  0.00034  Biso   1.000  C
  C530     1.0000 0.01070  0.78819  0.14165  Biso   1.000  C
  C531     1.0000 0.15730  0.00029  0.82078  Biso   1.000  C
  C532     1.0000 0.30784  0.13401  0.52498  Biso   1.000  C
  C533     1.0000 0.52066  0.78205  0.39004  Biso   1.000  C
  C534     1.0000 0.65463  0.00167  0.72326  Biso   1.000  C
  C535     1.0000 0.71512  0.64469  0.01425  Biso   1.000  C
  C536     1.0000 0.51441  0.29107  0.15579  Biso   1.000  C
  C537     1.0000 0.37326  0.49324  0.81572  Biso   1.000  C
  C538     1.0000 0.21045  0.63868  0.52495  Biso   1.000  C
  C539     1.0000 0.02262  0.28043  0.40571  Biso   1.000  C
  C540     1.0000 0.87790  0.52229  0.73757  Biso   1.000  C
  C541     1.0000 0.21791  0.85983  0.01734  Biso   1.000  C
  C542     1.0000 0.00328  0.21913  0.89723  Biso   1.000  C
  C543     1.0000 0.86681  0.99170  0.22210  Biso   1.000  C
  C544     1.0000 0.71319  0.86550  0.50367  Biso   1.000  C
  C545     1.0000 0.52721  0.21181  0.65959  Biso   1.000  C
  C546     1.0000 0.37320  0.98406  0.31846  Biso   1.000  C
  C547     1.0000 0.30439  0.36080  0.04397  Biso   1.000  C
  C548     1.0000 0.50292  0.71078  0.89100  Biso   1.000  C
  C549     1.0000 0.63633  0.52057  0.23788  Biso   1.000  C
  C550     1.0000 0.80776  0.36888  0.51372  Biso   1.000  C
  C551     1.0000 0.02303  0.72237  0.63680  Biso   1.000  C
  C552     1.0000 0.13878  0.50259  0.31622  Biso   1.000  C
  C553     1.0000 0.00480  0.14533  0.81951  Biso   1.000  C
  C554     1.0000 0.80037  0.02260  0.14376  Biso   1.000  C
  C555     1.0000 0.13945  0.78819  0.00209  Biso   1.000  C
  C556     1.0000 0.53006  0.13509  0.73509  Biso   1.000  C
  C557     1.0000 0.30062  0.99932  0.39725  Biso   1.000  C
  C558     1.0000 0.63951  0.79187  0.52652  Biso   1.000  C
  C559     1.0000 0.52065  0.63640  0.81446  Biso   1.000  C
  C560     1.0000 0.71403  0.51142  0.16598  Biso   1.000  C
  C561     1.0000 0.38559  0.29055  0.02217  Biso   1.000  C
  C562     1.0000 0.03620  0.65420  0.71881  Biso   1.000  C
  C563     1.0000 0.21340  0.51720  0.38932  Biso   1.000  C
  C564     1.0000 0.88434  0.29357  0.53364  Biso   1.000  C
  C565     1.0000 0.02270  0.86091  0.22056  Biso   1.000  C
  C566     1.0000 0.22925  0.98517  0.89911  Biso   1.000  C
  C567     1.0000 0.88191  0.21786  0.02468  Biso   1.000  C
  C568     1.0000 0.50634  0.86225  0.31350  Biso   1.000  C
  C569     1.0000 0.72979  0.00249  0.64646  Biso   1.000  C
  C570     1.0000 0.38613  0.20824  0.53699  Biso   1.000  C
  C571     1.0000 0.49834  0.36417  0.23357  Biso   1.000  C
  C572     1.0000 0.29787  0.48897  0.89200  Biso   1.000  C
  C573     1.0000 0.63900  0.71950  0.01566  Biso   1.000  C
  C574     1.0000 0.01419  0.34929  0.32344  Biso   1.000  C
  C575     1.0000 0.80419  0.48770  0.66639  Biso   1.000  C
  C576     1.0000 0.13399  0.71171  0.50899  Biso   1.000  C
  C577     1.0000 0.29956  0.52038  0.12066  Biso   1.000  C
  C578     1.0000 0.12026  0.29426  0.53363  Biso   1.000  C
  C579     1.0000 0.50865  0.09659  0.31835  Biso   1.000  C
  C580     1.0000 0.80215  0.51871  0.43038  Biso   1.000  C
  C581     1.0000 0.61478  0.29801  0.01718  Biso   1.000  C
  C582     1.0000 0.99689  0.09207  0.23428  Biso   1.000  C
  C583     1.0000 0.21361  0.00019  0.13197  Biso   1.000  C
  C584     1.0000 0.40812  0.78859  0.50932  Biso   1.000  C
  C585     1.0000 0.01058  0.58816  0.30485  Biso   1.000  C
  C586     1.0000 0.72028  0.00955  0.41128  Biso   1.000  C
  C587     1.0000 0.90483  0.79778  0.01165  Biso   1.000  C
  C588     1.0000 0.49603  0.60136  0.23191  Biso   1.000  C
  C589     1.0000 0.71591  0.50290  0.92873  Biso   1.000  C
  C590     1.0000 0.90071  0.71013  0.51123  Biso   1.000  C
  C591     1.0000 0.52780  0.90133  0.72565  Biso   1.000  C
  C592     1.0000 0.22246  0.50777  0.62580  Biso   1.000  C
  C593     1.0000 0.40579  0.70212  0.00935  Biso   1.000  C
  C594     1.0000 0.03552  0.91224  0.80702  Biso   1.000  C
  C595     1.0000 0.81084  0.01353  0.91112  Biso   1.000  C
  C596     1.0000 0.62152  0.20912  0.52807  Biso   1.000  C
  C597     1.0000 0.99134  0.41881  0.73520  Biso   1.000  C
  C598     1.0000 0.30999  0.99171  0.63136  Biso   1.000  C
  C599     1.0000 0.11835  0.20913  0.02989  Biso   1.000  C
  C600     1.0000 0.51352  0.40061  0.81728  Biso   1.000  C
  C601     1.0000 0.22705  0.98410  0.93031  Biso   1.000  C
  C602     1.0000 0.91241  0.21587  0.03070  Biso   1.000  C
  C603     1.0000 0.02395  0.89197  0.22026  Biso   1.000  C
  C604     1.0000 0.72911  0.99931  0.61516  Biso   1.000  C
  C605     1.0000 0.41773  0.20537  0.53716  Biso   1.000  C
  C606     1.0000 0.50081  0.89423  0.31461  Biso   1.000  C
  C607     1.0000 0.30127  0.48596  0.92229  Biso   1.000  C
  C608     1.0000 0.60764  0.71790  0.01836  Biso   1.000  C
  C609     1.0000 0.49882  0.39551  0.23279  Biso   1.000  C
  C610     1.0000 0.80446  0.48514  0.63474  Biso   1.000  C
  C611     1.0000 0.10315  0.71091  0.50996  Biso   1.000  C
  C612     1.0000 0.00706  0.38124  0.32077  Biso   1.000  C
  C613     1.0000 0.80320  0.02526  0.11380  Biso   1.000  C
  C614     1.0000 0.10762  0.78850  0.00696  Biso   1.000  C
  C615     1.0000 0.01068  0.11334  0.82045  Biso   1.000  C
  C616     1.0000 0.30090  0.00189  0.42776  Biso   1.000  C
  C617     1.0000 0.60777  0.79183  0.53189  Biso   1.000  C
  C618     1.0000 0.52989  0.10281  0.73605  Biso   1.000  C
  C619     1.0000 0.71464  0.50732  0.13414  Biso   1.000  C
  C620     1.0000 0.41662  0.29334  0.02057  Biso   1.000  C
  C621     1.0000 0.52660  0.60519  0.81530  Biso   1.000  C
  C622     1.0000 0.21194  0.51783  0.42061  Biso   1.000  C
  C623     1.0000 0.91578  0.29579  0.53581  Biso   1.000  C
  C624     1.0000 0.03640  0.62284  0.72307  Biso   1.000  C
  C625     1.0000 0.00613  0.21578  0.92804  Biso   1.000  C
  C626     1.0000 0.89961  0.98854  0.22142  Biso   1.000  C
  C627     1.0000 0.21769  0.89037  0.02472  Biso   1.000  C
  C628     1.0000 0.52995  0.21249  0.62831  Biso   1.000  C
  C629     1.0000 0.40429  0.98641  0.31504  Biso   1.000  C
  C630     1.0000 0.71451  0.89734  0.50180  Biso   1.000  C
  C631     1.0000 0.50191  0.70819  0.92269  Biso   1.000  C
  C632     1.0000 0.60526  0.51400  0.23777  Biso   1.000  C
  C633     1.0000 0.30497  0.39219  0.04457  Biso   1.000  C
  C634     1.0000 0.01728  0.72027  0.60632  Biso   1.000  C
  C635     1.0000 0.10782  0.49778  0.31724  Biso   1.000  C
  C636     1.0000 0.80756  0.40016  0.51031  Biso   1.000  C
  C637     1.0000 0.00618  0.79082  0.11128  Biso   1.000  C
  C638     1.0000 0.12545  0.00283  0.81997  Biso   1.000  C
  C639     1.0000 0.80849  0.11238  0.99879  Biso   1.000  C
  C640     1.0000 0.52298  0.78298  0.42141  Biso   1.000  C
  C641     1.0000 0.62263  0.99854  0.72228  Biso   1.000  C
  C642     1.0000 0.30822  0.10231  0.52153  Biso   1.000  C
  C643     1.0000 0.51968  0.29208  0.12478  Biso   1.000  C
  C644     1.0000 0.40461  0.49480  0.81456  Biso   1.000  C
  C645     1.0000 0.71724  0.61352  0.01959  Biso   1.000  C
  C646     1.0000 0.02203  0.28274  0.43690  Biso   1.000  C
  C647     1.0000 0.90977  0.52477  0.73743  Biso   1.000  C
  C648     1.0000 0.21050  0.60752  0.53118  Biso   1.000  C
  C649     1.0000 0.99560  0.70570  0.40252  Biso   1.000  C
  C650     1.0000 0.41924  0.00250  0.73460  Biso   1.000  C
  C651     1.0000 0.72140  0.40807  0.02184  Biso   1.000  C
  C652     1.0000 0.49594  0.70954  0.12433  Biso   1.000  C
  C653     1.0000 0.92204  0.01515  0.80827  Biso   1.000  C
  C654     1.0000 0.22724  0.40025  0.52152  Biso   1.000  C
  C655     1.0000 0.52093  0.20099  0.42527  Biso   1.000  C
  C656     1.0000 0.11074  0.51176  0.72876  Biso   1.000  C
  C657     1.0000 0.80410  0.90872  0.01715  Biso   1.000  C
  C658     1.0000 0.01474  0.20488  0.13408  Biso   1.000  C
  C659     1.0000 0.61160  0.51031  0.82339  Biso   1.000  C
  C660     1.0000 0.30665  0.89737  0.52964  Biso   1.000  C
  C661     1.0000 0.01535  0.30392  0.64074  Biso   1.000  C
  C662     1.0000 0.61061  0.99532  0.30893  Biso   1.000  C
  C663     1.0000 0.30132  0.59497  0.99288  Biso   1.000  C
  C664     1.0000 0.50210  0.29320  0.92331  Biso   1.000  C
  C665     1.0000 0.10382  0.00052  0.23624  Biso   1.000  C
  C666     1.0000 0.79682  0.60003  0.52265  Biso   1.000  C
  C667     1.0000 0.49550  0.79309  0.62141  Biso   1.000  C
  C668     1.0000 0.90129  0.50072  0.31727  Biso   1.000  C
  C669     1.0000 0.22229  0.09714  0.01768  Biso   1.000  C
  C670     1.0000 0.01379  0.79944  0.90924  Biso   1.000  C
  C671     1.0000 0.39711  0.48376  0.23126  Biso   1.000  C
  C672     1.0000 0.72903  0.10238  0.51530  Biso   1.000  C
  C673     1.0000 0.21860  0.99059  0.83341  Biso   1.000  C
  C674     1.0000 0.81864  0.20477  0.01080  Biso   1.000  C
  C675     1.0000 0.01574  0.79856  0.20517  Biso   1.000  C
  C676     1.0000 0.71607  0.00318  0.70899  Biso   1.000  C
  C677     1.0000 0.32338  0.19585  0.53181  Biso   1.000  C
  C678     1.0000 0.51291  0.79659  0.32731  Biso   1.000  C
  C679     1.0000 0.31373  0.49909  0.82928  Biso   1.000  C
  C680     1.0000 0.70276  0.70763  0.01565  Biso   1.000  C
  C681     1.0000 0.50348  0.30085  0.21909  Biso   1.000  C
  C682     1.0000 0.81575  0.50228  0.72893  Biso   1.000  C
  C683     1.0000 0.19663  0.70240  0.51391  Biso   1.000  C
  C684     1.0000 0.01793  0.28678  0.34310  Biso   1.000  C
  C685     1.0000 0.80775  0.00987  0.20794  Biso   1.000  C
  C686     1.0000 0.20398  0.79882  0.00316  Biso   1.000  C
  C687     1.0000 0.00366  0.20776  0.83568  Biso   1.000  C
  C688     1.0000 0.31243  0.98901  0.33271  Biso   1.000  C
  C689     1.0000 0.69994  0.80396  0.50578  Biso   1.000  C
  C690     1.0000 0.52713  0.19900  0.72229  Biso   1.000  C
  C691     1.0000 0.69940  0.51924  0.22792  Biso   1.000  C
  C692     1.0000 0.32096  0.29856  0.03230  Biso   1.000  C
  C693     1.0000 0.51400  0.69871  0.82575  Biso   1.000  C
  C694     1.0000 0.20136  0.50801  0.32738  Biso   1.000  C
  C695     1.0000 0.82234  0.30676  0.52204  Biso   1.000  C
  C696     1.0000 0.03126  0.71453  0.70166  Biso   1.000  C
  C697     1.0000 0.70387  0.00712  0.31802  Biso   1.000  C
  C698     1.0000 0.31335  0.68651  0.99613  Biso   1.000  C
  C699     1.0000 0.00465  0.32220  0.73167  Biso   1.000  C
  C700     1.0000 0.20032  0.99460  0.22740  Biso   1.000  C
  C701     1.0000 0.80663  0.69527  0.51054  Biso   1.000  C
  C702     1.0000 0.51452  0.30689  0.83028  Biso   1.000  C
  C703     1.0000 0.80879  0.51597  0.33561  Biso   1.000  C
  C704     1.0000 0.21143  0.19163  0.02690  Biso   1.000  C
  C705     1.0000 0.50953  0.80891  0.71615  Biso   1.000  C
  C706     1.0000 0.30687  0.50775  0.21498  Biso   1.000  C
  C707     1.0000 0.71595  0.19669  0.51991  Biso   1.000  C
  C708     1.0000 0.02667  0.81651  0.81447  Biso   1.000  C
  C709     1.0000 0.32568  0.99235  0.72445  Biso   1.000  C
  C710     1.0000 0.70965  0.31454  0.01570  Biso   1.000  C
  C711     1.0000 0.00989  0.68499  0.31142  Biso   1.000  C
  C712     1.0000 0.82587  0.01399  0.81613  Biso   1.000  C
  C713     1.0000 0.21574  0.30590  0.53248  Biso   1.000  C
  C714     1.0000 0.49276  0.69640  0.21740  Biso   1.000  C
  C715     1.0000 0.20638  0.51372  0.71918  Biso   1.000  C
  C716     1.0000 0.81400  0.81511  0.02001  Biso   1.000  C
  C717     1.0000 0.51177  0.19081  0.33197  Biso   1.000  C
  C718     1.0000 0.70620  0.50494  0.83514  Biso   1.000  C
  C719     1.0000 0.31377  0.80584  0.51118  Biso   1.000  C
  C720     1.0000 0.00758  0.18696  0.22534  Biso   1.000  C
  C721     1.0000 0.49241  0.80085  0.30360  Biso   1.000  C
  C722     1.0000 0.31667  0.52011  0.80586  Biso   1.000  C
  C723     1.0000 0.79575  0.31245  0.53791  Biso   1.000  C
  C724     1.0000 0.03253  0.77112  0.20114  Biso   1.000  C
  C725     1.0000 0.78680  0.51492  0.72438  Biso   1.000  C
  C726     1.0000 0.29171  0.30494  0.02179  Biso   1.000  C
  C727     1.0000 0.99788  0.26228  0.34585  Biso   1.000  C
  C728     1.0000 0.24632  0.00207  0.83796  Biso   1.000  C
  C729     1.0000 0.72742  0.80593  0.52004  Biso   1.000  C
  C730     1.0000 0.48273  0.30204  0.24249  Biso   1.000  C
  C731     1.0000 0.74555  0.98975  0.70537  Biso   1.000  C
  C732     1.0000 0.23113  0.80514  0.99003  Biso   1.000  C
  C733     1.0000 0.50945  0.19413  0.74775  Biso   1.000  C
  C734     1.0000 0.69536  0.50562  0.25560  Biso   1.000  C
  C735     1.0000 0.19431  0.72647  0.49323  Biso   1.000  C
  C736     1.0000 0.02191  0.23307  0.83976  Biso   1.000  C
  C737     1.0000 0.23091  0.49463  0.33193  Biso   1.000  C
  C738     1.0000 0.72830  0.70391  0.03255  Biso   1.000  C
  C739     1.0000 0.05241  0.71588  0.72353  Biso   1.000  C
  C740     1.0000 0.77818  0.00255  0.20119  Biso   1.000  C
  C741     1.0000 0.29944  0.19511  0.51170  Biso   1.000  C
  C742     1.0000 0.50326  0.69145  0.79679  Biso   1.000  C
  C743     1.0000 0.28460  0.97624  0.33862  Biso   1.000  C
  C744     1.0000 0.81443  0.22366  0.03686  Biso   1.000  C
  C745     1.0000 0.02456  0.71300  0.31769  Biso   1.000  C
  C746     1.0000 0.29816  0.00704  0.71966  Biso   1.000  C
  C747     1.0000 0.73621  0.31833  0.03092  Biso   1.000  C
  C748     1.0000 0.51045  0.72215  0.21319  Biso   1.000  C
  C749     1.0000 0.79921  0.99786  0.82097  Biso   1.000  C
  C750     1.0000 0.24387  0.30908  0.54777  Biso   1.000  C
  C751     1.0000 0.52692  0.18883  0.30458  Biso   1.000  C
  C752     1.0000 0.23404  0.49577  0.71581  Biso   1.000  C
  C753     1.0000 0.79062  0.81736  0.00069  Biso   1.000  C
  C754     1.0000 0.02792  0.21114  0.22412  Biso   1.000  C
  C755     1.0000 0.70489  0.48784  0.80870  Biso   1.000  C
  C756     1.0000 0.31690  0.77627  0.52255  Biso   1.000  C
  C757     1.0000 0.98628  0.29552  0.72728  Biso   1.000  C
  C758     1.0000 0.69590  0.02366  0.29169  Biso   1.000  C
  C759     1.0000 0.28811  0.68519  0.01490  Biso   1.000  C
  C760     1.0000 0.53747  0.30617  0.80935  Biso   1.000  C
  C761     1.0000 0.22684  0.97819  0.22032  Biso   1.000  C
  C762     1.0000 0.81134  0.72227  0.49485  Biso   1.000  C
  C763     1.0000 0.48713  0.78717  0.71941  Biso   1.000  C
  C764     1.0000 0.78414  0.53579  0.33989  Biso   1.000  C
  C765     1.0000 0.23797  0.18583  0.04355  Biso   1.000  C
  C766     1.0000 0.01595  0.82644  0.78673  Biso   1.000  C
  C767     1.0000 0.31348  0.51988  0.24408  Biso   1.000  C
  C768     1.0000 0.71020  0.22665  0.51011  Biso   1.000  C
  C769     1.0000 0.52761  0.72715  0.83053  Biso   1.000  C
  C770     1.0000 0.82217  0.49152  0.75819  Biso   1.000  C
  C771     1.0000 0.69431  0.77852  0.48745  Biso   1.000  C
  C772     1.0000 0.01225  0.73991  0.69845  Biso   1.000  C
  C773     1.0000 0.28788  0.48155  0.82991  Biso   1.000  C
  C774     1.0000 0.19840  0.76818  0.01331  Biso   1.000  C
  C775     1.0000 0.98265  0.20742  0.81248  Biso   1.000  C
  C776     1.0000 0.71149  0.02159  0.73283  Biso   1.000  C
  C777     1.0000 0.82637  0.27790  0.51081  Biso   1.000  C
  C778     1.0000 0.53914  0.22738  0.71816  Biso   1.000  C
  C779     1.0000 0.21378  0.97727  0.80566  Biso   1.000  C
  C780     1.0000 0.32755  0.26750  0.03939  Biso   1.000  C
  C781     1.0000 0.52248  0.27547  0.21760  Biso   1.000  C
  C782     1.0000 0.19608  0.52256  0.29907  Biso   1.000  C
  C783     1.0000 0.32377  0.21802  0.55341  Biso   1.000  C
  C784     1.0000 0.03727  0.29002  0.31721  Biso   1.000  C
  C785     1.0000 0.72790  0.53138  0.22166  Biso   1.000  C
  C786     1.0000 0.79746  0.20817  0.98809  Biso   1.000  C
  C787     1.0000 0.99871  0.80059  0.23248  Biso   1.000  C
  C788     1.0000 0.31493  0.00050  0.30292  Biso   1.000  C
  C789     1.0000 0.22276  0.70078  0.53250  Biso   1.000  C
  C790     1.0000 0.52972  0.76965  0.32863  Biso   1.000  C
  C791     1.0000 0.81393  0.02001  0.23721  Biso   1.000  C
  C792     1.0000 0.70030  0.73511  0.00097  Biso   1.000  C
  C793     1.0000 0.49441  0.21606  0.33578  Biso   1.000  C
  C794     1.0000 0.27642  0.50043  0.20910  Biso   1.000  C
  C795     1.0000 0.21043  0.27530  0.52283  Biso   1.000  C
  C796     1.0000 0.98785  0.18517  0.25064  Biso   1.000  C
  C797     1.0000 0.80932  0.49775  0.31029  Biso   1.000  C
  C798     1.0000 0.70763  0.28948  0.99671  Biso   1.000  C
  C799     1.0000 0.00055  0.68141  0.28146  Biso   1.000  C
  C800     1.0000 0.19575  0.00607  0.25608  Biso   1.000  C
  C801     1.0000 0.28482  0.81480  0.50016  Biso   1.000  C
  C802     1.0000 0.47881  0.69313  0.24551  Biso   1.000  C
  C803     1.0000 0.73186  0.99280  0.31977  Biso   1.000  C
  C804     1.0000 0.81533  0.79093  0.04230  Biso   1.000  C
  C805     1.0000 0.53373  0.80770  0.73567  Biso   1.000  C
  C806     1.0000 0.73319  0.52025  0.84105  Biso   1.000  C
  C807     1.0000 0.77879  0.69094  0.52411  Biso   1.000  C
  C808     1.0000 0.03913  0.78807  0.81583  Biso   1.000  C
  C809     1.0000 0.20329  0.52939  0.74578  Biso   1.000  C
  C810     1.0000 0.31577  0.71398  0.97820  Biso   1.000  C
  C811     1.0000 0.01942  0.32625  0.75995  Biso   1.000  C
  C812     1.0000 0.82969  0.02800  0.78747  Biso   1.000  C
  C813     1.0000 0.74363  0.19114  0.53372  Biso   1.000  C
  C814     1.0000 0.49399  0.28369  0.82935  Biso   1.000  C
  C815     1.0000 0.33095  0.97797  0.75206  Biso   1.000  C
  C816     1.0000 0.20906  0.21935  0.00970  Biso   1.000  C
  C817     1.0000 0.02006  0.25461  0.81964  Biso   1.000  C
  C818     1.0000 0.75685  0.00629  0.22274  Biso   1.000  C
  C819     1.0000 0.25423  0.78500  0.99085  Biso   1.000  C
  C820     1.0000 0.50587  0.21519  0.76860  Biso   1.000  C
  C821     1.0000 0.26260  0.97618  0.31741  Biso   1.000  C
  C822     1.0000 0.74739  0.78414  0.51723  Biso   1.000  C
  C823     1.0000 0.50478  0.71217  0.77514  Biso   1.000  C
  C824     1.0000 0.71730  0.50710  0.27533  Biso   1.000  C
  C825     1.0000 0.27083  0.28271  0.02206  Biso   1.000  C
  C826     1.0000 0.05470  0.73811  0.74311  Biso   1.000  C
  C827     1.0000 0.25078  0.49512  0.30821  Biso   1.000  C
  C828     1.0000 0.77537  0.29143  0.54043  Biso   1.000  C
  C829     1.0000 0.02928  0.74789  0.22042  Biso   1.000  C
  C830     1.0000 0.26811  0.00125  0.81652  Biso   1.000  C
  C831     1.0000 0.79354  0.24532  0.03743  Biso   1.000  C
  C832     1.0000 0.49063  0.77966  0.28285  Biso   1.000  C
  C833     1.0000 0.76685  0.99511  0.72692  Biso   1.000  C
  C834     1.0000 0.27813  0.21606  0.51374  Biso   1.000  C
  C835     1.0000 0.48371  0.28095  0.26426  Biso   1.000  C
  C836     1.0000 0.29683  0.52265  0.78313  Biso   1.000  C
  C837     1.0000 0.74851  0.72534  0.03576  Biso   1.000  C
  C838     1.0000 0.99905  0.24041  0.32545  Biso   1.000  C
  C839     1.0000 0.76558  0.51602  0.74573  Biso   1.000  C
  C840     1.0000 0.21714  0.74714  0.49210  Biso   1.000  C
  C841     1.0000 0.23459  0.97888  0.78345  Biso   1.000  C
  C842     1.0000 0.77734  0.23053  0.99000  Biso   1.000  C
  C843     1.0000 0.00216  0.78000  0.25382  Biso   1.000  C
  C844     1.0000 0.73244  0.02385  0.75456  Biso   1.000  C
  C845     1.0000 0.30279  0.23887  0.55578  Biso   1.000  C
  C846     1.0000 0.52653  0.74881  0.30714  Biso   1.000  C
  C847     1.0000 0.26708  0.48660  0.80919  Biso   1.000  C
  C848     1.0000 0.72179  0.75663  0.00278  Biso   1.000  C
  C849     1.0000 0.52166  0.25494  0.23997  Biso   1.000  C
  C850     1.0000 0.80010  0.49228  0.77933  Biso   1.000  C
  C851     1.0000 0.24364  0.72264  0.53182  Biso   1.000  C
  C852     1.0000 0.03487  0.26873  0.29607  Biso   1.000  C
  C853     1.0000 0.79280  0.02154  0.25873  Biso   1.000  C
  C854     1.0000 0.22085  0.74807  0.01093  Biso   1.000  C
  C855     1.0000 0.98097  0.23095  0.79313  Biso   1.000  C
  C856     1.0000 0.29387  0.99638  0.28147  Biso   1.000  C
  C857     1.0000 0.71293  0.75480  0.48765  Biso   1.000  C
  C858     1.0000 0.53495  0.24894  0.73913  Biso   1.000  C
  C859     1.0000 0.74972  0.52936  0.24218  Biso   1.000  C
  C860     1.0000 0.30707  0.24693  0.03830  Biso   1.000  C
  C861     1.0000 0.52699  0.74738  0.80701  Biso   1.000  C
  C862     1.0000 0.21686  0.52216  0.27712  Biso   1.000  C
  C863     1.0000 0.80621  0.25567  0.51672  Biso   1.000  C
  C864     1.0000 0.01238  0.76177  0.71929  Biso   1.000  C
  C865     1.0000 0.72755  0.48684  0.79018  Biso   1.000  C
  C866     1.0000 0.78925  0.74178  0.48898  Biso   1.000  C
  C867     1.0000 0.49002  0.76577  0.74135  Biso   1.000  C
  C868     1.0000 0.25268  0.49356  0.73916  Biso   1.000  C
  C869     1.0000 0.26683  0.70817  0.01480  Biso   1.000  C
  C870     1.0000 0.01831  0.80814  0.76313  Biso   1.000  C
  C871     1.0000 0.77771  0.99673  0.79954  Biso   1.000  C
  C872     1.0000 0.72972  0.24865  0.51338  Biso   1.000  C
  C873     1.0000 0.98804  0.27444  0.74835  Biso   1.000  C
  C874     1.0000 0.27806  0.00634  0.74223  Biso   1.000  C
  C875     1.0000 0.25939  0.20624  0.04445  Biso   1.000  C
  C876     1.0000 0.53904  0.28543  0.78776  Biso   1.000  C
  C877     1.0000 0.29269  0.52100  0.26621  Biso   1.000  C
  C878     1.0000 0.26495  0.28727  0.54695  Biso   1.000  C
  C879     1.0000 0.52063  0.20881  0.28258  Biso   1.000  C
  C880     1.0000 0.76141  0.53488  0.31965  Biso   1.000  C
  C881     1.0000 0.75824  0.29923  0.02858  Biso   1.000  C
  C882     1.0000 0.03162  0.22780  0.24913  Biso   1.000  C
  C883     1.0000 0.24817  0.97468  0.24138  Biso   1.000  C
  C884     1.0000 0.29287  0.75740  0.52020  Biso   1.000  C
  C885     1.0000 0.02733  0.73541  0.29680  Biso   1.000  C
  C886     1.0000 0.71609  0.02302  0.26897  Biso   1.000  C
  C887     1.0000 0.76964  0.79593  0.00244  Biso   1.000  C
  C888     1.0000 0.51640  0.73912  0.23602  Biso   1.000  C
  C889     1.0000 0.75075  0.99599  0.29742  Biso   1.000  C
  C890     1.0000 0.29316  0.73570  0.97986  Biso   1.000  C
  C891     1.0000 0.01559  0.30574  0.78264  Biso   1.000  C
  C892     1.0000 0.21803  0.00132  0.27716  Biso   1.000  C
  C893     1.0000 0.75671  0.71127  0.51734  Biso   1.000  C
  C894     1.0000 0.49575  0.26312  0.80725  Biso   1.000  C
  C895     1.0000 0.78892  0.50046  0.28878  Biso   1.000  C
  C896     1.0000 0.23189  0.23870  0.01112  Biso   1.000  C
  C897     1.0000 0.53710  0.78430  0.75480  Biso   1.000  C
  C898     1.0000 0.25607  0.50292  0.23160  Biso   1.000  C
  C899     1.0000 0.76233  0.21386  0.53756  Biso   1.000  C
  C900     1.0000 0.04163  0.77091  0.79135  Biso   1.000  C
  C901     1.0000 0.30898  0.97656  0.77269  Biso   1.000  C
  C902     1.0000 0.73057  0.27083  0.99557  Biso   1.000  C
  C903     1.0000 0.00256  0.70554  0.26213  Biso   1.000  C
  C904     1.0000 0.80595  0.02763  0.76800  Biso   1.000  C
  C905     1.0000 0.22986  0.25318  0.52474  Biso   1.000  C
  C906     1.0000 0.48422  0.71148  0.26810  Biso   1.000  C
  C907     1.0000 0.22296  0.52657  0.76818  Biso   1.000  C
  C908     1.0000 0.79299  0.77067  0.04256  Biso   1.000  C
  C909     1.0000 0.49360  0.23776  0.31441  Biso   1.000  C
  C910     1.0000 0.75553  0.52048  0.81990  Biso   1.000  C
  C911     1.0000 0.26152  0.79608  0.49864  Biso   1.000  C
  C912     1.0000 0.99247  0.20272  0.27429  Biso   1.000  C
  C913     1.0000 0.77304  0.50462  0.77352  Biso   1.000  C
  C914     1.0000 0.73972  0.75981  0.49989  Biso   1.000  C
  C915     1.0000 0.51683  0.73978  0.78023  Biso   1.000  C
  C916     1.0000 0.27168  0.50646  0.78630  Biso   1.000  C
  C917     1.0000 0.24767  0.75644  0.00013  Biso   1.000  C
  C918     1.0000 0.03328  0.76015  0.74150  Biso   1.000  C
  C919     1.0000 0.75979  0.01156  0.75125  Biso   1.000  C
  C920     1.0000 0.78074  0.26333  0.53039  Biso   1.000  C
  C921     1.0000 0.00140  0.25484  0.79679  Biso   1.000  C
  C922     1.0000 0.26082  0.99070  0.78876  Biso   1.000  C
  C923     1.0000 0.27910  0.25378  0.02919  Biso   1.000  C
  C924     1.0000 0.51972  0.24124  0.76425  Biso   1.000  C
  C925     1.0000 0.24398  0.50960  0.28185  Biso   1.000  C
  C926     1.0000 0.28018  0.23841  0.53515  Biso   1.000  C
  C927     1.0000 0.50316  0.25701  0.26394  Biso   1.000  C
  C928     1.0000 0.74287  0.52119  0.27049  Biso   1.000  C
  C929     1.0000 0.77613  0.24904  0.01317  Biso   1.000  C
  C930     1.0000 0.01638  0.24450  0.29952  Biso   1.000  C
  C931     1.0000 0.26690  0.98446  0.28907  Biso   1.000  C
  C932     1.0000 0.24238  0.74592  0.51123  Biso   1.000  C
  C933     1.0000 0.01594  0.75353  0.24702  Biso   1.000  C
  C934     1.0000 0.76489  0.01371  0.25104  Biso   1.000  C
  C935     1.0000 0.74643  0.75257  0.01943  Biso   1.000  C
  C936     1.0000 0.50726  0.75542  0.28466  Biso   1.000  C
  C937     1.0000 0.75492  0.27407  0.01230  Biso   1.000  C
  C938     1.0000 0.01590  0.73086  0.26983  Biso   1.000  C
  C939     1.0000 0.28377  0.99313  0.76841  Biso   1.000  C
  C940     1.0000 0.25748  0.26024  0.53688  Biso   1.000  C
  C941     1.0000 0.50382  0.73353  0.26272  Biso   1.000  C
  C942     1.0000 0.78107  0.01224  0.77316  Biso   1.000  C
  C943     1.0000 0.76855  0.77453  0.02366  Biso   1.000  C
  C944     1.0000 0.50569  0.23426  0.28666  Biso   1.000  C
  C945     1.0000 0.24887  0.50966  0.76490  Biso   1.000  C
  C946     1.0000 0.26634  0.76756  0.50900  Biso   1.000  C
  C947     1.0000 0.01229  0.22493  0.27438  Biso   1.000  C
  C948     1.0000 0.75208  0.50218  0.79671  Biso   1.000  C
  C949     1.0000 0.27008  0.73280  0.99779  Biso   1.000  C
  C950     1.0000 0.00093  0.27950  0.77566  Biso   1.000  C
  C951     1.0000 0.74405  0.01077  0.27362  Biso   1.000  C
  C952     1.0000 0.76191  0.73506  0.49985  Biso   1.000  C
  C953     1.0000 0.51840  0.26278  0.78774  Biso   1.000  C
  C954     1.0000 0.24271  0.98527  0.26885  Biso   1.000  C
  C955     1.0000 0.25678  0.23169  0.02779  Biso   1.000  C
  C956     1.0000 0.51490  0.76376  0.75808  Biso   1.000  C
  C957     1.0000 0.76618  0.52031  0.29289  Biso   1.000  C
  C958     1.0000 0.75545  0.24208  0.52873  Biso   1.000  C
  C959     1.0000 0.03221  0.78107  0.76500  Biso   1.000  C
  C960     1.0000 0.26565  0.51234  0.25903  Biso   1.000  C
  Cu1      1.0000 0.00973  0.51892  0.67894  Biso   1.000  Cu
  Cu2      1.0000 0.66861  0.00062  0.51504  Biso   1.000  Cu
  Cu3      1.0000 0.50850  0.65284  0.02421  Biso   1.000  Cu
  Cu4      1.0000 0.50753  0.50381  0.87193  Biso   1.000  Cu
  Cu5      1.0000 0.16713  0.99640  0.03034  Biso   1.000  Cu
  Cu6      1.0000 0.00378  0.65833  0.51012  Biso   1.000  Cu
  Cu7      1.0000 0.51877  0.00291  0.67488  Biso   1.000  Cu
  Cu8      1.0000 0.85832  0.50384  0.53037  Biso   1.000  Cu
  Cu9      1.0000 0.01417  0.16060  0.02956  Biso   1.000  Cu
  Cu10     1.0000 0.02433  0.00792  0.86771  Biso   1.000  Cu
  Cu11     1.0000 0.35399  0.49532  0.02186  Biso   1.000  Cu
  Cu12     1.0000 0.52202  0.15295  0.52747  Biso   1.000  Cu
  Cu13     1.0000 0.00437  0.49109  0.36856  Biso   1.000  Cu
  Cu14     1.0000 0.35946  0.99931  0.52620  Biso   1.000  Cu
  Cu15     1.0000 0.51284  0.34994  0.02391  Biso   1.000  Cu
  Cu16     1.0000 0.50339  0.50031  0.17758  Biso   1.000  Cu
  Cu17     1.0000 0.86199  0.00886  0.01534  Biso   1.000  Cu
  Cu18     1.0000 0.01830  0.34939  0.53284  Biso   1.000  Cu
  Cu19     1.0000 0.50740  0.99391  0.36842  Biso   1.000  Cu
  Cu20     1.0000 0.16484  0.50250  0.52336  Biso   1.000  Cu
  Cu21     1.0000 0.00911  0.84682  0.01175  Biso   1.000  Cu
  Cu22     1.0000 0.00383  0.99788  0.17313  Biso   1.000  Cu
  Cu23     1.0000 0.66371  0.50880  0.03146  Biso   1.000  Cu
  Cu24     1.0000 0.50780  0.84421  0.51997  Biso   1.000  Cu
  Cu25     1.0000 0.22029  0.99330  0.03235  Biso   1.000  Cu
  Cu26     1.0000 0.01432  0.21421  0.03063  Biso   1.000  Cu
  Cu27     1.0000 0.00203  0.99271  0.22561  Biso   1.000  Cu
  Cu28     1.0000 0.72297  0.99795  0.51328  Biso   1.000  Cu
  Cu29     1.0000 0.51843  0.20748  0.52497  Biso   1.000  Cu
  Cu30     1.0000 0.50767  0.99653  0.31387  Biso   1.000  Cu
  Cu31     1.0000 0.30038  0.49477  0.02276  Biso   1.000  Cu
  Cu32     1.0000 0.50250  0.70730  0.02283  Biso   1.000  Cu
  Cu33     1.0000 0.50177  0.49767  0.23136  Biso   1.000  Cu
  Cu34     1.0000 0.80451  0.49851  0.53235  Biso   1.000  Cu
  Cu35     1.0000 0.00271  0.71114  0.50749  Biso   1.000  Cu
  Cu36     1.0000 0.00718  0.48664  0.31577  Biso   1.000  Cu
  Cu37     1.0000 0.80846  0.01055  0.01120  Biso   1.000  Cu
  Cu38     1.0000 0.00533  0.79353  0.01065  Biso   1.000  Cu
  Cu39     1.0000 0.02362  0.01311  0.81438  Biso   1.000  Cu
  Cu40     1.0000 0.30749  0.99879  0.52941  Biso   1.000  Cu
  Cu41     1.0000 0.50814  0.78990  0.52302  Biso   1.000  Cu
  Cu42     1.0000 0.52251  0.99995  0.72759  Biso   1.000  Cu
  Cu43     1.0000 0.71881  0.50891  0.03007  Biso   1.000  Cu
  Cu44     1.0000 0.51468  0.29479  0.02404  Biso   1.000  Cu
  Cu45     1.0000 0.51017  0.50379  0.81666  Biso   1.000  Cu
  Cu46     1.0000 0.21792  0.50677  0.52123  Biso   1.000  Cu
  Cu47     1.0000 0.01737  0.29702  0.53917  Biso   1.000  Cu
  Cu48     1.0000 0.01334  0.51900  0.73220  Biso   1.000  Cu
  H1       1.0000 0.29528  0.73413  0.52510  Biso   1.000  H
  H2       1.0000 0.55811  0.28386  0.77233  Biso   1.000  H
  H3       1.0000 0.74259  0.54910  0.32187  Biso   1.000  H
  H4       1.0000 0.75459  0.79910  0.98432  Biso   1.000  H
  H5       1.0000 0.97942  0.25350  0.74213  Biso   1.000  H
  H6       1.0000 0.29974  0.52773  0.28797  Biso   1.000  H
  H7       1.0000 0.28719  0.28984  0.55237  Biso   1.000  H
  H8       1.0000 0.00529  0.81482  0.74426  Biso   1.000  H
  H9       1.0000 0.70987  0.03649  0.24988  Biso   1.000  H
  H10      1.0000 0.77843  0.30068  0.04032  Biso   1.000  H
  H11      1.0000 0.47238  0.75068  0.74449  Biso   1.000  H
  H12      1.0000 0.26412  0.95960  0.23467  Biso   1.000  H
  H13      1.0000 0.72767  0.26923  0.50309  Biso   1.000  H
  H14      1.0000 0.53184  0.75539  0.23240  Biso   1.000  H
  H15      1.0000 0.27016  0.47774  0.73649  Biso   1.000  H
  H16      1.0000 0.27785  0.20089  0.05706  Biso   1.000  H
  H17      1.0000 0.03647  0.75704  0.30057  Biso   1.000  H
  H18      1.0000 0.72581  0.47626  0.76931  Biso   1.000  H
  H19      1.0000 0.79478  0.76093  0.47654  Biso   1.000  H
  H20      1.0000 0.04568  0.24530  0.25027  Biso   1.000  H
  H21      1.0000 0.25760  0.01561  0.74031  Biso   1.000  H
  H22      1.0000 0.24804  0.70447  0.02967  Biso   1.000  H
  H23      1.0000 0.53117  0.20477  0.26157  Biso   1.000  H
  H24      1.0000 0.75833  0.98460  0.80352  Biso   1.000  H
  H25      1.0000 0.28844  0.01243  0.81969  Biso   1.000  H
  H26      1.0000 0.79324  0.26046  0.05575  Biso   1.000  H
  H27      1.0000 0.03944  0.72891  0.21304  Biso   1.000  H
  H28      1.0000 0.78874  0.98575  0.72483  Biso   1.000  H
  H29      1.0000 0.25994  0.21608  0.49968  Biso   1.000  H
  H30      1.0000 0.47524  0.78367  0.26460  Biso   1.000  H
  H31      1.0000 0.29968  0.53728  0.76391  Biso   1.000  H
  H32      1.0000 0.76593  0.72150  0.05245  Biso   1.000  H
  H33      1.0000 0.46978  0.28773  0.28213  Biso   1.000  H
  H34      1.0000 0.74435  0.52679  0.74124  Biso   1.000  H
  H35      1.0000 0.21577  0.76362  0.47515  Biso   1.000  H
  H36      1.0000 0.98706  0.22063  0.33046  Biso   1.000  H
  H37      1.0000 0.73264  0.00548  0.21663  Biso   1.000  H
  H38      1.0000 0.27496  0.79039  0.98422  Biso   1.000  H
  H39      1.0000 0.03381  0.27413  0.82103  Biso   1.000  H
  H40      1.0000 0.24149  0.96774  0.32530  Biso   1.000  H
  H41      1.0000 0.76756  0.78635  0.52918  Biso   1.000  H
  H42      1.0000 0.49337  0.21055  0.78641  Biso   1.000  H
  H43      1.0000 0.71456  0.49758  0.29577  Biso   1.000  H
  H44      1.0000 0.24876  0.29017  0.01353  Biso   1.000  H
  H45      1.0000 0.49628  0.70542  0.75379  Biso   1.000  H
  H46      1.0000 0.27011  0.48157  0.30827  Biso   1.000  H
  H47      1.0000 0.75592  0.29542  0.55349  Biso   1.000  H
  H48      1.0000 0.07302  0.73763  0.75797  Biso   1.000  H
  H49      1.0000 0.21094  0.53339  0.25733  Biso   1.000  H
  H50      1.0000 0.30373  0.25221  0.57426  Biso   1.000  H
  H51      1.0000 0.53819  0.23937  0.23888  Biso   1.000  H
  H52      1.0000 0.76999  0.53635  0.23522  Biso   1.000  H
  H53      1.0000 0.76098  0.23216  0.97335  Biso   1.000  H
  H54      1.0000 0.05022  0.27037  0.27816  Biso   1.000  H
  H55      1.0000 0.29477  0.00798  0.26009  Biso   1.000  H
  H56      1.0000 0.26302  0.71984  0.54660  Biso   1.000  H
  H57      1.0000 0.99361  0.78442  0.27475  Biso   1.000  H
  H58      1.0000 0.79826  0.02561  0.28020  Biso   1.000  H
  H59      1.0000 0.71911  0.77630  0.98829  Biso   1.000  H
  H60      1.0000 0.53871  0.72893  0.30475  Biso   1.000  H
  H61      1.0000 0.80697  0.48187  0.79962  Biso   1.000  H
  H62      1.0000 0.71079  0.73570  0.47366  Biso   1.000  H
  H63      1.0000 0.53611  0.76957  0.80918  Biso   1.000  H
  H64      1.0000 0.24587  0.47683  0.81067  Biso   1.000  H
  H65      1.0000 0.21706  0.72514  0.01812  Biso   1.000  H
  H66      1.0000 0.99757  0.77965  0.71870  Biso   1.000  H
  H67      1.0000 0.72954  0.03819  0.77388  Biso   1.000  H
  H68      1.0000 0.81094  0.23416  0.51139  Biso   1.000  H
  H69      1.0000 0.96699  0.22892  0.77475  Biso   1.000  H
  H70      1.0000 0.23240  0.97178  0.76155  Biso   1.000  H
  H71      1.0000 0.31361  0.22430  0.04310  Biso   1.000  H
  H72      1.0000 0.54807  0.26925  0.73977  Biso   1.000  H
  H73      1.0000 0.77475  0.53204  0.82380  Biso   1.000  H
  H74      1.0000 0.73529  0.70702  0.52675  Biso   1.000  H
  H75      1.0000 0.55740  0.78033  0.76657  Biso   1.000  H
  H76      1.0000 0.21720  0.53541  0.78858  Biso   1.000  H
  H77      1.0000 0.29766  0.75480  0.96645  Biso   1.000  H
  H78      1.0000 0.05152  0.74904  0.79306  Biso   1.000  H
  H79      1.0000 0.81065  0.03539  0.74531  Biso   1.000  H
  H80      1.0000 0.78273  0.20849  0.54854  Biso   1.000  H
  H81      1.0000 0.02570  0.30953  0.80320  Biso   1.000  H
  H82      1.0000 0.31072  0.96469  0.79232  Biso   1.000  H
  H83      1.0000 0.23191  0.25707  0.99524  Biso   1.000  H
  H84      1.0000 0.47844  0.24761  0.80647  Biso   1.000  H
  H85      1.0000 0.23392  0.49644  0.22916  Biso   1.000  H
  H86      1.0000 0.22572  0.23109  0.51799  Biso   1.000  H
  H87      1.0000 0.47793  0.25589  0.31702  Biso   1.000  H
  H88      1.0000 0.78729  0.48698  0.26959  Biso   1.000  H
  H89      1.0000 0.72724  0.25274  0.98297  Biso   1.000  H
  H90      1.0000 0.97962  0.20018  0.29360  Biso   1.000  H
  H91      1.0000 0.21586  0.01117  0.29758  Biso   1.000  H
  H92      1.0000 0.24086  0.80152  0.48951  Biso   1.000  H
  H93      1.0000 0.99509  0.70471  0.23946  Biso   1.000  H
  H94      1.0000 0.77184  0.98660  0.30033  Biso   1.000  H
  H95      1.0000 0.79690  0.75235  0.05749  Biso   1.000  H
  H96      1.0000 0.47253  0.71191  0.28835  Biso   1.000  H
  H97      1.0000 0.88392  0.00260  0.92495  Biso   1.000  H
  H98      1.0000 0.92296  0.87140  0.01390  Biso   1.000  H
  H99      1.0000 0.02174  0.91856  0.88169  Biso   1.000  H
  H100     1.0000 0.38695  0.00148  0.61821  Biso   1.000  H
  H101     1.0000 0.42088  0.86570  0.51784  Biso   1.000  H
  H102     1.0000 0.51554  0.91510  0.65085  Biso   1.000  H
  H103     1.0000 0.64251  0.51758  0.94050  Biso   1.000  H
  H104     1.0000 0.60185  0.37190  0.02345  Biso   1.000  H
  H105     1.0000 0.50660  0.41257  0.89398  Biso   1.000  H
  H106     1.0000 0.15078  0.49509  0.61412  Biso   1.000  H
  H107     1.0000 0.10959  0.36846  0.51847  Biso   1.000  H
  H108     1.0000 0.00579  0.42407  0.65952  Biso   1.000  H
  H109     1.0000 0.14078  0.00556  0.11922  Biso   1.000  H
  H110     1.0000 0.10507  0.13339  0.03050  Biso   1.000  H
  H111     1.0000 0.99777  0.08551  0.15765  Biso   1.000  H
  H112     1.0000 0.64800  0.99867  0.42564  Biso   1.000  H
  H113     1.0000 0.61323  0.13389  0.51677  Biso   1.000  H
  H114     1.0000 0.51466  0.08194  0.39228  Biso   1.000  H
  H115     1.0000 0.37218  0.49673  0.11346  Biso   1.000  H
  H116     1.0000 0.41966  0.62682  0.01081  Biso   1.000  H
  H117     1.0000 0.48864  0.59184  0.15753  Biso   1.000  H
  H118     1.0000 0.87525  0.50712  0.43913  Biso   1.000  H
  H119     1.0000 0.91120  0.63563  0.52939  Biso   1.000  H
  H120     1.0000 0.01310  0.58218  0.38307  Biso   1.000  H
  H121     1.0000 0.11139  0.99977  0.89320  Biso   1.000  H
  H122     1.0000 0.88018  0.09781  0.01831  Biso   1.000  H
  H123     1.0000 0.99640  0.86551  0.10428  Biso   1.000  H
  H124     1.0000 0.61215  0.99848  0.64813  Biso   1.000  H
  H125     1.0000 0.38383  0.08973  0.52306  Biso   1.000  H
  H126     1.0000 0.51372  0.85879  0.43289  Biso   1.000  H
  H127     1.0000 0.41739  0.49086  0.88993  Biso   1.000  H
  H128     1.0000 0.64238  0.59934  0.02771  Biso   1.000  H
  H129     1.0000 0.51376  0.36822  0.11896  Biso   1.000  H
  H130     1.0000 0.92036  0.50843  0.66230  Biso   1.000  H
  H131     1.0000 0.13840  0.59231  0.51702  Biso   1.000  H
  H132     1.0000 0.01247  0.35921  0.44105  Biso   1.000  H
  H133     1.0000 0.91479  0.00240  0.14878  Biso   1.000  H
  H134     1.0000 0.14259  0.90287  0.02934  Biso   1.000  H
  H135     1.0000 0.01202  0.14067  0.93601  Biso   1.000  H
  H136     1.0000 0.42007  0.99784  0.38793  Biso   1.000  H
  H137     1.0000 0.64106  0.91044  0.51796  Biso   1.000  H
  H138     1.0000 0.52088  0.13536  0.62015  Biso   1.000  H
  H139     1.0000 0.59680  0.51086  0.16357  Biso   1.000  H
  H140     1.0000 0.37877  0.40653  0.03543  Biso   1.000  H
  H141     1.0000 0.51252  0.63150  0.92933  Biso   1.000  H
  H142     1.0000 0.09671  0.50430  0.39183  Biso   1.000  H
  H143     1.0000 0.88357  0.41137  0.52172  Biso   1.000  H
  H144     1.0000 0.01523  0.64464  0.60283  Biso   1.000  H
  H145     1.0000 0.60340  0.51338  0.89934  Biso   1.000  H
  H146     1.0000 0.86814  0.59489  0.54568  Biso   1.000  H
  H147     1.0000 0.50852  0.86785  0.61069  Biso   1.000  H
  H148     1.0000 0.10254  0.50162  0.65485  Biso   1.000  H
  H149     1.0000 0.37792  0.58175  0.99540  Biso   1.000  H
  H150     1.0000 0.01719  0.87312  0.92050  Biso   1.000  H
  H151     1.0000 0.93115  0.00265  0.88089  Biso   1.000  H
  H152     1.0000 0.65426  0.09401  0.52001  Biso   1.000  H
  H153     1.0000 0.01615  0.37804  0.62100  Biso   1.000  H
  H154     1.0000 0.42565  0.01129  0.65977  Biso   1.000  H
  H155     1.0000 0.14604  0.09067  0.02869  Biso   1.000  H
  H156     1.0000 0.51220  0.36829  0.93517  Biso   1.000  H
  H157     1.0000 0.41399  0.49355  0.15666  Biso   1.000  H
  H158     1.0000 0.15171  0.41247  0.52397  Biso   1.000  H
  H159     1.0000 0.51508  0.12554  0.43599  Biso   1.000  H
  H160     1.0000 0.91494  0.48779  0.39212  Biso   1.000  H
  H161     1.0000 0.64614  0.41837  0.03298  Biso   1.000  H
  H162     1.0000 0.00544  0.12989  0.11971  Biso   1.000  H
  H163     1.0000 0.09639  0.99571  0.16076  Biso   1.000  H
  H164     1.0000 0.38223  0.90692  0.51563  Biso   1.000  H
  H165     1.0000 0.00636  0.63340  0.42161  Biso   1.000  H
  H166     1.0000 0.59976  0.99864  0.38411  Biso   1.000  H
  H167     1.0000 0.87776  0.91894  0.01301  Biso   1.000  H
  H168     1.0000 0.50051  0.63466  0.11553  Biso   1.000  H
  H169     1.0000 0.01270  0.10147  0.89550  Biso   1.000  H
  H170     1.0000 0.87249  0.99823  0.10671  Biso   1.000  H
  H171     1.0000 0.09853  0.86243  0.02324  Biso   1.000  H
  H172     1.0000 0.52834  0.09180  0.66059  Biso   1.000  H
  H173     1.0000 0.37712  0.99620  0.43752  Biso   1.000  H
  H174     1.0000 0.60018  0.86950  0.53548  Biso   1.000  H
  H175     1.0000 0.51558  0.59205  0.88918  Biso   1.000  H
  H176     1.0000 0.64052  0.50901  0.12097  Biso   1.000  H
  H177     1.0000 0.41952  0.36889  0.03428  Biso   1.000  H
  H178     1.0000 0.02174  0.60417  0.65133  Biso   1.000  H
  H179     1.0000 0.13828  0.50542  0.43345  Biso   1.000  H
  H180     1.0000 0.92229  0.37229  0.53818  Biso   1.000  H
  H181     1.0000 0.00291  0.90604  0.14703  Biso   1.000  H
  H182     1.0000 0.15076  0.98891  0.93551  Biso   1.000  H
  H183     1.0000 0.92230  0.14115  0.03161  Biso   1.000  H
  H184     1.0000 0.50622  0.90397  0.38990  Biso   1.000  H
  H185     1.0000 0.65206  0.98980  0.60559  Biso   1.000  H
  H186     1.0000 0.42341  0.12768  0.53083  Biso   1.000  H
  H187     1.0000 0.51255  0.41128  0.16179  Biso   1.000  H
  H188     1.0000 0.37615  0.49172  0.93271  Biso   1.000  H
  H189     1.0000 0.59685  0.64218  0.02618  Biso   1.000  H
  H190     1.0000 0.00164  0.39725  0.39433  Biso   1.000  H
  H191     1.0000 0.88047  0.50092  0.62338  Biso   1.000  H
  H192     1.0000 0.09311  0.63769  0.52291  Biso   1.000  H
  H193     1.0000 0.28194  0.85615  0.52822  Biso   1.000  H
  H194     1.0000 0.50611  0.27229  0.88030  Biso   1.000  H
  H195     1.0000 0.85919  0.51202  0.30015  Biso   1.000  H
  H196     1.0000 0.78398  0.86600  0.02364  Biso   1.000  H
  H197     1.0000 0.00901  0.28640  0.68429  Biso   1.000  H
  H198     1.0000 0.35239  0.48940  0.24951  Biso   1.000  H
  H199     1.0000 0.24785  0.35669  0.51571  Biso   1.000  H
  H200     1.0000 0.01454  0.77922  0.86532  Biso   1.000  H
  H201     1.0000 0.65198  0.00211  0.28679  Biso   1.000  H
  H202     1.0000 0.74144  0.36479  0.01470  Biso   1.000  H
  H203     1.0000 0.49523  0.77420  0.66607  Biso   1.000  H
  H204     1.0000 0.14538  0.99678  0.25955  Biso   1.000  H
  H205     1.0000 0.75035  0.14408  0.51230  Biso   1.000  H
  H206     1.0000 0.48970  0.73207  0.16207  Biso   1.000  H
  H207     1.0000 0.15166  0.51449  0.75252  Biso   1.000  H
  H208     1.0000 0.24575  0.13804  0.01769  Biso   1.000  H
  H209     1.0000 0.98958  0.72079  0.35564  Biso   1.000  H
  H210     1.0000 0.65444  0.51168  0.80260  Biso   1.000  H
  H211     1.0000 0.77679  0.64000  0.50669  Biso   1.000  H
  H212     1.0000 0.01161  0.22156  0.17842  Biso   1.000  H
  H213     1.0000 0.37712  0.00301  0.75653  Biso   1.000  H
  H214     1.0000 0.28179  0.63857  0.99264  Biso   1.000  H
  H215     1.0000 0.52274  0.22524  0.38415  Biso   1.000  H
  H216     1.0000 0.88051  0.01786  0.78552  Biso   1.000  H
  H217     1.0000 0.23320  0.52348  0.37846  Biso   1.000  H
  H218     1.0000 0.37549  0.22906  0.53595  Biso   1.000  H
  H219     1.0000 0.49252  0.35233  0.25374  Biso   1.000  H
  H220     1.0000 0.73497  0.50772  0.17769  Biso   1.000  H
  H221     1.0000 0.87325  0.24095  0.01993  Biso   1.000  H
  H222     1.0000 0.01752  0.33594  0.30487  Biso   1.000  H
  H223     1.0000 0.27899  0.99874  0.38885  Biso   1.000  H
  H224     1.0000 0.14505  0.73256  0.50650  Biso   1.000  H
  H225     1.0000 0.02620  0.85126  0.24233  Biso   1.000  H
  H226     1.0000 0.78131  0.03148  0.15294  Biso   1.000  H
  H227     1.0000 0.64727  0.74170  0.01680  Biso   1.000  H
  H228     1.0000 0.50267  0.85110  0.29331  Biso   1.000  H
  H229     1.0000 0.78412  0.48502  0.67832  Biso   1.000  H
  H230     1.0000 0.64963  0.77052  0.52444  Biso   1.000  H
  H231     1.0000 0.52329  0.64825  0.79250  Biso   1.000  H
  H232     1.0000 0.27606  0.48932  0.88132  Biso   1.000  H
  H233     1.0000 0.15036  0.76588  0.99749  Biso   1.000  H
  H234     1.0000 0.04006  0.66667  0.73806  Biso   1.000  H
  H235     1.0000 0.74849  0.00977  0.65875  Biso   1.000  H
  H236     1.0000 0.87475  0.27260  0.53655  Biso   1.000  H
  H237     1.0000 0.00040  0.15654  0.79920  Biso   1.000  H
  H238     1.0000 0.25085  0.98296  0.88976  Biso   1.000  H
  H239     1.0000 0.37677  0.26915  0.01827  Biso   1.000  H
  H240     1.0000 0.53511  0.14632  0.75513  Biso   1.000  H
  H241     1.0000 0.73798  0.49195  0.89020  Biso   1.000  H
  H242     1.0000 0.86250  0.73209  0.50998  Biso   1.000  H
  H243     1.0000 0.52494  0.85917  0.74552  Biso   1.000  H
  H244     1.0000 0.24131  0.51802  0.66667  Biso   1.000  H
  H245     1.0000 0.36304  0.72261  0.00326  Biso   1.000  H
  H246     1.0000 0.04427  0.87039  0.78631  Biso   1.000  H
  H247     1.0000 0.79088  0.01718  0.87058  Biso   1.000  H
  H248     1.0000 0.66395  0.23018  0.53281  Biso   1.000  H
  H249     1.0000 0.99407  0.37955  0.76037  Biso   1.000  H
  H250     1.0000 0.29158  0.98823  0.67419  Biso   1.000  H
  H251     1.0000 0.16184  0.22591  0.03347  Biso   1.000  H
  H252     1.0000 0.51171  0.35794  0.79507  Biso   1.000  H
  H253     1.0000 0.27855  0.52560  0.16292  Biso   1.000  H
  H254     1.0000 0.16334  0.27413  0.53861  Biso   1.000  H
  H255     1.0000 0.50377  0.14248  0.29839  Biso   1.000  H
  H256     1.0000 0.77945  0.52204  0.39027  Biso   1.000  H
  H257     1.0000 0.65490  0.27871  0.01451  Biso   1.000  H
  H258     1.0000 0.00301  0.13357  0.25725  Biso   1.000  H
  H259     1.0000 0.23511  0.00397  0.17783  Biso   1.000  H
  H260     1.0000 0.36600  0.76794  0.50774  Biso   1.000  H
  H261     1.0000 0.01233  0.62806  0.28005  Biso   1.000  H
  H262     1.0000 0.74040  0.01426  0.36996  Biso   1.000  H
  H263     1.0000 0.85813  0.77777  0.00612  Biso   1.000  H
  H264     1.0000 0.49861  0.64366  0.25231  Biso   1.000  H
  H265     1.0000 0.99664  0.23930  0.88552  Biso   1.000  H
  H266     1.0000 0.85667  0.99015  0.24345  Biso   1.000  H
  H267     1.0000 0.23997  0.85271  0.01540  Biso   1.000  H
  H268     1.0000 0.52814  0.23273  0.67000  Biso   1.000  H
  H269     1.0000 0.36056  0.97866  0.29968  Biso   1.000  H
  H270     1.0000 0.73421  0.85402  0.50085  Biso   1.000  H
  H271     1.0000 0.49953  0.73322  0.87925  Biso   1.000  H
  H272     1.0000 0.64944  0.52344  0.25795  Biso   1.000  H
  H273     1.0000 0.28346  0.34851  0.04847  Biso   1.000  H
  H274     1.0000 0.02667  0.74391  0.64392  Biso   1.000  H
  H275     1.0000 0.15057  0.50137  0.29449  Biso   1.000  H
  H276     1.0000 0.78778  0.35905  0.51057  Biso   1.000  H
  H277     1.0000 0.01223  0.76517  0.15103  Biso   1.000  H
  H278     1.0000 0.16940  0.00588  0.80227  Biso   1.000  H
  H279     1.0000 0.78766  0.15599  0.99531  Biso   1.000  H
  H280     1.0000 0.51871  0.76103  0.38060  Biso   1.000  H
  H281     1.0000 0.66631  0.99950  0.74404  Biso   1.000  H
  H282     1.0000 0.28671  0.14555  0.52628  Biso   1.000  H
  H283     1.0000 0.51276  0.26881  0.16344  Biso   1.000  H
  H284     1.0000 0.36118  0.49186  0.79554  Biso   1.000  H
  H285     1.0000 0.73450  0.65793  0.00803  Biso   1.000  H
  H286     1.0000 0.02482  0.25942  0.39553  Biso   1.000  H
  H287     1.0000 0.86638  0.52686  0.75806  Biso   1.000  H
  H288     1.0000 0.23097  0.65001  0.52320  Biso   1.000  H
  H289     1.0000 0.10605  0.22842  0.03114  Biso   1.000  H
  H290     1.0000 0.99570  0.08037  0.25380  Biso   1.000  H
  H291     1.0000 0.23436  0.00576  0.12147  Biso   1.000  H
  H292     1.0000 0.60846  0.22817  0.53049  Biso   1.000  H
  H293     1.0000 0.50608  0.08727  0.29604  Biso   1.000  H
  H294     1.0000 0.74091  0.01255  0.42052  Biso   1.000  H
  H295     1.0000 0.41680  0.72246  0.01431  Biso   1.000  H
  H296     1.0000 0.49775  0.58883  0.25163  Biso   1.000  H
  H297     1.0000 0.28123  0.53028  0.10960  Biso   1.000  H
  H298     1.0000 0.91223  0.73176  0.50582  Biso   1.000  H
  H299     1.0000 0.01231  0.57446  0.28609  Biso   1.000  H
  H300     1.0000 0.78500  0.52382  0.44514  Biso   1.000  H
  H301     1.0000 0.91666  0.77768  0.01140  Biso   1.000  H
  H302     1.0000 0.04135  0.92491  0.78696  Biso   1.000  H
  H303     1.0000 0.78941  0.01746  0.92228  Biso   1.000  H
  H304     1.0000 0.41886  0.76702  0.50627  Biso   1.000  H
  H305     1.0000 0.53056  0.91227  0.74678  Biso   1.000  H
  H306     1.0000 0.28949  0.98984  0.62161  Biso   1.000  H
  H307     1.0000 0.60533  0.27597  0.01572  Biso   1.000  H
  H308     1.0000 0.51619  0.41139  0.79609  Biso   1.000  H
  H309     1.0000 0.73344  0.49567  0.94373  Biso   1.000  H
  H310     1.0000 0.10863  0.27352  0.54017  Biso   1.000  H
  H311     1.0000 0.98623  0.43037  0.75553  Biso   1.000  H
  H312     1.0000 0.24436  0.50499  0.61497  Biso   1.000  H
  H313     1.0000 0.24716  0.98009  0.94280  Biso   1.000  H
  H314     1.0000 0.92432  0.23582  0.03439  Biso   1.000  H
  H315     1.0000 0.03141  0.89922  0.24083  Biso   1.000  H
  H316     1.0000 0.74765  0.00369  0.60163  Biso   1.000  H
  H317     1.0000 0.43286  0.22345  0.53894  Biso   1.000  H
  H318     1.0000 0.49544  0.90464  0.29498  Biso   1.000  H
  H319     1.0000 0.28123  0.48488  0.93512  Biso   1.000  H
  H320     1.0000 0.59758  0.73953  0.01556  Biso   1.000  H
  H321     1.0000 0.49569  0.40846  0.25289  Biso   1.000  H
  H322     1.0000 0.78533  0.48168  0.62106  Biso   1.000  H
  H323     1.0000 0.08901  0.73091  0.51021  Biso   1.000  H
  H324     1.0000 0.00501  0.39018  0.29858  Biso   1.000  H
  H325     1.0000 0.78587  0.03284  0.09995  Biso   1.000  H
  H326     1.0000 0.09515  0.76833  0.00467  Biso   1.000  H
  H327     1.0000 0.01424  0.10432  0.80001  Biso   1.000  H
  H328     1.0000 0.27914  0.00557  0.43826  Biso   1.000  H
  H329     1.0000 0.59703  0.77144  0.53245  Biso   1.000  H
  H330     1.0000 0.53295  0.09103  0.75746  Biso   1.000  H
  H331     1.0000 0.73613  0.50174  0.12450  Biso   1.000  H
  H332     1.0000 0.42877  0.27502  0.01304  Biso   1.000  H
  H333     1.0000 0.53177  0.59301  0.79617  Biso   1.000  H
  H334     1.0000 0.22983  0.52727  0.43254  Biso   1.000  H
  H335     1.0000 0.92758  0.27449  0.53712  Biso   1.000  H
  H336     1.0000 0.04108  0.61441  0.74487  Biso   1.000  H
  H337     1.0000 0.00091  0.23663  0.93995  Biso   1.000  H
  H338     1.0000 0.90965  0.98336  0.24076  Biso   1.000  H
  H339     1.0000 0.23956  0.89918  0.02822  Biso   1.000  H
  H340     1.0000 0.53294  0.23261  0.61806  Biso   1.000  H
  H341     1.0000 0.41554  0.98354  0.29414  Biso   1.000  H
  H342     1.0000 0.73418  0.90585  0.49459  Biso   1.000  H
  H343     1.0000 0.49793  0.72847  0.93334  Biso   1.000  H
  H344     1.0000 0.59127  0.51628  0.25695  Biso   1.000  H
  H345     1.0000 0.28376  0.40240  0.04602  Biso   1.000  H
  H346     1.0000 0.01474  0.73819  0.59175  Biso   1.000  H
  H347     1.0000 0.09666  0.49440  0.29796  Biso   1.000  H
  H348     1.0000 0.78731  0.41093  0.50500  Biso   1.000  H
  H349     1.0000 0.00940  0.77119  0.09895  Biso   1.000  H
  H350     1.0000 0.11706  0.00742  0.79869  Biso   1.000  H
  H351     1.0000 0.79052  0.10002  0.99284  Biso   1.000  H
  H352     1.0000 0.52614  0.76280  0.43347  Biso   1.000  H
  H353     1.0000 0.61000  0.99702  0.74328  Biso   1.000  H
  H354     1.0000 0.28802  0.09116  0.51707  Biso   1.000  H
  H355     1.0000 0.52175  0.27034  0.11376  Biso   1.000  H
  H356     1.0000 0.41720  0.49420  0.79428  Biso   1.000  H
  H357     1.0000 0.73816  0.60332  0.01623  Biso   1.000  H
  H358     1.0000 0.02552  0.26327  0.45044  Biso   1.000  H
  H359     1.0000 0.92031  0.52658  0.75736  Biso   1.000  H
  H360     1.0000 0.22955  0.59464  0.53721  Biso   1.000  H
  H361     1.0000 0.99032  0.72664  0.41305  Biso   1.000  H
  H362     1.0000 0.43001  0.99826  0.75457  Biso   1.000  H
  H363     1.0000 0.74007  0.42076  0.02366  Biso   1.000  H
  H364     1.0000 0.49890  0.73163  0.11427  Biso   1.000  H
  H365     1.0000 0.93490  0.01947  0.78860  Biso   1.000  H
  H366     1.0000 0.24858  0.41327  0.51935  Biso   1.000  H
  H367     1.0000 0.52634  0.22002  0.43740  Biso   1.000  H
  H368     1.0000 0.10016  0.50967  0.74933  Biso   1.000  H
  H369     1.0000 0.78505  0.92292  0.01648  Biso   1.000  H
  H370     1.0000 0.01830  0.22540  0.12461  Biso   1.000  H
  H371     1.0000 0.60050  0.50581  0.80368  Biso   1.000  H
  H372     1.0000 0.28685  0.90996  0.53489  Biso   1.000  H
  H373     1.0000 0.01628  0.28087  0.63325  Biso   1.000  H
  H374     1.0000 0.59764  0.99433  0.28912  Biso   1.000  H
  H375     1.0000 0.28228  0.58431  0.99199  Biso   1.000  H
  H376     1.0000 0.49723  0.27248  0.93546  Biso   1.000  H
  H377     1.0000 0.09220  0.99916  0.25602  Biso   1.000  H
  H378     1.0000 0.77802  0.58644  0.52059  Biso   1.000  H
  H379     1.0000 0.48890  0.77202  0.61165  Biso   1.000  H
  H380     1.0000 0.91269  0.50131  0.29699  Biso   1.000  H
  H381     1.0000 0.24307  0.08597  0.01558  Biso   1.000  H
  H382     1.0000 0.00659  0.77977  0.92309  Biso   1.000  H
  H383     1.0000 0.40536  0.47876  0.25187  Biso   1.000  H
  H384     1.0000 0.74820  0.09004  0.51368  Biso   1.000  H
  H385     1.0000 0.23674  0.48266  0.35117  Biso   1.000  H
  H386     1.0000 0.29767  0.17827  0.49376  Biso   1.000  H
  H387     1.0000 0.46742  0.31986  0.24364  Biso   1.000  H
  H388     1.0000 0.67515  0.49514  0.26106  Biso   1.000  H
  H389     1.0000 0.82924  0.22228  0.05618  Biso   1.000  H
  H390     1.0000 0.98496  0.25943  0.36568  Biso   1.000  H
  H391     1.0000 0.27838  0.96399  0.35842  Biso   1.000  H
  H392     1.0000 0.17922  0.72435  0.47484  Biso   1.000  H
  H393     1.0000 0.04387  0.76947  0.18056  Biso   1.000  H
  H394     1.0000 0.77078  0.99362  0.18115  Biso   1.000  H
  H395     1.0000 0.73075  0.68519  0.04524  Biso   1.000  H
  H396     1.0000 0.47846  0.81922  0.30359  Biso   1.000  H
  H397     1.0000 0.78019  0.52640  0.70476  Biso   1.000  H
  H398     1.0000 0.73240  0.82351  0.53441  Biso   1.000  H
  H399     1.0000 0.49010  0.67197  0.79262  Biso   1.000  H
  H400     1.0000 0.33539  0.53541  0.80523  Biso   1.000  H
  H401     1.0000 0.23804  0.82724  0.98336  Biso   1.000  H
  H402     1.0000 0.07038  0.69919  0.72521  Biso   1.000  H
  H403     1.0000 0.74916  0.97699  0.68728  Biso   1.000  H
  H404     1.0000 0.79295  0.33303  0.55010  Biso   1.000  H
  H405     1.0000 0.03666  0.23654  0.85912  Biso   1.000  H
  H406     1.0000 0.25359  0.01135  0.85784  Biso   1.000  H
  H407     1.0000 0.28552  0.32503  0.01126  Biso   1.000  H
  H408     1.0000 0.49724  0.17551  0.75351  Biso   1.000  H
  H409     1.0000 0.27171  0.48930  0.18845  Biso   1.000  H
  H410     1.0000 0.18966  0.27144  0.51070  Biso   1.000  H
  H411     1.0000 0.47881  0.21722  0.35393  Biso   1.000  H
  H412     1.0000 0.82657  0.48275  0.30868  Biso   1.000  H
  H413     1.0000 0.68965  0.28339  0.98262  Biso   1.000  H
  H414     1.0000 0.97228  0.16805  0.25168  Biso   1.000  H
  H415     1.0000 0.17809  0.02049  0.26033  Biso   1.000  H
  H416     1.0000 0.27826  0.83749  0.49156  Biso   1.000  H
  H417     1.0000 0.98838  0.66271  0.27280  Biso   1.000  H
  H418     1.0000 0.73697  0.97963  0.33758  Biso   1.000  H
  H419     1.0000 0.83370  0.78678  0.05769  Biso   1.000  H
  H420     1.0000 0.46167  0.67553  0.24811  Biso   1.000  H
  H421     1.0000 0.73729  0.53264  0.86070  Biso   1.000  H
  H422     1.0000 0.77516  0.67488  0.54171  Biso   1.000  H
  H423     1.0000 0.55163  0.82342  0.73130  Biso   1.000  H
  H424     1.0000 0.18626  0.54479  0.74936  Biso   1.000  H
  H425     1.0000 0.33449  0.71621  0.96419  Biso   1.000  H
  H426     1.0000 0.04698  0.77966  0.83589  Biso   1.000  H
  H427     1.0000 0.84779  0.04145  0.78455  Biso   1.000  H
  H428     1.0000 0.74923  0.17006  0.54136  Biso   1.000  H
  H429     1.0000 0.03102  0.34602  0.76580  Biso   1.000  H
  H430     1.0000 0.35114  0.96610  0.75485  Biso   1.000  H
  H431     1.0000 0.18994  0.22479  0.99806  Biso   1.000  H
  H432     1.0000 0.47708  0.28296  0.84504  Biso   1.000  H
  H433     1.0000 0.29351  0.02076  0.69939  Biso   1.000  H
  H434     1.0000 0.73710  0.33556  0.04712  Biso   1.000  H
  H435     1.0000 0.03412  0.71827  0.33869  Biso   1.000  H
  H436     1.0000 0.79606  0.98456  0.84016  Biso   1.000  H
  H437     1.0000 0.25052  0.33135  0.55502  Biso   1.000  H
  H438     1.0000 0.52319  0.72489  0.19228  Biso   1.000  H
  H439     1.0000 0.23848  0.48327  0.69650  Biso   1.000  H
  H440     1.0000 0.79115  0.83388  0.98369  Biso   1.000  H
  H441     1.0000 0.54377  0.17134  0.29856  Biso   1.000  H
  H442     1.0000 0.68636  0.47354  0.80502  Biso   1.000  H
  H443     1.0000 0.33557  0.76847  0.53305  Biso   1.000  H
  H444     1.0000 0.04086  0.21546  0.20654  Biso   1.000  H
  H445     1.0000 0.67488  0.03596  0.28841  Biso   1.000  H
  H446     1.0000 0.28575  0.66653  0.02903  Biso   1.000  H
  H447     1.0000 0.97120  0.28859  0.70967  Biso   1.000  H
  H448     1.0000 0.23188  0.96786  0.19897  Biso   1.000  H
  H449     1.0000 0.83223  0.72643  0.48641  Biso   1.000  H
  H450     1.0000 0.55377  0.32221  0.80839  Biso   1.000  H
  H451     1.0000 0.78459  0.55191  0.35635  Biso   1.000  H
  H452     1.0000 0.24366  0.16634  0.05740  Biso   1.000  H
  H453     1.0000 0.46714  0.78985  0.70639  Biso   1.000  H
  H454     1.0000 0.33396  0.52867  0.25228  Biso   1.000  H
  H455     1.0000 0.69040  0.23178  0.49918  Biso   1.000  H
  H456     1.0000 0.00400  0.84653  0.78312  Biso   1.000  H
  H457     1.0000 0.67573  0.77744  0.47556  Biso   1.000  H
  H458     1.0000 0.53570  0.73243  0.85063  Biso   1.000  H
  H459     1.0000 0.84133  0.47919  0.76416  Biso   1.000  H
  H460     1.0000 0.17984  0.76445  0.02690  Biso   1.000  H
  H461     1.0000 0.99501  0.74380  0.68138  Biso   1.000  H
  H462     1.0000 0.28425  0.46386  0.84576  Biso   1.000  H
  H463     1.0000 0.84536  0.27129  0.49889  Biso   1.000  H
  H464     1.0000 0.96641  0.18990  0.80934  Biso   1.000  H
  H465     1.0000 0.69189  0.03442  0.73269  Biso   1.000  H
  H466     1.0000 0.34813  0.25922  0.04829  Biso   1.000  H
  H467     1.0000 0.54992  0.23507  0.69958  Biso   1.000  H
  H468     1.0000 0.19171  0.96822  0.79881  Biso   1.000  H
  H469     1.0000 0.34258  0.21782  0.56931  Biso   1.000  H
  H470     1.0000 0.53717  0.27547  0.19967  Biso   1.000  H
  H471     1.0000 0.17554  0.53403  0.29524  Biso   1.000  H
  H472     1.0000 0.79408  0.19507  0.96941  Biso   1.000  H
  H473     1.0000 0.05337  0.30726  0.31380  Biso   1.000  H
  H474     1.0000 0.73366  0.54204  0.20179  Biso   1.000  H
  H475     1.0000 0.22574  0.68382  0.55023  Biso   1.000  H
  H476     1.0000 0.98619  0.81996  0.23741  Biso   1.000  H
  H477     1.0000 0.33204  0.01466  0.29548  Biso   1.000  H
  H478     1.0000 0.68227  0.74009  0.98732  Biso   1.000  H
  H479     1.0000 0.54564  0.76553  0.34511  Biso   1.000  H
  H480     1.0000 0.83562  0.02691  0.24289  Biso   1.000  H
  N1       1.0000 0.69551  0.17825  0.51993  Biso   1.000  N
  N2       1.0000 0.49013  0.67750  0.19785  Biso   1.000  N
  N3       1.0000 0.18702  0.51245  0.69916  Biso   1.000  N
  N4       1.0000 0.19125  0.17287  0.02696  Biso   1.000  N
  N5       1.0000 0.00576  0.66560  0.33100  Biso   1.000  N
  N6       1.0000 0.68642  0.50554  0.85527  Biso   1.000  N
  N7       1.0000 0.82619  0.67694  0.51644  Biso   1.000  N
  N8       1.0000 0.00546  0.16959  0.20497  Biso   1.000  N
  N9       1.0000 0.34418  0.99532  0.70449  Biso   1.000  N
  N10      1.0000 0.33383  0.66895  0.99891  Biso   1.000  N
  N11      1.0000 0.51293  0.17191  0.35130  Biso   1.000  N
  N12      1.0000 0.84490  0.01201  0.83595  Biso   1.000  N
  N13      1.0000 0.33434  0.82332  0.51290  Biso   1.000  N
  N14      1.0000 0.51232  0.32591  0.84973  Biso   1.000  N
  N15      1.0000 0.82940  0.51314  0.35395  Biso   1.000  N
  N16      1.0000 0.83346  0.83381  0.01633  Biso   1.000  N
  N17      1.0000 0.00467  0.34194  0.71118  Biso   1.000  N
  N18      1.0000 0.32690  0.50558  0.19744  Biso   1.000  N
  N19      1.0000 0.19601  0.32583  0.52741  Biso   1.000  N
  N20      1.0000 0.02619  0.83412  0.83586  Biso   1.000  N
  N21      1.0000 0.68604  0.00557  0.33871  Biso   1.000  N
  N22      1.0000 0.68881  0.33265  0.01874  Biso   1.000  N
  N23      1.0000 0.50706  0.82780  0.69600  Biso   1.000  N
  N24      1.0000 0.18090  0.99712  0.20658  Biso   1.000  N
  N25      1.0000 0.83428  0.50262  0.70923  Biso   1.000  N
  N26      1.0000 0.68090  0.82383  0.51119  Biso   1.000  N
  N27      1.0000 0.51274  0.67953  0.84662  Biso   1.000  N
  N28      1.0000 0.33195  0.49378  0.84885  Biso   1.000  N
  N29      1.0000 0.18450  0.81805  0.00595  Biso   1.000  N
  N30      1.0000 0.03177  0.69409  0.68383  Biso   1.000  N
  N31      1.0000 0.69713  0.00252  0.68973  Biso   1.000  N
  N32      1.0000 0.84162  0.32573  0.52196  Biso   1.000  N
  N33      1.0000 0.00359  0.18666  0.85406  Biso   1.000  N
  N34      1.0000 0.19955  0.99198  0.85363  Biso   1.000  N
  N35      1.0000 0.33903  0.31854  0.03436  Biso   1.000  N
  N36      1.0000 0.52675  0.17918  0.70318  Biso   1.000  N
  N37      1.0000 0.18167  0.50943  0.34670  Biso   1.000  N
  N38      1.0000 0.34295  0.17680  0.53137  Biso   1.000  N
  N39      1.0000 0.50343  0.32092  0.19986  Biso   1.000  N
  N40      1.0000 0.68045  0.51743  0.20793  Biso   1.000  N
  N41      1.0000 0.83980  0.18599  0.01212  Biso   1.000  N
  N42      1.0000 0.01808  0.30848  0.36067  Biso   1.000  N
  N43      1.0000 0.33134  0.99274  0.35317  Biso   1.000  N
  N44      1.0000 0.17820  0.68157  0.51487  Biso   1.000  N
  N45      1.0000 0.01433  0.81965  0.18609  Biso   1.000  N
  N46      1.0000 0.82675  0.00658  0.18888  Biso   1.000  N
  N47      1.0000 0.68239  0.68739  0.01684  Biso   1.000  N
  N48      1.0000 0.51489  0.81606  0.34606  Biso   1.000  N
  O1       1.0000 0.35294  0.53733  0.01147  Biso   1.000  O
  O2       1.0000 0.01696  0.35179  0.57687  Biso   1.000  O
  O3       1.0000 0.54991  0.99663  0.36200  Biso   1.000  O
  O4       1.0000 0.85213  0.54635  0.53780  Biso   1.000  O
  O5       1.0000 0.50551  0.34663  0.98239  Biso   1.000  O
  O6       1.0000 0.04795  0.99863  0.17971  Biso   1.000  O
  O7       1.0000 0.16870  0.03957  0.02073  Biso   1.000  O
  O8       1.0000 0.49834  0.84427  0.56074  Biso   1.000  O
  O9       1.0000 0.96283  0.49216  0.36775  Biso   1.000  O
  O10      1.0000 0.67524  0.04282  0.52123  Biso   1.000  O
  O11      1.0000 0.01272  0.84937  0.97023  Biso   1.000  O
  O12      1.0000 0.45964  0.49149  0.17878  Biso   1.000  O
  O13      1.0000 0.66958  0.46730  0.03317  Biso   1.000  O
  O14      1.0000 0.99921  0.65788  0.46906  Biso   1.000  O
  O15      1.0000 0.47783  0.00272  0.68163  Biso   1.000  O
  O16      1.0000 0.17258  0.46028  0.51836  Biso   1.000  O
  O17      1.0000 0.50537  0.65599  0.06443  Biso   1.000  O
  O18      1.0000 0.97994  0.00410  0.86414  Biso   1.000  O
  O19      1.0000 0.85931  0.96680  0.01925  Biso   1.000  O
  O20      1.0000 0.51448  0.15356  0.48684  Biso   1.000  O
  O21      1.0000 0.05094  0.50637  0.67722  Biso   1.000  O
  O22      1.0000 0.35685  0.95754  0.52324  Biso   1.000  O
  O23      1.0000 0.01552  0.15583  0.07172  Biso   1.000  O
  O24      1.0000 0.55087  0.50636  0.87197  Biso   1.000  O
  O25      1.0000 0.96186  0.99407  0.17158  Biso   1.000  O
  O26      1.0000 0.16949  0.95308  0.03786  Biso   1.000  O
  O27      1.0000 0.01507  0.16574  0.98866  Biso   1.000  O
  O28      1.0000 0.46685  0.99054  0.36519  Biso   1.000  O
  O29      1.0000 0.66688  0.96026  0.50829  Biso   1.000  O
  O30      1.0000 0.52695  0.15972  0.56969  Biso   1.000  O
  O31      1.0000 0.54543  0.50643  0.18454  Biso   1.000  O
  O32      1.0000 0.35052  0.45415  0.02736  Biso   1.000  O
  O33      1.0000 0.51129  0.65197  0.97997  Biso   1.000  O
  O34      1.0000 0.04682  0.48790  0.36783  Biso   1.000  O
  O35      1.0000 0.85784  0.45894  0.52440  Biso   1.000  O
  O36      1.0000 0.99931  0.66279  0.55417  Biso   1.000  O
  O37      1.0000 0.06453  0.00831  0.86623  Biso   1.000  O
  O38      1.0000 0.85879  0.04927  0.00793  Biso   1.000  O
  O39      1.0000 0.00633  0.84277  0.05301  Biso   1.000  O
  O40      1.0000 0.56056  0.00285  0.67394  Biso   1.000  O
  O41      1.0000 0.35927  0.04147  0.52561  Biso   1.000  O
  O42      1.0000 0.51880  0.83727  0.48052  Biso   1.000  O
  O43      1.0000 0.46644  0.50193  0.86649  Biso   1.000  O
  O44      1.0000 0.66764  0.55140  0.02871  Biso   1.000  O
  O45      1.0000 0.51827  0.34454  0.06704  Biso   1.000  O
  O46      1.0000 0.96981  0.52840  0.68364  Biso   1.000  O
  O47      1.0000 0.16044  0.54434  0.52896  Biso   1.000  O
  O48      1.0000 0.01920  0.34059  0.49028  Biso   1.000  O
  O49      1.0000 0.00875  0.95556  0.17306  Biso   1.000  O
  O50      1.0000 0.17309  0.98755  0.98808  Biso   1.000  O
  O51      1.0000 0.97259  0.16411  0.02944  Biso   1.000  O
  O52      1.0000 0.50941  0.95103  0.36721  Biso   1.000  O
  O53      1.0000 0.67462  0.99262  0.55645  Biso   1.000  O
  O54      1.0000 0.47829  0.15385  0.53290  Biso   1.000  O
  O55      1.0000 0.50909  0.45793  0.18190  Biso   1.000  O
  O56      1.0000 0.35439  0.48734  0.98026  Biso   1.000  O
  O57      1.0000 0.54900  0.66144  0.02458  Biso   1.000  O
  O58      1.0000 0.00482  0.44721  0.36777  Biso   1.000  O
  O59      1.0000 0.85244  0.49919  0.57218  Biso   1.000  O
  O60      1.0000 0.04505  0.65935  0.51229  Biso   1.000  O
  O61      1.0000 0.01875  0.04997  0.86766  Biso   1.000  O
  O62      1.0000 0.85646  0.01257  0.05659  Biso   1.000  O
  O63      1.0000 0.05073  0.84169  0.01942  Biso   1.000  O
  O64      1.0000 0.51972  0.04582  0.68225  Biso   1.000  O
  O65      1.0000 0.35649  0.00268  0.48528  Biso   1.000  O
  O66      1.0000 0.54844  0.84499  0.53385  Biso   1.000  O
  O67      1.0000 0.50698  0.54571  0.86384  Biso   1.000  O
  O68      1.0000 0.66356  0.50994  0.07331  Biso   1.000  O
  O69      1.0000 0.47291  0.34648  0.03198  Biso   1.000  O
  O70      1.0000 0.02006  0.55951  0.68141  Biso   1.000  O
  O71      1.0000 0.16542  0.50692  0.48268  Biso   1.000  O
  O72      1.0000 0.97412  0.34940  0.53168  Biso   1.000  O
  O73      1.0000 0.99856  0.47840  0.68128  Biso   1.000  O
  O74      1.0000 0.67142  0.00548  0.47379  Biso   1.000  O
  O75      1.0000 0.46509  0.65210  0.02311  Biso   1.000  O
  O76      1.0000 0.51104  0.46246  0.86905  Biso   1.000  O
  O77      1.0000 0.16431  0.00321  0.07040  Biso   1.000  O
  O78      1.0000 0.95890  0.65728  0.51041  Biso   1.000  O
  O79      1.0000 0.52340  0.96081  0.67219  Biso   1.000  O
  O80      1.0000 0.85540  0.51000  0.48824  Biso   1.000  O
  O81      1.0000 0.05630  0.15862  0.02862  Biso   1.000  O
  O82      1.0000 0.02786  0.96678  0.86047  Biso   1.000  O
  O83      1.0000 0.35205  0.50124  0.06338  Biso   1.000  O
  O84      1.0000 0.56431  0.15740  0.52298  Biso   1.000  O
  O85      1.0000 0.00509  0.53244  0.36197  Biso   1.000  O
  O86      1.0000 0.35906  0.99514  0.56780  Biso   1.000  O
  O87      1.0000 0.55405  0.34820  0.02133  Biso   1.000  O
  O88      1.0000 0.49718  0.54231  0.17896  Biso   1.000  O
  O89      1.0000 0.86038  0.00506  0.97362  Biso   1.000  O
  O90      1.0000 0.06011  0.34636  0.53456  Biso   1.000  O
  O91      1.0000 0.50421  0.03487  0.36719  Biso   1.000  O
  O92      1.0000 0.17217  0.49986  0.56532  Biso   1.000  O
  O93      1.0000 0.96851  0.84480  0.00824  Biso   1.000  O
  O94      1.0000 0.00462  0.03831  0.18061  Biso   1.000  O
  O95      1.0000 0.66526  0.50696  0.98949  Biso   1.000  O
  O96      1.0000 0.46796  0.83911  0.51132  Biso   1.000  O
  O97      1.0000 0.47715  0.20388  0.52828  Biso   1.000  O
  O98      1.0000 0.50574  0.45596  0.22887  Biso   1.000  O
  O99      1.0000 0.21511  0.51084  0.47972  Biso   1.000  O
  O100     1.0000 0.97248  0.21351  0.03669  Biso   1.000  O
  O101     1.0000 0.00104  0.44213  0.31983  Biso   1.000  O
  O102     1.0000 0.71211  0.50883  0.07439  Biso   1.000  O
  O103     1.0000 0.04406  0.70826  0.50672  Biso   1.000  O
  O104     1.0000 0.00606  0.95056  0.22188  Biso   1.000  O
  O105     1.0000 0.30774  0.99918  0.48921  Biso   1.000  O
  O106     1.0000 0.54650  0.71228  0.02092  Biso   1.000  O
  O107     1.0000 0.50710  0.95393  0.31774  Biso   1.000  O
  O108     1.0000 0.80939  0.01762  0.05297  Biso   1.000  O
  O109     1.0000 0.54962  0.79595  0.52799  Biso   1.000  O
  O110     1.0000 0.51414  0.54662  0.81592  Biso   1.000  O
  O111     1.0000 0.80593  0.49074  0.57369  Biso   1.000  O
  O112     1.0000 0.04810  0.79107  0.01513  Biso   1.000  O
  O113     1.0000 0.02465  0.56295  0.72915  Biso   1.000  O
  O114     1.0000 0.30538  0.48820  0.98178  Biso   1.000  O
  O115     1.0000 0.97371  0.30120  0.54004  Biso   1.000  O
  O116     1.0000 0.02466  0.05581  0.81917  Biso   1.000  O
  O117     1.0000 0.72303  0.98744  0.55415  Biso   1.000  O
  O118     1.0000 0.47387  0.29824  0.02741  Biso   1.000  O
  O119     1.0000 0.52271  0.04237  0.73050  Biso   1.000  O
  O120     1.0000 0.22134  0.99048  0.98999  Biso   1.000  O
  O121     1.0000 0.05331  0.51035  0.72547  Biso   1.000  O
  O122     1.0000 0.72405  0.04081  0.52028  Biso   1.000  O
  O123     1.0000 0.50769  0.70528  0.06438  Biso   1.000  O
  O124     1.0000 0.55288  0.50562  0.82342  Biso   1.000  O
  O125     1.0000 0.21710  0.03736  0.03016  Biso   1.000  O
  O126     1.0000 0.00285  0.70698  0.46403  Biso   1.000  O
  O127     1.0000 0.47879  0.99676  0.73004  Biso   1.000  O
  O128     1.0000 0.80341  0.53890  0.53764  Biso   1.000  O
  O129     1.0000 0.02041  0.20499  0.07324  Biso   1.000  O
  O130     1.0000 0.98257  0.01197  0.81581  Biso   1.000  O
  O131     1.0000 0.30467  0.53793  0.01064  Biso   1.000  O
  O132     1.0000 0.51535  0.20202  0.48323  Biso   1.000  O
  O133     1.0000 0.96414  0.48825  0.31968  Biso   1.000  O
  O134     1.0000 0.30921  0.95705  0.52681  Biso   1.000  O
  O135     1.0000 0.50918  0.29757  0.98316  Biso   1.000  O
  O136     1.0000 0.46012  0.49382  0.22689  Biso   1.000  O
  O137     1.0000 0.81086  0.96894  0.01432  Biso   1.000  O
  O138     1.0000 0.01856  0.30295  0.58111  Biso   1.000  O
  O139     1.0000 0.54916  0.99749  0.31227  Biso   1.000  O
  O140     1.0000 0.22096  0.46475  0.51427  Biso   1.000  O
  O141     1.0000 0.00758  0.80009  0.96908  Biso   1.000  O
  O142     1.0000 0.04366  0.99804  0.22794  Biso   1.000  O
  O143     1.0000 0.71897  0.46673  0.03061  Biso   1.000  O
  O144     1.0000 0.50423  0.79655  0.56271  Biso   1.000  O
  O145     1.0000 0.54293  0.50252  0.23331  Biso   1.000  O
  O146     1.0000 0.20929  0.54637  0.52678  Biso   1.000  O
  O147     1.0000 0.52384  0.20784  0.56771  Biso   1.000  O
  O148     1.0000 0.04933  0.48705  0.31955  Biso   1.000  O
  O149     1.0000 0.71678  0.55327  0.02851  Biso   1.000  O
  O150     1.0000 0.01389  0.21317  0.98724  Biso   1.000  O
  O151     1.0000 0.96196  0.98713  0.22028  Biso   1.000  O
  O152     1.0000 0.31007  0.04213  0.52689  Biso   1.000  O
  O153     1.0000 0.00328  0.71143  0.54933  Biso   1.000  O
  O154     1.0000 0.46713  0.99959  0.31871  Biso   1.000  O
  O155     1.0000 0.81126  0.05262  0.00391  Biso   1.000  O
  O156     1.0000 0.49877  0.70000  0.98028  Biso   1.000  O
  O157     1.0000 0.46752  0.50104  0.81810  Biso   1.000  O
  O158     1.0000 0.80981  0.45833  0.52524  Biso   1.000  O
  O159     1.0000 0.51567  0.78774  0.48362  Biso   1.000  O
  O160     1.0000 0.97297  0.52588  0.73161  Biso   1.000  O
  O161     1.0000 0.30206  0.45354  0.03573  Biso   1.000  O
  O162     1.0000 0.99994  0.79463  0.05117  Biso   1.000  O
  O163     1.0000 0.06574  0.01303  0.81851  Biso   1.000  O
  O164     1.0000 0.71596  0.95583  0.50522  Biso   1.000  O
  O165     1.0000 0.02316  0.29208  0.49822  Biso   1.000  O
  O166     1.0000 0.56527  0.00092  0.72316  Biso   1.000  O
  O167     1.0000 0.21832  0.94919  0.03441  Biso   1.000  O
  O168     1.0000 0.51988  0.29719  0.06499  Biso   1.000  O
  O169     1.0000 0.99286  0.03257  0.22809  Biso   1.000  O
  O170     1.0000 0.21397  0.99789  0.07365  Biso   1.000  O
  O171     1.0000 0.05686  0.20762  0.02801  Biso   1.000  O
  O172     1.0000 0.50752  0.03754  0.31825  Biso   1.000  O
  O173     1.0000 0.72004  0.00526  0.47266  Biso   1.000  O
  O174     1.0000 0.56264  0.20603  0.52415  Biso   1.000  O
  O175     1.0000 0.49837  0.53988  0.22833  Biso   1.000  O
  O176     1.0000 0.30384  0.50316  0.06278  Biso   1.000  O
  O177     1.0000 0.46133  0.70141  0.02656  Biso   1.000  O
  O178     1.0000 0.00670  0.52688  0.31405  Biso   1.000  O
  O179     1.0000 0.80689  0.50953  0.48865  Biso   1.000  O
  O180     1.0000 0.96101  0.70638  0.50864  Biso   1.000  O
  O181     1.0000 0.02380  0.97193  0.81198  Biso   1.000  O
  O182     1.0000 0.81192  0.01181  0.97065  Biso   1.000  O
  O183     1.0000 0.96514  0.79739  0.00983  Biso   1.000  O
  O184     1.0000 0.52369  0.95908  0.71899  Biso   1.000  O
  O185     1.0000 0.31065  0.99768  0.57126  Biso   1.000  O
  O186     1.0000 0.46643  0.79050  0.51382  Biso   1.000  O
  O187     1.0000 0.51366  0.46056  0.82074  Biso   1.000  O
  O188     1.0000 0.71464  0.50777  0.98787  Biso   1.000  O
  O189     1.0000 0.55554  0.29966  0.02298  Biso   1.000  O
  O190     1.0000 0.00637  0.47825  0.72903  Biso   1.000  O
  O191     1.0000 0.22059  0.49854  0.56344  Biso   1.000  O
  O192     1.0000 0.05923  0.29638  0.53860  Biso   1.000  O
