data_image0
_cell_length_a       46.7674
_cell_length_b       47.5201
_cell_length_c       46.5382
_cell_angle_alpha    90
_cell_angle_beta     90
_cell_angle_gamma    90

_symmetry_space_group_name_H-M    "P 1"
_symmetry_int_tables_number       1

loop_
  _symmetry_equiv_pos_as_xyz
  'x, y, z'

loop_
  _atom_site_label
  _atom_site_occupancy
  _atom_site_fract_x
  _atom_site_fract_y
  _atom_site_fract_z
  _atom_site_thermal_displace_type
  _atom_site_B_iso_or_equiv
  _atom_site_type_symbol
  C1       1.0000 0.55737  0.01034  0.30772  Biso   1.000  C
  C2       1.0000 0.32932  0.56795  0.98227  Biso   1.000  C
  C3       1.0000 0.01849  0.33075  0.54668  Biso   1.000  C
  C4       1.0000 0.05956  0.00407  0.17454  Biso   1.000  C
  C5       1.0000 0.82335  0.56676  0.51039  Biso   1.000  C
  C6       1.0000 0.52400  0.33512  0.94139  Biso   1.000  C
  C7       1.0000 0.94836  0.50313  0.31419  Biso   1.000  C
  C8       1.0000 0.18918  0.06643  0.98792  Biso   1.000  C
  C9       1.0000 0.49977  0.83164  0.54420  Biso   1.000  C
  C10      1.0000 0.44754  0.50859  0.16848  Biso   1.000  C
  C11      1.0000 0.69052  0.06410  0.48288  Biso   1.000  C
  C12      1.0000 0.01490  0.83436  0.93528  Biso   1.000  C
  C13      1.0000 0.46656  0.01016  0.68016  Biso   1.000  C
  C14      1.0000 0.70024  0.45818  0.99945  Biso   1.000  C
  C15      1.0000 0.00124  0.68698  0.44061  Biso   1.000  C
  C16      1.0000 0.96565  0.01105  0.80526  Biso   1.000  C
  C17      1.0000 0.19487  0.45303  0.47199  Biso   1.000  C
  C18      1.0000 0.51510  0.69085  0.03925  Biso   1.000  C
  C19      1.0000 0.08108  0.50009  0.67244  Biso   1.000  C
  C20      1.0000 0.83414  0.95889  0.97706  Biso   1.000  C
  C21      1.0000 0.50941  0.18783  0.44216  Biso   1.000  C
  C22      1.0000 0.58104  0.50720  0.81576  Biso   1.000  C
  C23      1.0000 0.33333  0.95559  0.49970  Biso   1.000  C
  C24      1.0000 0.99932  0.19036  0.04209  Biso   1.000  C
  C25      1.0000 0.33010  0.06401  0.50000  Biso   1.000  C
  C26      1.0000 0.51622  0.33215  0.04873  Biso   1.000  C
  C27      1.0000 0.05624  0.50005  0.30569  Biso   1.000  C
  C28      1.0000 0.83746  0.06797  0.98555  Biso   1.000  C
  C29      1.0000 0.00806  0.32550  0.43740  Biso   1.000  C
  C30      1.0000 0.55569  0.50108  0.17477  Biso   1.000  C
  C31      1.0000 0.19356  0.56132  0.48276  Biso   1.000  C
  C32      1.0000 0.01340  0.82565  0.04489  Biso   1.000  C
  C33      1.0000 0.45138  0.99660  0.31600  Biso   1.000  C
  C34      1.0000 0.69261  0.56850  0.00264  Biso   1.000  C
  C35      1.0000 0.51319  0.82178  0.43499  Biso   1.000  C
  C36      1.0000 0.94957  0.99928  0.16598  Biso   1.000  C
  C37      1.0000 0.68864  0.95615  0.47817  Biso   1.000  C
  C38      1.0000 0.50840  0.68964  0.93275  Biso   1.000  C
  C39      1.0000 0.97317  0.52173  0.67654  Biso   1.000  C
  C40      1.0000 0.19688  0.95681  0.00008  Biso   1.000  C
  C41      1.0000 0.02151  0.68941  0.54883  Biso   1.000  C
  C42      1.0000 0.47082  0.51915  0.80713  Biso   1.000  C
  C43      1.0000 0.83406  0.46034  0.49227  Biso   1.000  C
  C44      1.0000 0.02786  0.19270  0.93871  Biso   1.000  C
  C45      1.0000 0.57498  0.00782  0.67794  Biso   1.000  C
  C46      1.0000 0.33832  0.46139  0.98412  Biso   1.000  C
  C47      1.0000 0.51363  0.18876  0.55259  Biso   1.000  C
  C48      1.0000 0.07075  0.02509  0.81360  Biso   1.000  C
  C49      1.0000 0.00870  0.07179  0.80995  Biso   1.000  C
  C50      1.0000 0.83151  0.00770  0.03392  Biso   1.000  C
  C51      1.0000 0.06801  0.83340  0.98835  Biso   1.000  C
  C52      1.0000 0.51902  0.06550  0.68073  Biso   1.000  C
  C53      1.0000 0.33069  0.01214  0.44669  Biso   1.000  C
  C54      1.0000 0.56266  0.82970  0.49880  Biso   1.000  C
  C55      1.0000 0.53510  0.56325  0.81158  Biso   1.000  C
  C56      1.0000 0.69267  0.51251  0.05633  Biso   1.000  C
  C57      1.0000 0.46484  0.33523  0.99005  Biso   1.000  C
  C58      1.0000 0.03583  0.56574  0.67629  Biso   1.000  C
  C59      1.0000 0.19066  0.51313  0.42602  Biso   1.000  C
  C60      1.0000 0.95778  0.33183  0.49704  Biso   1.000  C
  C61      1.0000 0.00556  0.95005  0.17557  Biso   1.000  C
  C62      1.0000 0.19762  0.00839  0.94038  Biso   1.000  C
  C63      1.0000 0.96354  0.19189  0.97505  Biso   1.000  C
  C64      1.0000 0.51145  0.94813  0.30831  Biso   1.000  C
  C65      1.0000 0.68903  0.01014  0.53797  Biso   1.000  C
  C66      1.0000 0.45768  0.19395  0.49567  Biso   1.000  C
  C67      1.0000 0.49642  0.45263  0.17283  Biso   1.000  C
  C68      1.0000 0.33724  0.51128  0.92805  Biso   1.000  C
  C69      1.0000 0.56429  0.69053  0.98778  Biso   1.000  C
  C70      1.0000 0.99787  0.44866  0.30637  Biso   1.000  C
  C71      1.0000 0.83746  0.50411  0.55771  Biso   1.000  C
  C72      1.0000 0.06069  0.68412  0.48801  Biso   1.000  C
  C73      1.0000 0.00849  0.55780  0.31388  Biso   1.000  C
  C74      1.0000 0.33674  0.00947  0.55654  Biso   1.000  C
  C75      1.0000 0.57364  0.33224  0.99563  Biso   1.000  C
  C76      1.0000 0.51116  0.55789  0.16853  Biso   1.000  C
  C77      1.0000 0.83554  0.02384  0.92772  Biso   1.000  C
  C78      1.0000 0.06550  0.33201  0.48889  Biso   1.000  C
  C79      1.0000 0.49891  0.05682  0.31686  Biso   1.000  C
  C80      1.0000 0.19359  0.50221  0.53360  Biso   1.000  C
  C81      1.0000 0.95767  0.82864  0.99221  Biso   1.000  C
  C82      1.0000 0.00244  0.05841  0.16954  Biso   1.000  C
  C83      1.0000 0.69992  0.51577  0.94948  Biso   1.000  C
  C84      1.0000 0.45366  0.83198  0.48360  Biso   1.000  C
  C85      1.0000 0.01958  0.45857  0.67117  Biso   1.000  C
  C86      1.0000 0.68801  0.01408  0.42840  Biso   1.000  C
  C87      1.0000 0.45550  0.69261  0.98709  Biso   1.000  C
  C88      1.0000 0.51772  0.45786  0.81124  Biso   1.000  C
  C89      1.0000 0.18919  0.01887  0.04771  Biso   1.000  C
  C90      1.0000 0.95336  0.68867  0.50607  Biso   1.000  C
  C91      1.0000 0.51612  0.95599  0.67698  Biso   1.000  C
  C92      1.0000 0.82820  0.52335  0.44844  Biso   1.000  C
  C93      1.0000 0.06564  0.19192  0.00418  Biso   1.000  C
  C94      1.0000 0.03065  0.96467  0.80791  Biso   1.000  C
  C95      1.0000 0.32317  0.51546  0.03565  Biso   1.000  C
  C96      1.0000 0.56514  0.18502  0.49987  Biso   1.000  C
  C97      1.0000 0.69170  0.09573  0.48746  Biso   1.000  C
  C98      1.0000 0.51872  0.69187  0.07138  Biso   1.000  C
  C99      1.0000 0.11205  0.49135  0.67092  Biso   1.000  C
  C100     1.0000 0.18921  0.09995  0.98669  Biso   1.000  C
  C101     1.0000 0.00045  0.68508  0.40815  Biso   1.000  C
  C102     1.0000 0.61394  0.51068  0.81625  Biso   1.000  C
  C103     1.0000 0.82163  0.59927  0.51088  Biso   1.000  C
  C104     1.0000 0.99645  0.18938  0.07479  Biso   1.000  C
  C105     1.0000 0.43551  0.01613  0.68137  Biso   1.000  C
  C106     1.0000 0.32745  0.59851  0.99042  Biso   1.000  C
  C107     1.0000 0.51341  0.18591  0.41104  Biso   1.000  C
  C108     1.0000 0.93401  0.01732  0.80283  Biso   1.000  C
  C109     1.0000 0.33034  0.92455  0.49235  Biso   1.000  C
  C110     1.0000 0.52274  0.33200  0.90908  Biso   1.000  C
  C111     1.0000 0.91635  0.50337  0.31754  Biso   1.000  C
  C112     1.0000 0.83269  0.92772  0.98116  Biso   1.000  C
  C113     1.0000 0.02388  0.32978  0.57798  Biso   1.000  C
  C114     1.0000 0.41573  0.50454  0.16467  Biso   1.000  C
  C115     1.0000 0.19449  0.42225  0.46801  Biso   1.000  C
  C116     1.0000 0.02103  0.83743  0.90417  Biso   1.000  C
  C117     1.0000 0.58874  0.01393  0.30434  Biso   1.000  C
  C118     1.0000 0.70192  0.42652  0.99695  Biso   1.000  C
  C119     1.0000 0.49821  0.83337  0.57642  Biso   1.000  C
  C120     1.0000 0.09226  0.00433  0.17302  Biso   1.000  C
  C121     1.0000 0.83104  0.00304  0.06499  Biso   1.000  C
  C122     1.0000 0.10046  0.83256  0.99255  Biso   1.000  C
  C123     1.0000 0.00557  0.10312  0.81222  Biso   1.000  C
  C124     1.0000 0.32955  0.01828  0.41469  Biso   1.000  C
  C125     1.0000 0.59374  0.83201  0.50779  Biso   1.000  C
  C126     1.0000 0.51871  0.09859  0.68109  Biso   1.000  C
  C127     1.0000 0.69106  0.51353  0.08798  Biso   1.000  C
  C128     1.0000 0.43357  0.33267  0.98590  Biso   1.000  C
  C129     1.0000 0.53614  0.59476  0.81042  Biso   1.000  C
  C130     1.0000 0.18930  0.51221  0.39303  Biso   1.000  C
  C131     1.0000 0.92640  0.33185  0.50229  Biso   1.000  C
  C132     1.0000 0.03688  0.59792  0.67833  Biso   1.000  C
  C133     1.0000 0.19818  0.01512  0.90794  Biso   1.000  C
  C134     1.0000 0.93211  0.19248  0.97077  Biso   1.000  C
  C135     1.0000 0.00625  0.91811  0.17376  Biso   1.000  C
  C136     1.0000 0.68985  0.01030  0.56902  Biso   1.000  C
  C137     1.0000 0.42621  0.19211  0.49202  Biso   1.000  C
  C138     1.0000 0.50990  0.91532  0.30764  Biso   1.000  C
  C139     1.0000 0.33782  0.50550  0.89690  Biso   1.000  C
  C140     1.0000 0.59544  0.69112  0.98752  Biso   1.000  C
  C141     1.0000 0.49617  0.42039  0.17437  Biso   1.000  C
  C142     1.0000 0.84099  0.50129  0.58900  Biso   1.000  C
  C143     1.0000 0.09375  0.68509  0.49132  Biso   1.000  C
  C144     1.0000 0.99419  0.41639  0.30664  Biso   1.000  C
  C145     1.0000 0.32350  0.51426  0.06795  Biso   1.000  C
  C146     1.0000 0.09761  0.33233  0.48794  Biso   1.000  C
  C147     1.0000 0.49751  0.08936  0.31653  Biso   1.000  C
  C148     1.0000 0.82613  0.51965  0.41728  Biso   1.000  C
  C149     1.0000 0.60570  0.33140  0.99222  Biso   1.000  C
  C150     1.0000 0.99329  0.08906  0.16908  Biso   1.000  C
  C151     1.0000 0.18917  0.01829  0.08228  Biso   1.000  C
  C152     1.0000 0.42207  0.83110  0.47800  Biso   1.000  C
  C153     1.0000 0.00967  0.58994  0.31354  Biso   1.000  C
  C154     1.0000 0.68727  0.01334  0.39524  Biso   1.000  C
  C155     1.0000 0.92547  0.83011  0.99498  Biso   1.000  C
  C156     1.0000 0.51593  0.58973  0.16576  Biso   1.000  C
  C157     1.0000 0.70413  0.51291  0.91784  Biso   1.000  C
  C158     1.0000 0.91998  0.69131  0.50833  Biso   1.000  C
  C159     1.0000 0.50652  0.92543  0.67594  Biso   1.000  C
  C160     1.0000 0.19771  0.49973  0.56545  Biso   1.000  C
  C161     1.0000 0.42423  0.69105  0.98610  Biso   1.000  C
  C162     1.0000 0.03273  0.93236  0.80622  Biso   1.000  C
  C163     1.0000 0.83730  0.02920  0.89522  Biso   1.000  C
  C164     1.0000 0.59711  0.18689  0.50559  Biso   1.000  C
  C165     1.0000 0.02212  0.42763  0.67181  Biso   1.000  C
  C166     1.0000 0.33997  0.01501  0.58787  Biso   1.000  C
  C167     1.0000 0.09737  0.19401  0.00197  Biso   1.000  C
  C168     1.0000 0.51961  0.42565  0.81071  Biso   1.000  C
  C169     1.0000 0.01028  0.82604  0.07689  Biso   1.000  C
  C170     1.0000 0.10280  0.02047  0.81369  Biso   1.000  C
  C171     1.0000 0.83620  0.09871  0.98827  Biso   1.000  C
  C172     1.0000 0.51429  0.81938  0.40256  Biso   1.000  C
  C173     1.0000 0.60586  0.00325  0.67394  Biso   1.000  C
  C174     1.0000 0.33203  0.09483  0.49887  Biso   1.000  C
  C175     1.0000 0.51508  0.33018  0.08092  Biso   1.000  C
  C176     1.0000 0.43851  0.51906  0.80714  Biso   1.000  C
  C177     1.0000 0.69174  0.59983  0.99699  Biso   1.000  C
  C178     1.0000 0.00753  0.32583  0.40479  Biso   1.000  C
  C179     1.0000 0.94127  0.52354  0.67703  Biso   1.000  C
  C180     1.0000 0.19464  0.59426  0.48350  Biso   1.000  C
  C181     1.0000 0.02435  0.19455  0.90693  Biso   1.000  C
  C182     1.0000 0.91697  0.99550  0.16572  Biso   1.000  C
  C183     1.0000 0.19655  0.92554  0.99848  Biso   1.000  C
  C184     1.0000 0.51185  0.18880  0.58396  Biso   1.000  C
  C185     1.0000 0.42028  0.00022  0.31581  Biso   1.000  C
  C186     1.0000 0.68878  0.92301  0.48297  Biso   1.000  C
  C187     1.0000 0.50898  0.68967  0.90139  Biso   1.000  C
  C188     1.0000 0.58773  0.49843  0.17538  Biso   1.000  C
  C189     1.0000 0.33791  0.42742  0.98400  Biso   1.000  C
  C190     1.0000 0.02927  0.69049  0.58040  Biso   1.000  C
  C191     1.0000 0.08905  0.50447  0.30325  Biso   1.000  C
  C192     1.0000 0.83364  0.42797  0.48981  Biso   1.000  C
  C193     1.0000 0.86470  0.02594  0.87948  Biso   1.000  C
  C194     1.0000 0.91149  0.85732  0.98824  Biso   1.000  C
  C195     1.0000 0.02773  0.91532  0.83292  Biso   1.000  C
  C196     1.0000 0.36613  0.01389  0.60413  Biso   1.000  C
  C197     1.0000 0.40597  0.85772  0.48173  Biso   1.000  C
  C198     1.0000 0.50578  0.91079  0.64712  Biso   1.000  C
  C199     1.0000 0.67754  0.51080  0.90093  Biso   1.000  C
  C200     1.0000 0.62252  0.35847  0.99414  Biso   1.000  C
  C201     1.0000 0.51904  0.40865  0.83851  Biso   1.000  C
  C202     1.0000 0.17379  0.49358  0.58443  Biso   1.000  C
  C203     1.0000 0.11447  0.35877  0.48139  Biso   1.000  C
  C204     1.0000 0.02404  0.41136  0.64433  Biso   1.000  C
  C205     1.0000 0.16284  0.01514  0.09871  Biso   1.000  C
  C206     1.0000 0.11230  0.16690  0.00063  Biso   1.000  C
  C207     1.0000 0.99517  0.10685  0.14235  Biso   1.000  C
  C208     1.0000 0.65931  0.01403  0.37970  Biso   1.000  C
  C209     1.0000 0.61350  0.16060  0.50441  Biso   1.000  C
  C210     1.0000 0.49934  0.10435  0.34254  Biso   1.000  C
  C211     1.0000 0.35072  0.50873  0.08170  Biso   1.000  C
  C212     1.0000 0.40745  0.66264  0.99059  Biso   1.000  C
  C213     1.0000 0.51465  0.60749  0.13877  Biso   1.000  C
  C214     1.0000 0.85209  0.51561  0.39912  Biso   1.000  C
  C215     1.0000 0.90278  0.66482  0.51043  Biso   1.000  C
  C216     1.0000 0.01208  0.60521  0.34087  Biso   1.000  C
  C217     1.0000 0.11917  0.01725  0.84176  Biso   1.000  C
  C218     1.0000 0.86359  0.11527  0.98725  Biso   1.000  C
  C219     1.0000 0.01059  0.85282  0.09405  Biso   1.000  C
  C220     1.0000 0.61883  0.00119  0.64550  Biso   1.000  C
  C221     1.0000 0.36022  0.11227  0.49754  Biso   1.000  C
  C222     1.0000 0.51066  0.84642  0.38682  Biso   1.000  C
  C223     1.0000 0.41977  0.51707  0.83399  Biso   1.000  C
  C224     1.0000 0.66481  0.61546  0.99682  Biso   1.000  C
  C225     1.0000 0.50950  0.35646  0.09784  Biso   1.000  C
  C226     1.0000 0.92349  0.51948  0.65080  Biso   1.000  C
  C227     1.0000 0.16626  0.60940  0.48418  Biso   1.000  C
  C228     1.0000 0.00587  0.35146  0.38720  Biso   1.000  C
  C229     1.0000 0.90365  0.99650  0.13720  Biso   1.000  C
  C230     1.0000 0.16961  0.91055  0.99719  Biso   1.000  C
  C231     1.0000 0.01732  0.16828  0.89180  Biso   1.000  C
  C232     1.0000 0.40596  0.00477  0.34380  Biso   1.000  C
  C233     1.0000 0.66221  0.90834  0.49166  Biso   1.000  C
  C234     1.0000 0.51291  0.16280  0.60170  Biso   1.000  C
  C235     1.0000 0.60742  0.50141  0.14984  Biso   1.000  C
  C236     1.0000 0.36617  0.41095  0.98508  Biso   1.000  C
  C237     1.0000 0.51356  0.66214  0.88694  Biso   1.000  C
  C238     1.0000 0.10614  0.50474  0.32974  Biso   1.000  C
  C239     1.0000 0.85894  0.41073  0.49545  Biso   1.000  C
  C240     1.0000 0.03191  0.66334  0.59788  Biso   1.000  C
  C241     1.0000 0.62753  0.51134  0.84475  Biso   1.000  C
  C242     1.0000 0.84879  0.61506  0.51104  Biso   1.000  C
  C243     1.0000 0.50049  0.86021  0.59260  Biso   1.000  C
  C244     1.0000 0.12636  0.49151  0.64120  Biso   1.000  C
  C245     1.0000 0.35554  0.61378  0.99248  Biso   1.000  C
  C246     1.0000 0.02595  0.86368  0.88825  Biso   1.000  C
  C247     1.0000 0.91604  0.01921  0.82948  Biso   1.000  C
  C248     1.0000 0.66474  0.11028  0.49471  Biso   1.000  C
  C249     1.0000 0.02419  0.35703  0.59313  Biso   1.000  C
  C250     1.0000 0.41863  0.01703  0.65485  Biso   1.000  C
  C251     1.0000 0.16316  0.11707  0.98890  Biso   1.000  C
  C252     1.0000 0.52114  0.35913  0.89324  Biso   1.000  C
  C253     1.0000 0.40133  0.50505  0.13698  Biso   1.000  C
  C254     1.0000 0.16717  0.40716  0.46934  Biso   1.000  C
  C255     1.0000 0.50909  0.15925  0.39550  Biso   1.000  C
  C256     1.0000 0.90121  0.50582  0.34551  Biso   1.000  C
  C257     1.0000 0.67482  0.40898  0.99804  Biso   1.000  C
  C258     1.0000 0.99522  0.16186  0.09102  Biso   1.000  C
  C259     1.0000 0.11066  0.00652  0.14610  Biso   1.000  C
  C260     1.0000 0.35566  0.90698  0.48849  Biso   1.000  C
  C261     1.0000 0.00622  0.65692  0.39260  Biso   1.000  C
  C262     1.0000 0.60672  0.01764  0.33014  Biso   1.000  C
  C263     1.0000 0.86021  0.91147  0.98053  Biso   1.000  C
  C264     1.0000 0.52146  0.66368  0.08750  Biso   1.000  C
  C265     1.0000 0.00748  0.11821  0.83996  Biso   1.000  C
  C266     1.0000 0.85732  0.00412  0.08260  Biso   1.000  C
  C267     1.0000 0.11644  0.86024  0.99611  Biso   1.000  C
  C268     1.0000 0.51869  0.11547  0.65385  Biso   1.000  C
  C269     1.0000 0.35584  0.01244  0.39903  Biso   1.000  C
  C270     1.0000 0.60987  0.85949  0.50195  Biso   1.000  C
  C271     1.0000 0.53234  0.61085  0.83672  Biso   1.000  C
  C272     1.0000 0.66263  0.50973  0.10243  Biso   1.000  C
  C273     1.0000 0.41660  0.35811  0.98777  Biso   1.000  C
  C274     1.0000 0.04041  0.61346  0.65077  Biso   1.000  C
  C275     1.0000 0.16026  0.50821  0.37910  Biso   1.000  C
  C276     1.0000 0.91055  0.35857  0.50092  Biso   1.000  C
  C277     1.0000 0.00536  0.90212  0.14688  Biso   1.000  C
  C278     1.0000 0.17132  0.01449  0.89137  Biso   1.000  C
  C279     1.0000 0.91469  0.16647  0.97655  Biso   1.000  C
  C280     1.0000 0.51036  0.89643  0.33449  Biso   1.000  C
  C281     1.0000 0.66392  0.00561  0.58766  Biso   1.000  C
  C282     1.0000 0.41042  0.16340  0.49511  Biso   1.000  C
  C283     1.0000 0.49850  0.40453  0.14747  Biso   1.000  C
  C284     1.0000 0.36644  0.50742  0.88151  Biso   1.000  C
  C285     1.0000 0.61265  0.66510  0.99204  Biso   1.000  C
  C286     1.0000 0.99659  0.40168  0.33376  Biso   1.000  C
  C287     1.0000 0.86938  0.50732  0.60244  Biso   1.000  C
  C288     1.0000 0.11164  0.65808  0.49018  Biso   1.000  C
  C289     1.0000 0.35418  0.87706  0.48574  Biso   1.000  C
  C290     1.0000 0.52130  0.35572  0.86213  Biso   1.000  C
  C291     1.0000 0.86933  0.50555  0.34505  Biso   1.000  C
  C292     1.0000 0.85873  0.87963  0.98569  Biso   1.000  C
  C293     1.0000 0.02706  0.35768  0.62464  Biso   1.000  C
  C294     1.0000 0.37001  0.50469  0.13471  Biso   1.000  C
  C295     1.0000 0.16784  0.37680  0.47785  Biso   1.000  C
  C296     1.0000 0.02665  0.86265  0.85618  Biso   1.000  C
  C297     1.0000 0.63749  0.01405  0.32749  Biso   1.000  C
  C298     1.0000 0.67595  0.37800  0.99437  Biso   1.000  C
  C299     1.0000 0.49547  0.86050  0.62417  Biso   1.000  C
  C300     1.0000 0.14156  0.00992  0.15073  Biso   1.000  C
  C301     1.0000 0.66553  0.14187  0.49533  Biso   1.000  C
  C302     1.0000 0.51952  0.66232  0.11832  Biso   1.000  C
  C303     1.0000 0.15713  0.49308  0.63902  Biso   1.000  C
  C304     1.0000 0.16529  0.14818  0.99146  Biso   1.000  C
  C305     1.0000 0.00684  0.65802  0.36149  Biso   1.000  C
  C306     1.0000 0.65981  0.51474  0.84706  Biso   1.000  C
  C307     1.0000 0.84751  0.64604  0.51181  Biso   1.000  C
  C308     1.0000 0.99218  0.15953  0.12209  Biso   1.000  C
  C309     1.0000 0.38757  0.02073  0.65661  Biso   1.000  C
  C310     1.0000 0.35418  0.64560  0.99499  Biso   1.000  C
  C311     1.0000 0.50742  0.15784  0.36352  Biso   1.000  C
  C312     1.0000 0.88570  0.02202  0.82749  Biso   1.000  C
  C313     1.0000 0.15956  0.50938  0.34744  Biso   1.000  C
  C314     1.0000 0.37913  0.16498  0.49584  Biso   1.000  C
  C315     1.0000 0.49943  0.37193  0.14987  Biso   1.000  C
  C316     1.0000 0.66102  0.50735  0.13418  Biso   1.000  C
  C317     1.0000 0.88411  0.16816  0.97898  Biso   1.000  C
  C318     1.0000 0.99992  0.37054  0.33233  Biso   1.000  C
  C319     1.0000 0.35406  0.01401  0.36712  Biso   1.000  C
  C320     1.0000 0.14367  0.66001  0.48974  Biso   1.000  C
  C321     1.0000 0.00917  0.87145  0.14784  Biso   1.000  C
  C322     1.0000 0.85372  0.99890  0.11399  Biso   1.000  C
  C323     1.0000 0.64387  0.66737  0.99488  Biso   1.000  C
  C324     1.0000 0.51145  0.86609  0.33121  Biso   1.000  C
  C325     1.0000 0.86967  0.50667  0.63385  Biso   1.000  C
  C326     1.0000 0.64080  0.85818  0.50535  Biso   1.000  C
  C327     1.0000 0.52506  0.64211  0.83479  Biso   1.000  C
  C328     1.0000 0.36664  0.51163  0.85068  Biso   1.000  C
  C329     1.0000 0.14757  0.85913  0.99708  Biso   1.000  C
  C330     1.0000 0.03724  0.64408  0.65064  Biso   1.000  C
  C331     1.0000 0.66909  0.00450  0.61857  Biso   1.000  C
  C332     1.0000 0.87928  0.35852  0.49547  Biso   1.000  C
  C333     1.0000 0.01096  0.14951  0.83973  Biso   1.000  C
  C334     1.0000 0.17257  0.01956  0.86007  Biso   1.000  C
  C335     1.0000 0.38555  0.35770  0.98260  Biso   1.000  C
  C336     1.0000 0.51384  0.14594  0.65461  Biso   1.000  C
  C337     1.0000 0.68066  0.51585  0.86965  Biso   1.000  C
  C338     1.0000 0.87135  0.66627  0.51061  Biso   1.000  C
  C339     1.0000 0.49744  0.88036  0.64728  Biso   1.000  C
  C340     1.0000 0.17795  0.49455  0.61585  Biso   1.000  C
  C341     1.0000 0.37673  0.66603  0.99234  Biso   1.000  C
  C342     1.0000 0.02827  0.88389  0.83300  Biso   1.000  C
  C343     1.0000 0.86325  0.02541  0.84779  Biso   1.000  C
  C344     1.0000 0.64414  0.16261  0.49947  Biso   1.000  C
  C345     1.0000 0.02782  0.37965  0.64584  Biso   1.000  C
  C346     1.0000 0.36534  0.01847  0.63490  Biso   1.000  C
  C347     1.0000 0.14336  0.16914  0.99513  Biso   1.000  C
  C348     1.0000 0.52118  0.37761  0.83912  Biso   1.000  C
  C349     1.0000 0.34835  0.50689  0.11266  Biso   1.000  C
  C350     1.0000 0.14661  0.35637  0.48378  Biso   1.000  C
  C351     1.0000 0.50296  0.13604  0.34235  Biso   1.000  C
  C352     1.0000 0.84845  0.50928  0.36807  Biso   1.000  C
  C353     1.0000 0.65414  0.35633  0.99191  Biso   1.000  C
  C354     1.0000 0.99063  0.13791  0.14368  Biso   1.000  C
  C355     1.0000 0.16406  0.01455  0.12996  Biso   1.000  C
  C356     1.0000 0.37394  0.85563  0.48230  Biso   1.000  C
  C357     1.0000 0.00812  0.63549  0.33913  Biso   1.000  C
  C358     1.0000 0.66076  0.01194  0.34844  Biso   1.000  C
  C359     1.0000 0.88004  0.85787  0.99076  Biso   1.000  C
  C360     1.0000 0.51708  0.63916  0.13817  Biso   1.000  C
  C361     1.0000 0.01523  0.16997  0.86112  Biso   1.000  C
  C362     1.0000 0.87261  0.99624  0.13708  Biso   1.000  C
  C363     1.0000 0.16970  0.87950  0.99723  Biso   1.000  C
  C364     1.0000 0.51273  0.16633  0.63324  Biso   1.000  C
  C365     1.0000 0.37493  0.01058  0.34511  Biso   1.000  C
  C366     1.0000 0.66354  0.87837  0.50009  Biso   1.000  C
  C367     1.0000 0.51814  0.66305  0.85587  Biso   1.000  C
  C368     1.0000 0.63799  0.50609  0.15362  Biso   1.000  C
  C369     1.0000 0.36496  0.37999  0.98149  Biso   1.000  C
  C370     1.0000 0.03487  0.66452  0.62893  Biso   1.000  C
  C371     1.0000 0.13742  0.50868  0.32597  Biso   1.000  C
  C372     1.0000 0.85914  0.37999  0.49331  Biso   1.000  C
  C373     1.0000 0.01085  0.85093  0.12599  Biso   1.000  C
  C374     1.0000 0.15097  0.02131  0.83853  Biso   1.000  C
  C375     1.0000 0.86334  0.14696  0.98282  Biso   1.000  C
  C376     1.0000 0.51070  0.84611  0.35466  Biso   1.000  C
  C377     1.0000 0.65029  0.00189  0.64295  Biso   1.000  C
  C378     1.0000 0.35787  0.14308  0.49589  Biso   1.000  C
  C379     1.0000 0.50577  0.35141  0.12851  Biso   1.000  C
  C380     1.0000 0.38926  0.51669  0.83059  Biso   1.000  C
  C381     1.0000 0.66589  0.64697  0.99617  Biso   1.000  C
  C382     1.0000 0.00253  0.34948  0.35593  Biso   1.000  C
  C383     1.0000 0.89231  0.51288  0.65397  Biso   1.000  C
  C384     1.0000 0.16612  0.64031  0.48762  Biso   1.000  C
  C385     1.0000 0.19260  0.16247  0.99128  Biso   1.000  C
  C386     1.0000 0.98726  0.18576  0.13807  Biso   1.000  C
  C387     1.0000 0.15685  0.00909  0.17878  Biso   1.000  C
  C388     1.0000 0.69321  0.15792  0.49466  Biso   1.000  C
  C389     1.0000 0.51012  0.18444  0.34738  Biso   1.000  C
  C390     1.0000 0.65133  0.00978  0.29971  Biso   1.000  C
  C391     1.0000 0.32863  0.66212  0.99665  Biso   1.000  C
  C392     1.0000 0.51556  0.68827  0.13423  Biso   1.000  C
  C393     1.0000 0.35293  0.50155  0.16146  Biso   1.000  C
  C394     1.0000 0.82170  0.66114  0.51358  Biso   1.000  C
  C395     1.0000 0.99923  0.68384  0.34473  Biso   1.000  C
  C396     1.0000 0.85186  0.50282  0.32018  Biso   1.000  C
  C397     1.0000 0.83101  0.86471  0.98992  Biso   1.000  C
  C398     1.0000 0.02345  0.83703  0.83980  Biso   1.000  C
  C399     1.0000 0.87135  0.02330  0.80015  Biso   1.000  C
  C400     1.0000 0.32708  0.86262  0.48673  Biso   1.000  C
  C401     1.0000 0.48987  0.83398  0.63911  Biso   1.000  C
  C402     1.0000 0.37278  0.02504  0.68337  Biso   1.000  C
  C403     1.0000 0.70267  0.36139  0.99341  Biso   1.000  C
  C404     1.0000 0.52073  0.32825  0.84670  Biso   1.000  C
  C405     1.0000 0.67683  0.51873  0.82012  Biso   1.000  C
  C406     1.0000 0.19590  0.36143  0.48017  Biso   1.000  C
  C407     1.0000 0.02736  0.33075  0.64135  Biso   1.000  C
  C408     1.0000 0.17540  0.49656  0.66377  Biso   1.000  C
  C409     1.0000 0.16716  0.02692  0.81230  Biso   1.000  C
  C410     1.0000 0.83646  0.16303  0.98192  Biso   1.000  C
  C411     1.0000 0.01154  0.82373  0.14086  Biso   1.000  C
  C412     1.0000 0.66743  0.00263  0.66819  Biso   1.000  C
  C413     1.0000 0.33110  0.15814  0.49530  Biso   1.000  C
  C414     1.0000 0.51103  0.81865  0.33940  Biso   1.000  C
  C415     1.0000 0.37470  0.51719  0.80260  Biso   1.000  C
  C416     1.0000 0.69229  0.66209  0.99528  Biso   1.000  C
  C417     1.0000 0.50646  0.32488  0.14363  Biso   1.000  C
  C418     1.0000 0.87821  0.51275  0.68397  Biso   1.000  C
  C419     1.0000 0.19306  0.65694  0.48976  Biso   1.000  C
  C420     1.0000 0.00197  0.32171  0.34211  Biso   1.000  C
  C421     1.0000 0.85432  0.99442  0.16264  Biso   1.000  C
  C422     1.0000 0.19590  0.86342  0.99621  Biso   1.000  C
  C423     1.0000 0.01643  0.19729  0.84610  Biso   1.000  C
  C424     1.0000 0.35800  0.01384  0.31807  Biso   1.000  C
  C425     1.0000 0.69015  0.86122  0.50378  Biso   1.000  C
  C426     1.0000 0.50798  0.19281  0.64772  Biso   1.000  C
  C427     1.0000 0.65224  0.50326  0.18243  Biso   1.000  C
  C428     1.0000 0.33687  0.36506  0.97891  Biso   1.000  C
  C429     1.0000 0.51392  0.68895  0.83913  Biso   1.000  C
  C430     1.0000 0.15203  0.51213  0.29863  Biso   1.000  C
  C431     1.0000 0.83347  0.36520  0.48698  Biso   1.000  C
  C432     1.0000 0.03166  0.69207  0.64361  Biso   1.000  C
  C433     1.0000 0.01039  0.16632  0.81297  Biso   1.000  C
  C434     1.0000 0.82589  0.99721  0.12770  Biso   1.000  C
  C435     1.0000 0.16285  0.83174  0.99542  Biso   1.000  C
  C436     1.0000 0.51159  0.15971  0.68163  Biso   1.000  C
  C437     1.0000 0.32724  0.02063  0.35212  Biso   1.000  C
  C438     1.0000 0.65628  0.83143  0.51191  Biso   1.000  C
  C439     1.0000 0.52678  0.65818  0.80756  Biso   1.000  C
  C440     1.0000 0.68676  0.50964  0.15111  Biso   1.000  C
  C441     1.0000 0.36970  0.33076  0.97932  Biso   1.000  C
  C442     1.0000 0.03078  0.65976  0.67675  Biso   1.000  C
  C443     1.0000 0.18616  0.51383  0.33111  Biso   1.000  C
  C444     1.0000 0.86301  0.33103  0.49210  Biso   1.000  C
  C445     1.0000 0.00994  0.85562  0.17481  Biso   1.000  C
  C446     1.0000 0.19947  0.02372  0.84505  Biso   1.000  C
  C447     1.0000 0.86976  0.19491  0.97294  Biso   1.000  C
  C448     1.0000 0.50998  0.85238  0.30411  Biso   1.000  C
  C449     1.0000 0.69719  0.00753  0.63212  Biso   1.000  C
  C450     1.0000 0.36459  0.19169  0.49582  Biso   1.000  C
  C451     1.0000 0.49742  0.35585  0.17699  Biso   1.000  C
  C452     1.0000 0.34042  0.51145  0.83393  Biso   1.000  C
  C453     1.0000 0.65840  0.69372  0.99335  Biso   1.000  C
  C454     1.0000 0.99760  0.35369  0.30716  Biso   1.000  C
  C455     1.0000 0.84507  0.50364  0.65205  Biso   1.000  C
  C456     1.0000 0.15877  0.68756  0.49165  Biso   1.000  C
  C457     1.0000 0.00464  0.65159  0.31262  Biso   1.000  C
  C458     1.0000 0.33897  0.02298  0.65066  Biso   1.000  C
  C459     1.0000 0.66901  0.32952  0.99050  Biso   1.000  C
  C460     1.0000 0.51625  0.65320  0.16549  Biso   1.000  C
  C461     1.0000 0.83759  0.02896  0.83041  Biso   1.000  C
  C462     1.0000 0.16187  0.33077  0.49153  Biso   1.000  C
  C463     1.0000 0.50055  0.15198  0.31604  Biso   1.000  C
  C464     1.0000 0.20567  0.49857  0.62833  Biso   1.000  C
  C465     1.0000 0.86275  0.83270  0.99762  Biso   1.000  C
  C466     1.0000 0.98543  0.15171  0.16949  Biso   1.000  C
  C467     1.0000 0.70735  0.52148  0.85406  Biso   1.000  C
  C468     1.0000 0.35856  0.82965  0.47866  Biso   1.000  C
  C469     1.0000 0.02956  0.36462  0.67391  Biso   1.000  C
  C470     1.0000 0.68666  0.00694  0.33185  Biso   1.000  C
  C471     1.0000 0.36182  0.69342  0.99179  Biso   1.000  C
  C472     1.0000 0.52249  0.36202  0.81206  Biso   1.000  C
  C473     1.0000 0.19048  0.01637  0.14662  Biso   1.000  C
  C474     1.0000 0.85636  0.69302  0.51075  Biso   1.000  C
  C475     1.0000 0.49297  0.86277  0.67417  Biso   1.000  C
  C476     1.0000 0.81989  0.50731  0.35466  Biso   1.000  C
  C477     1.0000 0.15939  0.19502  0.99598  Biso   1.000  C
  C478     1.0000 0.02758  0.86776  0.80594  Biso   1.000  C
  C479     1.0000 0.32160  0.50689  0.12885  Biso   1.000  C
  C480     1.0000 0.65904  0.19002  0.49905  Biso   1.000  C
  C481     1.0000 0.37412  0.80249  0.47409  Biso   1.000  C
  C482     1.0000 0.52289  0.37799  0.78526  Biso   1.000  C
  C483     1.0000 0.79444  0.51033  0.37234  Biso   1.000  C
  C484     1.0000 0.87600  0.80355  0.99896  Biso   1.000  C
  C485     1.0000 0.02452  0.38065  0.69953  Biso   1.000  C
  C486     1.0000 0.29484  0.51474  0.11392  Biso   1.000  C
  C487     1.0000 0.14499  0.30619  0.49984  Biso   1.000  C
  C488     1.0000 0.03343  0.88435  0.77901  Biso   1.000  C
  C489     1.0000 0.71219  0.00506  0.34924  Biso   1.000  C
  C490     1.0000 0.65253  0.30287  0.99134  Biso   1.000  C
  C491     1.0000 0.49554  0.87635  0.70277  Biso   1.000  C
  C492     1.0000 0.21747  0.02352  0.13053  Biso   1.000  C
  C493     1.0000 0.64158  0.21711  0.50469  Biso   1.000  C
  C494     1.0000 0.51776  0.63709  0.19338  Biso   1.000  C
  C495     1.0000 0.23084  0.50231  0.60862  Biso   1.000  C
  C496     1.0000 0.14371  0.22264  0.99986  Biso   1.000  C
  C497     1.0000 0.01018  0.63686  0.28491  Biso   1.000  C
  C498     1.0000 0.73415  0.52221  0.87064  Biso   1.000  C
  C499     1.0000 0.87378  0.72032  0.50991  Biso   1.000  C
  C500     1.0000 0.98303  0.13335  0.19657  Biso   1.000  C
  C501     1.0000 0.31166  0.02165  0.63543  Biso   1.000  C
  C502     1.0000 0.37702  0.72017  0.98937  Biso   1.000  C
  C503     1.0000 0.49368  0.13776  0.29013  Biso   1.000  C
  C504     1.0000 0.80995  0.03185  0.84652  Biso   1.000  C
  C505     1.0000 0.66331  0.51883  0.79160  Biso   1.000  C
  C506     1.0000 0.79379  0.64594  0.51189  Biso   1.000  C
  C507     1.0000 0.48371  0.80771  0.62339  Biso   1.000  C
  C508     1.0000 0.16245  0.49614  0.69190  Biso   1.000  C
  C509     1.0000 0.30151  0.64537  0.99509  Biso   1.000  C
  C510     1.0000 0.01533  0.80997  0.85598  Biso   1.000  C
  C511     1.0000 0.88876  0.02115  0.77403  Biso   1.000  C
  C512     1.0000 0.71869  0.14410  0.48607  Biso   1.000  C
  C513     1.0000 0.02727  0.30420  0.62529  Biso   1.000  C
  C514     1.0000 0.39058  0.02686  0.70981  Biso   1.000  C
  C515     1.0000 0.21948  0.14675  0.98412  Biso   1.000  C
  C516     1.0000 0.52008  0.30236  0.86366  Biso   1.000  C
  C517     1.0000 0.36730  0.49861  0.18908  Biso   1.000  C
  C518     1.0000 0.22323  0.37600  0.47472  Biso   1.000  C
  C519     1.0000 0.51872  0.21097  0.36269  Biso   1.000  C
  C520     1.0000 0.86627  0.50063  0.29309  Biso   1.000  C
  C521     1.0000 0.72931  0.37874  0.99538  Biso   1.000  C
  C522     1.0000 0.98822  0.21452  0.12358  Biso   1.000  C
  C523     1.0000 0.13942  0.00709  0.20409  Biso   1.000  C
  C524     1.0000 0.29953  0.87840  0.49050  Biso   1.000  C
  C525     1.0000 0.98840  0.70873  0.36057  Biso   1.000  C
  C526     1.0000 0.63364  0.01067  0.27315  Biso   1.000  C
  C527     1.0000 0.80367  0.88159  0.98903  Biso   1.000  C
  C528     1.0000 0.51116  0.71584  0.12029  Biso   1.000  C
  C529     1.0000 0.80918  0.14714  0.98786  Biso   1.000  C
  C530     1.0000 0.01030  0.79692  0.12514  Biso   1.000  C
  C531     1.0000 0.15094  0.03443  0.78673  Biso   1.000  C
  C532     1.0000 0.30484  0.14180  0.49583  Biso   1.000  C
  C533     1.0000 0.51070  0.79208  0.35583  Biso   1.000  C
  C534     1.0000 0.65481  0.99965  0.69781  Biso   1.000  C
  C535     1.0000 0.71935  0.64675  0.99029  Biso   1.000  C
  C536     1.0000 0.51226  0.29855  0.12697  Biso   1.000  C
  C537     1.0000 0.39070  0.52040  0.77606  Biso   1.000  C
  C538     1.0000 0.22050  0.64072  0.48528  Biso   1.000  C
  C539     1.0000 0.00397  0.29537  0.35957  Biso   1.000  C
  C540     1.0000 0.89517  0.51673  0.71041  Biso   1.000  C
  C541     1.0000 0.22376  0.87857  0.99874  Biso   1.000  C
  C542     1.0000 0.02406  0.22324  0.86085  Biso   1.000  C
  C543     1.0000 0.87004  0.99080  0.19032  Biso   1.000  C
  C544     1.0000 0.71675  0.87838  0.49854  Biso   1.000  C
  C545     1.0000 0.50445  0.22020  0.63091  Biso   1.000  C
  C546     1.0000 0.37255  0.01217  0.28980  Biso   1.000  C
  C547     1.0000 0.31018  0.38066  0.98002  Biso   1.000  C
  C548     1.0000 0.50549  0.71631  0.85368  Biso   1.000  C
  C549     1.0000 0.63333  0.50121  0.20770  Biso   1.000  C
  C550     1.0000 0.80628  0.38155  0.48222  Biso   1.000  C
  C551     1.0000 0.03104  0.71842  0.62677  Biso   1.000  C
  C552     1.0000 0.13443  0.50903  0.27309  Biso   1.000  C
  C553     1.0000 0.00554  0.15112  0.78473  Biso   1.000  C
  C554     1.0000 0.79976  0.99901  0.11130  Biso   1.000  C
  C555     1.0000 0.14677  0.80401  0.99212  Biso   1.000  C
  C556     1.0000 0.51474  0.14433  0.70907  Biso   1.000  C
  C557     1.0000 0.30145  0.02760  0.36979  Biso   1.000  C
  C558     1.0000 0.63978  0.80403  0.51961  Biso   1.000  C
  C559     1.0000 0.53349  0.64194  0.78161  Biso   1.000  C
  C560     1.0000 0.71478  0.51637  0.13729  Biso   1.000  C
  C561     1.0000 0.38707  0.30491  0.97843  Biso   1.000  C
  C562     1.0000 0.02616  0.64506  0.70337  Biso   1.000  C
  C563     1.0000 0.21332  0.52174  0.34441  Biso   1.000  C
  C564     1.0000 0.87886  0.30486  0.49564  Biso   1.000  C
  C565     1.0000 0.01051  0.87042  0.20300  Biso   1.000  C
  C566     1.0000 0.22607  0.02308  0.86292  Biso   1.000  C
  C567     1.0000 0.88602  0.22071  0.96572  Biso   1.000  C
  C568     1.0000 0.50750  0.86875  0.27762  Biso   1.000  C
  C569     1.0000 0.72315  0.01272  0.61322  Biso   1.000  C
  C570     1.0000 0.38069  0.21824  0.49142  Biso   1.000  C
  C571     1.0000 0.49581  0.37307  0.20292  Biso   1.000  C
  C572     1.0000 0.31205  0.50779  0.84828  Biso   1.000  C
  C573     1.0000 0.64212  0.72055  0.98934  Biso   1.000  C
  C574     1.0000 0.99381  0.36907  0.27965  Biso   1.000  C
  C575     1.0000 0.81775  0.49441  0.63914  Biso   1.000  C
  C576     1.0000 0.14080  0.71470  0.49574  Biso   1.000  C
  C577     1.0000 0.29664  0.51846  0.08276  Biso   1.000  C
  C578     1.0000 0.11325  0.30713  0.49785  Biso   1.000  C
  C579     1.0000 0.49386  0.10504  0.28945  Biso   1.000  C
  C580     1.0000 0.79716  0.51733  0.40271  Biso   1.000  C
  C581     1.0000 0.62117  0.30438  0.98980  Biso   1.000  C
  C582     1.0000 0.98705  0.10217  0.19548  Biso   1.000  C
  C583     1.0000 0.21589  0.02493  0.09791  Biso   1.000  C
  C584     1.0000 0.40723  0.80312  0.47242  Biso   1.000  C
  C585     1.0000 0.01310  0.60529  0.28577  Biso   1.000  C
  C586     1.0000 0.71416  0.00853  0.37957  Biso   1.000  C
  C587     1.0000 0.90810  0.80397  0.99824  Biso   1.000  C
  C588     1.0000 0.51865  0.60578  0.19231  Biso   1.000  C
  C589     1.0000 0.73209  0.51919  0.90267  Biso   1.000  C
  C590     1.0000 0.90587  0.71902  0.50876  Biso   1.000  C
  C591     1.0000 0.49943  0.90971  0.70344  Biso   1.000  C
  C592     1.0000 0.22688  0.50374  0.57856  Biso   1.000  C
  C593     1.0000 0.40882  0.71863  0.98552  Biso   1.000  C
  C594     1.0000 0.03636  0.91654  0.77875  Biso   1.000  C
  C595     1.0000 0.81036  0.03210  0.87807  Biso   1.000  C
  C596     1.0000 0.61080  0.21498  0.50883  Biso   1.000  C
  C597     1.0000 0.02188  0.41124  0.69827  Biso   1.000  C
  C598     1.0000 0.31320  0.02026  0.60341  Biso   1.000  C
  C599     1.0000 0.11263  0.22246  0.00378  Biso   1.000  C
  C600     1.0000 0.52067  0.40902  0.78468  Biso   1.000  C
  C601     1.0000 0.22572  0.02133  0.89391  Biso   1.000  C
  C602     1.0000 0.91753  0.21949  0.96224  Biso   1.000  C
  C603     1.0000 0.00736  0.90141  0.20171  Biso   1.000  C
  C604     1.0000 0.71902  0.01357  0.58295  Biso   1.000  C
  C605     1.0000 0.41265  0.21957  0.48970  Biso   1.000  C
  C606     1.0000 0.50857  0.90059  0.27973  Biso   1.000  C
  C607     1.0000 0.30999  0.50424  0.87928  Biso   1.000  C
  C608     1.0000 0.61019  0.71888  0.98712  Biso   1.000  C
  C609     1.0000 0.49445  0.40442  0.20192  Biso   1.000  C
  C610     1.0000 0.81549  0.49264  0.60816  Biso   1.000  C
  C611     1.0000 0.10873  0.71330  0.49488  Biso   1.000  C
  C612     1.0000 0.99104  0.40003  0.28106  Biso   1.000  C
  C613     1.0000 0.80280  0.99980  0.07871  Biso   1.000  C
  C614     1.0000 0.11618  0.80515  0.99184  Biso   1.000  C
  C615     1.0000 0.00386  0.12034  0.78488  Biso   1.000  C
  C616     1.0000 0.30154  0.02636  0.40066  Biso   1.000  C
  C617     1.0000 0.60881  0.80563  0.51890  Biso   1.000  C
  C618     1.0000 0.51518  0.11275  0.70891  Biso   1.000  C
  C619     1.0000 0.71561  0.52003  0.10666  Biso   1.000  C
  C620     1.0000 0.41762  0.30587  0.98287  Biso   1.000  C
  C621     1.0000 0.53900  0.61110  0.78244  Biso   1.000  C
  C622     1.0000 0.21451  0.52072  0.37638  Biso   1.000  C
  C623     1.0000 0.90967  0.30494  0.50129  Biso   1.000  C
  C624     1.0000 0.03132  0.61423  0.70562  Biso   1.000  C
  C625     1.0000 0.02882  0.22122  0.89145  Biso   1.000  C
  C626     1.0000 0.90081  0.99299  0.19185  Biso   1.000  C
  C627     1.0000 0.22370  0.91016  0.00024  Biso   1.000  C
  C628     1.0000 0.50689  0.21745  0.59823  Biso   1.000  C
  C629     1.0000 0.40299  0.00538  0.28888  Biso   1.000  C
  C630     1.0000 0.71603  0.90702  0.48843  Biso   1.000  C
  C631     1.0000 0.50215  0.71633  0.88511  Biso   1.000  C
  C632     1.0000 0.60160  0.49838  0.20355  Biso   1.000  C
  C633     1.0000 0.31070  0.41193  0.98297  Biso   1.000  C
  C634     1.0000 0.03042  0.71784  0.59510  Biso   1.000  C
  C635     1.0000 0.10219  0.50679  0.27507  Biso   1.000  C
  C636     1.0000 0.80684  0.41252  0.48164  Biso   1.000  C
  C637     1.0000 0.00958  0.79967  0.09351  Biso   1.000  C
  C638     1.0000 0.11962  0.03016  0.78717  Biso   1.000  C
  C639     1.0000 0.80923  0.11629  0.98935  Biso   1.000  C
  C640     1.0000 0.51234  0.79279  0.38705  Biso   1.000  C
  C641     1.0000 0.62376  0.00042  0.69919  Biso   1.000  C
  C642     1.0000 0.30470  0.11073  0.49683  Biso   1.000  C
  C643     1.0000 0.51894  0.30180  0.09635  Biso   1.000  C
  C644     1.0000 0.42335  0.52001  0.77895  Biso   1.000  C
  C645     1.0000 0.71945  0.61530  0.99085  Biso   1.000  C
  C646     1.0000 0.00581  0.29819  0.38982  Biso   1.000  C
  C647     1.0000 0.92683  0.52244  0.70592  Biso   1.000  C
  C648     1.0000 0.22115  0.61023  0.48302  Biso   1.000  C
  C649     1.0000 0.98907  0.70892  0.39173  Biso   1.000  C
  C650     1.0000 0.42166  0.02313  0.70837  Biso   1.000  C
  C651     1.0000 0.72942  0.40944  0.99562  Biso   1.000  C
  C652     1.0000 0.51314  0.71803  0.08818  Biso   1.000  C
  C653     1.0000 0.92053  0.01950  0.77542  Biso   1.000  C
  C654     1.0000 0.22194  0.40632  0.46863  Biso   1.000  C
  C655     1.0000 0.51840  0.21241  0.39415  Biso   1.000  C
  C656     1.0000 0.13172  0.49339  0.69512  Biso   1.000  C
  C657     1.0000 0.80503  0.91242  0.98616  Biso   1.000  C
  C658     1.0000 0.99262  0.21566  0.09148  Biso   1.000  C
  C659     1.0000 0.63209  0.51392  0.78939  Biso   1.000  C
  C660     1.0000 0.30200  0.91014  0.49214  Biso   1.000  C
  C661     1.0000 0.02693  0.30352  0.59405  Biso   1.000  C
  C662     1.0000 0.60287  0.01200  0.27557  Biso   1.000  C
  C663     1.0000 0.29973  0.61485  0.99261  Biso   1.000  C
  C664     1.0000 0.52060  0.30306  0.89607  Biso   1.000  C
  C665     1.0000 0.10837  0.00551  0.20083  Biso   1.000  C
  C666     1.0000 0.79389  0.61364  0.51067  Biso   1.000  C
  C667     1.0000 0.48929  0.80719  0.59228  Biso   1.000  C
  C668     1.0000 0.89843  0.50070  0.29259  Biso   1.000  C
  C669     1.0000 0.21707  0.11543  0.98336  Biso   1.000  C
  C670     1.0000 0.01578  0.80983  0.88766  Biso   1.000  C
  C671     1.0000 0.39885  0.50180  0.19157  Biso   1.000  C
  C672     1.0000 0.71792  0.11288  0.48140  Biso   1.000  C
  C673     1.0000 0.21416  0.02898  0.79852  Biso   1.000  C
  C674     1.0000 0.82110  0.20855  0.97356  Biso   1.000  C
  C675     1.0000 0.00785  0.81102  0.18831  Biso   1.000  C
  C676     1.0000 0.71381  0.00962  0.67891  Biso   1.000  C
  C677     1.0000 0.31709  0.20499  0.49584  Biso   1.000  C
  C678     1.0000 0.51142  0.80672  0.29222  Biso   1.000  C
  C679     1.0000 0.32874  0.51539  0.78613  Biso   1.000  C
  C680     1.0000 0.70637  0.70908  0.99741  Biso   1.000  C
  C681     1.0000 0.49975  0.30827  0.18889  Biso   1.000  C
  C682     1.0000 0.83144  0.51001  0.69864  Biso   1.000  C
  C683     1.0000 0.20369  0.70488  0.49051  Biso   1.000  C
  C684     1.0000 0.00054  0.30613  0.29521  Biso   1.000  C
  C685     1.0000 0.80790  0.99331  0.17461  Biso   1.000  C
  C686     1.0000 0.21079  0.81713  0.99543  Biso   1.000  C
  C687     1.0000 0.01530  0.21213  0.79943  Biso   1.000  C
  C688     1.0000 0.30807  0.01819  0.30725  Biso   1.000  C
  C689     1.0000 0.70367  0.81625  0.51526  Biso   1.000  C
  C690     1.0000 0.50714  0.20920  0.69275  Biso   1.000  C
  C691     1.0000 0.69712  0.50619  0.19832  Biso   1.000  C
  C692     1.0000 0.32255  0.31617  0.97849  Biso   1.000  C
  C693     1.0000 0.51318  0.70273  0.79292  Biso   1.000  C
  C694     1.0000 0.19688  0.51235  0.28310  Biso   1.000  C
  C695     1.0000 0.81430  0.31831  0.48762  Biso   1.000  C
  C696     1.0000 0.02896  0.70697  0.68942  Biso   1.000  C
  C697     1.0000 0.69766  0.00053  0.28436  Biso   1.000  C
  C698     1.0000 0.31570  0.70906  0.99505  Biso   1.000  C
  C699     1.0000 0.02804  0.31770  0.68775  Biso   1.000  C
  C700     1.0000 0.20301  0.00950  0.19403  Biso   1.000  C
  C701     1.0000 0.80786  0.70738  0.51852  Biso   1.000  C
  C702     1.0000 0.52028  0.31600  0.79955  Biso   1.000  C
  C703     1.0000 0.80271  0.50540  0.30948  Biso   1.000  C
  C704     1.0000 0.20710  0.20703  0.98975  Biso   1.000  C
  C705     1.0000 0.49235  0.81461  0.68509  Biso   1.000  C
  C706     1.0000 0.30469  0.50518  0.17485  Biso   1.000  C
  C707     1.0000 0.70544  0.20639  0.49572  Biso   1.000  C
  C708     1.0000 0.02330  0.82232  0.79307  Biso   1.000  C
  C709     1.0000 0.32566  0.02978  0.69600  Biso   1.000  C
  C710     1.0000 0.71654  0.31695  0.98672  Biso   1.000  C
  C711     1.0000 0.99999  0.69923  0.29912  Biso   1.000  C
  C712     1.0000 0.82324  0.02637  0.78536  Biso   1.000  C
  C713     1.0000 0.20909  0.31533  0.49205  Biso   1.000  C
  C714     1.0000 0.51613  0.69958  0.18143  Biso   1.000  C
  C715     1.0000 0.22192  0.50655  0.67437  Biso   1.000  C
  C716     1.0000 0.81579  0.81888  0.99727  Biso   1.000  C
  C717     1.0000 0.50187  0.19853  0.30061  Biso   1.000  C
  C718     1.0000 0.72324  0.52050  0.80576  Biso   1.000  C
  C719     1.0000 0.31057  0.81735  0.48573  Biso   1.000  C
  C720     1.0000 0.98409  0.19684  0.18713  Biso   1.000  C
  C721     1.0000 0.52789  0.81186  0.26510  Biso   1.000  C
  C722     1.0000 0.33246  0.53264  0.76080  Biso   1.000  C
  C723     1.0000 0.78537  0.32406  0.49927  Biso   1.000  C
  C724     1.0000 0.98825  0.78611  0.18438  Biso   1.000  C
  C725     1.0000 0.80406  0.52279  0.69257  Biso   1.000  C
  C726     1.0000 0.29480  0.31790  0.96128  Biso   1.000  C
  C727     1.0000 0.98664  0.27844  0.30098  Biso   1.000  C
  C728     1.0000 0.23932  0.04698  0.80220  Biso   1.000  C
  C729     1.0000 0.73172  0.82229  0.53100  Biso   1.000  C
  C730     1.0000 0.47998  0.30989  0.21287  Biso   1.000  C
  C731     1.0000 0.74394  0.99918  0.67544  Biso   1.000  C
  C732     1.0000 0.23649  0.82216  0.97801  Biso   1.000  C
  C733     1.0000 0.49634  0.20270  0.72164  Biso   1.000  C
  C734     1.0000 0.69443  0.48403  0.22270  Biso   1.000  C
  C735     1.0000 0.19881  0.72964  0.47144  Biso   1.000  C
  C736     1.0000 0.00384  0.24016  0.80085  Biso   1.000  C
  C737     1.0000 0.22314  0.49470  0.28724  Biso   1.000  C
  C738     1.0000 0.72972  0.70628  0.01770  Biso   1.000  C
  C739     1.0000 0.04802  0.70712  0.71435  Biso   1.000  C
  C740     1.0000 0.78195  0.97469  0.17079  Biso   1.000  C
  C741     1.0000 0.28949  0.20164  0.48015  Biso   1.000  C
  C742     1.0000 0.53467  0.70629  0.76960  Biso   1.000  C
  C743     1.0000 0.28325  0.99852  0.31170  Biso   1.000  C
  C744     1.0000 0.82958  0.23707  0.98316  Biso   1.000  C
  C745     1.0000 0.00926  0.72823  0.30589  Biso   1.000  C
  C746     1.0000 0.29810  0.04526  0.68835  Biso   1.000  C
  C747     1.0000 0.74422  0.31878  0.00259  Biso   1.000  C
  C748     1.0000 0.52963  0.72728  0.17955  Biso   1.000  C
  C749     1.0000 0.82498  0.00552  0.76153  Biso   1.000  C
  C750     1.0000 0.23846  0.32101  0.50153  Biso   1.000  C
  C751     1.0000 0.51192  0.19525  0.27167  Biso   1.000  C
  C752     1.0000 0.25053  0.49310  0.67183  Biso   1.000  C
  C753     1.0000 0.79069  0.82002  0.97816  Biso   1.000  C
  C754     1.0000 0.00166  0.19230  0.21498  Biso   1.000  C
  C755     1.0000 0.72069  0.50020  0.78195  Biso   1.000  C
  C756     1.0000 0.28612  0.81940  0.50712  Biso   1.000  C
  C757     1.0000 0.01229  0.28969  0.68472  Biso   1.000  C
  C758     1.0000 0.69733  0.01657  0.25571  Biso   1.000  C
  C759     1.0000 0.29353  0.71030  0.01787  Biso   1.000  C
  C760     1.0000 0.53828  0.31824  0.77306  Biso   1.000  C
  C761     1.0000 0.22608  0.03150  0.19603  Biso   1.000  C
  C762     1.0000 0.81143  0.73482  0.50415  Biso   1.000  C
  C763     1.0000 0.47995  0.81542  0.71395  Biso   1.000  C
  C764     1.0000 0.77765  0.52491  0.31405  Biso   1.000  C
  C765     1.0000 0.23631  0.20249  0.00259  Biso   1.000  C
  C766     1.0000 0.00858  0.82372  0.76543  Biso   1.000  C
  C767     1.0000 0.30872  0.52212  0.20192  Biso   1.000  C
  C768     1.0000 0.69810  0.23512  0.48422  Biso   1.000  C
  C769     1.0000 0.48734  0.71998  0.79311  Biso   1.000  C
  C770     1.0000 0.83757  0.49767  0.72844  Biso   1.000  C
  C771     1.0000 0.69963  0.78749  0.50322  Biso   1.000  C
  C772     1.0000 0.00736  0.72938  0.68630  Biso   1.000  C
  C773     1.0000 0.30362  0.49508  0.78562  Biso   1.000  C
  C774     1.0000 0.20875  0.79153  0.01480  Biso   1.000  C
  C775     1.0000 0.02977  0.20450  0.77232  Biso   1.000  C
  C776     1.0000 0.70840  0.02605  0.70518  Biso   1.000  C
  C777     1.0000 0.81864  0.28912  0.47605  Biso   1.000  C
  C778     1.0000 0.52019  0.23738  0.68479  Biso   1.000  C
  C779     1.0000 0.21080  0.01410  0.77034  Biso   1.000  C
  C780     1.0000 0.32284  0.29141  0.99879  Biso   1.000  C
  C781     1.0000 0.51932  0.28461  0.18784  Biso   1.000  C
  C782     1.0000 0.19294  0.52917  0.25470  Biso   1.000  C
  C783     1.0000 0.32148  0.23179  0.51063  Biso   1.000  C
  C784     1.0000 0.01461  0.31079  0.26700  Biso   1.000  C
  C785     1.0000 0.72018  0.52840  0.20154  Biso   1.000  C
  C786     1.0000 0.79058  0.20279  0.96470  Biso   1.000  C
  C787     1.0000 0.02265  0.81321  0.21530  Biso   1.000  C
  C788     1.0000 0.31013  0.03646  0.28060  Biso   1.000  C
  C789     1.0000 0.22893  0.70651  0.50848  Biso   1.000  C
  C790     1.0000 0.49124  0.78048  0.29397  Biso   1.000  C
  C791     1.0000 0.80924  0.01073  0.20157  Biso   1.000  C
  C792     1.0000 0.70703  0.73259  0.97703  Biso   1.000  C
  C793     1.0000 0.49064  0.22837  0.30804  Biso   1.000  C
  C794     1.0000 0.27490  0.49221  0.16949  Biso   1.000  C
  C795     1.0000 0.20294  0.28721  0.48119  Biso   1.000  C
  C796     1.0000 0.97058  0.22532  0.18299  Biso   1.000  C
  C797     1.0000 0.80317  0.48524  0.28482  Biso   1.000  C
  C798     1.0000 0.71470  0.29443  0.96443  Biso   1.000  C
  C799     1.0000 0.98957  0.69490  0.26932  Biso   1.000  C
  C800     1.0000 0.20172  0.98822  0.21798  Biso   1.000  C
  C801     1.0000 0.30864  0.79407  0.46447  Biso   1.000  C
  C802     1.0000 0.49785  0.69467  0.20724  Biso   1.000  C
  C803     1.0000 0.72279  0.98219  0.28954  Biso   1.000  C
  C804     1.0000 0.81825  0.79387  0.01632  Biso   1.000  C
  C805     1.0000 0.50787  0.78825  0.67644  Biso   1.000  C
  C806     1.0000 0.74880  0.53972  0.80635  Biso   1.000  C
  C807     1.0000 0.78081  0.70205  0.53431  Biso   1.000  C
  C808     1.0000 0.03935  0.79655  0.79758  Biso   1.000  C
  C809     1.0000 0.21750  0.52513  0.70030  Biso   1.000  C
  C810     1.0000 0.31826  0.73248  0.97264  Biso   1.000  C
  C811     1.0000 0.04111  0.32261  0.71662  Biso   1.000  C
  C812     1.0000 0.79729  0.04338  0.78680  Biso   1.000  C
  C813     1.0000 0.73599  0.20173  0.50758  Biso   1.000  C
  C814     1.0000 0.49978  0.29276  0.80371  Biso   1.000  C
  C815     1.0000 0.32826  0.01605  0.72530  Biso   1.000  C
  C816     1.0000 0.20303  0.23613  0.97603  Biso   1.000  C
  C817     1.0000 0.00669  0.26112  0.77859  Biso   1.000  C
  C818     1.0000 0.76027  0.97256  0.19347  Biso   1.000  C
  C819     1.0000 0.25690  0.80110  0.97773  Biso   1.000  C
  C820     1.0000 0.49934  0.22454  0.74234  Biso   1.000  C
  C821     1.0000 0.26182  0.99852  0.29082  Biso   1.000  C
  C822     1.0000 0.75045  0.79945  0.53382  Biso   1.000  C
  C823     1.0000 0.52957  0.72658  0.74739  Biso   1.000  C
  C824     1.0000 0.71375  0.48424  0.24657  Biso   1.000  C
  C825     1.0000 0.27386  0.29583  0.96269  Biso   1.000  C
  C826     1.0000 0.04426  0.72871  0.73484  Biso   1.000  C
  C827     1.0000 0.24231  0.49451  0.26377  Biso   1.000  C
  C828     1.0000 0.76450  0.30247  0.50179  Biso   1.000  C
  C829     1.0000 0.98567  0.76537  0.20647  Biso   1.000  C
  C830     1.0000 0.26170  0.04645  0.78215  Biso   1.000  C
  C831     1.0000 0.80845  0.25839  0.98403  Biso   1.000  C
  C832     1.0000 0.52541  0.79145  0.24430  Biso   1.000  C
  C833     1.0000 0.76608  0.00622  0.69396  Biso   1.000  C
  C834     1.0000 0.26760  0.22306  0.48061  Biso   1.000  C
  C835     1.0000 0.47857  0.28741  0.23450  Biso   1.000  C
  C836     1.0000 0.31153  0.53493  0.73871  Biso   1.000  C
  C837     1.0000 0.75081  0.72732  0.01838  Biso   1.000  C
  C838     1.0000 0.98297  0.25929  0.27838  Biso   1.000  C
  C839     1.0000 0.78378  0.52391  0.71570  Biso   1.000  C
  C840     1.0000 0.21849  0.75242  0.47169  Biso   1.000  C
  C841     1.0000 0.23132  0.01764  0.74972  Biso   1.000  C
  C842     1.0000 0.77048  0.22565  0.96483  Biso   1.000  C
  C843     1.0000 0.02140  0.79007  0.23607  Biso   1.000  C
  C844     1.0000 0.72961  0.03020  0.72507  Biso   1.000  C
  C845     1.0000 0.29864  0.25212  0.51160  Biso   1.000  C
  C846     1.0000 0.49127  0.76023  0.27246  Biso   1.000  C
  C847     1.0000 0.28308  0.49781  0.76413  Biso   1.000  C
  C848     1.0000 0.72886  0.75323  0.97940  Biso   1.000  C
  C849     1.0000 0.51895  0.26474  0.20963  Biso   1.000  C
  C850     1.0000 0.81762  0.49739  0.74986  Biso   1.000  C
  C851     1.0000 0.24868  0.72882  0.50669  Biso   1.000  C
  C852     1.0000 0.01233  0.28908  0.24690  Biso   1.000  C
  C853     1.0000 0.78708  0.00932  0.22200  Biso   1.000  C
  C854     1.0000 0.23085  0.77207  0.01497  Biso   1.000  C
  C855     1.0000 0.03408  0.22528  0.74999  Biso   1.000  C
  C856     1.0000 0.28767  0.03603  0.26132  Biso   1.000  C
  C857     1.0000 0.71879  0.76516  0.50673  Biso   1.000  C
  C858     1.0000 0.52364  0.25664  0.70745  Biso   1.000  C
  C859     1.0000 0.73780  0.52741  0.22649  Biso   1.000  C
  C860     1.0000 0.30069  0.26996  0.00007  Biso   1.000  C
  C861     1.0000 0.48405  0.74206  0.77187  Biso   1.000  C
  C862     1.0000 0.21505  0.52872  0.23285  Biso   1.000  C
  C863     1.0000 0.79644  0.26726  0.48055  Biso   1.000  C
  C864     1.0000 0.00714  0.75104  0.70678  Biso   1.000  C
  C865     1.0000 0.74396  0.49708  0.76417  Biso   1.000  C
  C866     1.0000 0.79080  0.75538  0.50660  Biso   1.000  C
  C867     1.0000 0.48577  0.79303  0.73318  Biso   1.000  C
  C868     1.0000 0.27296  0.49538  0.69180  Biso   1.000  C
  C869     1.0000 0.27529  0.73368  0.01822  Biso   1.000  C
  C870     1.0000 0.01028  0.80089  0.74619  Biso   1.000  C
  C871     1.0000 0.80383  0.00300  0.74154  Biso   1.000  C
  C872     1.0000 0.71906  0.25720  0.48658  Biso   1.000  C
  C873     1.0000 0.01338  0.26832  0.70624  Biso   1.000  C
  C874     1.0000 0.27596  0.04624  0.70849  Biso   1.000  C
  C875     1.0000 0.25803  0.22379  0.99943  Biso   1.000  C
  C876     1.0000 0.53235  0.29734  0.75138  Biso   1.000  C
  C877     1.0000 0.28639  0.52262  0.22275  Biso   1.000  C
  C878     1.0000 0.25902  0.29919  0.50258  Biso   1.000  C
  C879     1.0000 0.51180  0.21693  0.25100  Biso   1.000  C
  C880     1.0000 0.75479  0.52288  0.29488  Biso   1.000  C
  C881     1.0000 0.76419  0.29670  0.99896  Biso   1.000  C
  C882     1.0000 0.00235  0.21396  0.23596  Biso   1.000  C
  C883     1.0000 0.24585  0.03323  0.21852  Biso   1.000  C
  C884     1.0000 0.26401  0.79870  0.50541  Biso   1.000  C
  C885     1.0000 0.00896  0.74865  0.28392  Biso   1.000  C
  C886     1.0000 0.71539  0.00869  0.23288  Biso   1.000  C
  C887     1.0000 0.76847  0.79949  0.97975  Biso   1.000  C
  C888     1.0000 0.52882  0.74673  0.20243  Biso   1.000  C
  C889     1.0000 0.74238  0.97832  0.26670  Biso   1.000  C
  C890     1.0000 0.29601  0.75333  0.97086  Biso   1.000  C
  C891     1.0000 0.04129  0.30131  0.73763  Biso   1.000  C
  C892     1.0000 0.22174  0.99025  0.24078  Biso   1.000  C
  C893     1.0000 0.76167  0.72438  0.53823  Biso   1.000  C
  C894     1.0000 0.49827  0.27091  0.78352  Biso   1.000  C
  C895     1.0000 0.77891  0.48463  0.26619  Biso   1.000  C
  C896     1.0000 0.22666  0.25575  0.97221  Biso   1.000  C
  C897     1.0000 0.51051  0.76514  0.69808  Biso   1.000  C
  C898     1.0000 0.25290  0.49640  0.18976  Biso   1.000  C
  C899     1.0000 0.75568  0.22465  0.50654  Biso   1.000  C
  C900     1.0000 0.03887  0.77423  0.77863  Biso   1.000  C
  C901     1.0000 0.30452  0.01676  0.74325  Biso   1.000  C
  C902     1.0000 0.73477  0.27349  0.96106  Biso   1.000  C
  C903     1.0000 0.99059  0.71659  0.24696  Biso   1.000  C
  C904     1.0000 0.77605  0.04085  0.76639  Biso   1.000  C
  C905     1.0000 0.22253  0.26493  0.48490  Biso   1.000  C
  C906     1.0000 0.49553  0.71613  0.22813  Biso   1.000  C
  C907     1.0000 0.24131  0.52842  0.71913  Biso   1.000  C
  C908     1.0000 0.79485  0.77367  0.01660  Biso   1.000  C
  C909     1.0000 0.49194  0.25018  0.28667  Biso   1.000  C
  C910     1.0000 0.77228  0.53648  0.78694  Biso   1.000  C
  C911     1.0000 0.28678  0.77273  0.46648  Biso   1.000  C
  C912     1.0000 0.97695  0.24625  0.20241  Biso   1.000  C
  C913     1.0000 0.79222  0.51093  0.74370  Biso   1.000  C
  C914     1.0000 0.74417  0.77165  0.52297  Biso   1.000  C
  C915     1.0000 0.50469  0.74485  0.74945  Biso   1.000  C
  C916     1.0000 0.28752  0.51679  0.74104  Biso   1.000  C
  C917     1.0000 0.25478  0.77732  0.99651  Biso   1.000  C
  C918     1.0000 0.02505  0.75181  0.73067  Biso   1.000  C
  C919     1.0000 0.75783  0.01993  0.72074  Biso   1.000  C
  C920     1.0000 0.76996  0.27431  0.49506  Biso   1.000  C
  C921     1.0000 0.02215  0.25274  0.75374  Biso   1.000  C
  C922     1.0000 0.25687  0.03208  0.75617  Biso   1.000  C
  C923     1.0000 0.27833  0.27108  0.98100  Biso   1.000  C
  C924     1.0000 0.51419  0.24997  0.73589  Biso   1.000  C
  C925     1.0000 0.23895  0.51063  0.23788  Biso   1.000  C
  C926     1.0000 0.27333  0.24855  0.49498  Biso   1.000  C
  C927     1.0000 0.50101  0.26688  0.23351  Biso   1.000  C
  C928     1.0000 0.73366  0.50657  0.24911  Biso   1.000  C
  C929     1.0000 0.78022  0.25178  0.97600  Biso   1.000  C
  C930     1.0000 0.99591  0.26298  0.25128  Biso   1.000  C
  C931     1.0000 0.26250  0.01711  0.26605  Biso   1.000  C
  C932     1.0000 0.24353  0.75158  0.48843  Biso   1.000  C
  C933     1.0000 0.00238  0.76678  0.23181  Biso   1.000  C
  C934     1.0000 0.76355  0.98881  0.21956  Biso   1.000  C
  C935     1.0000 0.75049  0.75076  0.00022  Biso   1.000  C
  C936     1.0000 0.50942  0.76466  0.24857  Biso   1.000  C
  C937     1.0000 0.75962  0.27437  0.97897  Biso   1.000  C
  C938     1.0000 0.00164  0.74301  0.25435  Biso   1.000  C
  C939     1.0000 0.28032  0.03323  0.73492  Biso   1.000  C
  C940     1.0000 0.25065  0.27171  0.49476  Biso   1.000  C
  C941     1.0000 0.51099  0.74186  0.22639  Biso   1.000  C
  C942     1.0000 0.77935  0.01984  0.74471  Biso   1.000  C
  C943     1.0000 0.77100  0.77674  0.99976  Biso   1.000  C
  C944     1.0000 0.50213  0.24440  0.25777  Biso   1.000  C
  C945     1.0000 0.26718  0.51327  0.71686  Biso   1.000  C
  C946     1.0000 0.26535  0.77519  0.48750  Biso   1.000  C
  C947     1.0000 0.99064  0.24041  0.22962  Biso   1.000  C
  C948     1.0000 0.76937  0.51440  0.76645  Biso   1.000  C
  C949     1.0000 0.27553  0.75382  0.99481  Biso   1.000  C
  C950     1.0000 0.02775  0.27518  0.73183  Biso   1.000  C
  C951     1.0000 0.73823  0.99002  0.23872  Biso   1.000  C
  C952     1.0000 0.76662  0.75099  0.52362  Biso   1.000  C
  C953     1.0000 0.51402  0.27352  0.75754  Biso   1.000  C
  C954     1.0000 0.24265  0.01260  0.24038  Biso   1.000  C
  C955     1.0000 0.25278  0.25009  0.98420  Biso   1.000  C
  C956     1.0000 0.50062  0.76809  0.72617  Biso   1.000  C
  C957     1.0000 0.75525  0.50328  0.27155  Biso   1.000  C
  C958     1.0000 0.74698  0.25243  0.49692  Biso   1.000  C
  C959     1.0000 0.02445  0.77524  0.75275  Biso   1.000  C
  C960     1.0000 0.26044  0.50929  0.21512  Biso   1.000  C
  Cu1      1.0000 0.02763  0.51257  0.64687  Biso   1.000  Cu
  Cu2      1.0000 0.66222  0.00864  0.48173  Biso   1.000  Cu
  Cu3      1.0000 0.50937  0.66369  0.98689  Biso   1.000  Cu
  Cu4      1.0000 0.52274  0.51183  0.83859  Biso   1.000  Cu
  Cu5      1.0000 0.16656  0.01035  0.99478  Biso   1.000  Cu
  Cu6      1.0000 0.00508  0.66108  0.49632  Biso   1.000  Cu
  Cu7      1.0000 0.51949  0.01109  0.65079  Biso   1.000  Cu
  Cu8      1.0000 0.85742  0.51639  0.50052  Biso   1.000  Cu
  Cu9      1.0000 0.01377  0.16461  0.99036  Biso   1.000  Cu
  Cu10     1.0000 0.01449  0.01710  0.83622  Biso   1.000  Cu
  Cu11     1.0000 0.35910  0.51588  0.98374  Biso   1.000  Cu
  Cu12     1.0000 0.50924  0.16154  0.49913  Biso   1.000  Cu
  Cu13     1.0000 0.00467  0.50179  0.33871  Biso   1.000  Cu
  Cu14     1.0000 0.36080  0.00982  0.49946  Biso   1.000  Cu
  Cu15     1.0000 0.51906  0.36154  0.99520  Biso   1.000  Cu
  Cu16     1.0000 0.50359  0.50453  0.14457  Biso   1.000  Cu
  Cu17     1.0000 0.86178  0.01315  0.98167  Biso   1.000  Cu
  Cu18     1.0000 0.00995  0.35543  0.48993  Biso   1.000  Cu
  Cu19     1.0000 0.50514  0.00018  0.33907  Biso   1.000  Cu
  Cu20     1.0000 0.16507  0.50556  0.48150  Biso   1.000  Cu
  Cu21     1.0000 0.01475  0.85649  0.99118  Biso   1.000  Cu
  Cu22     1.0000 0.00652  0.00255  0.14332  Biso   1.000  Cu
  Cu23     1.0000 0.66948  0.51087  0.00262  Biso   1.000  Cu
  Cu24     1.0000 0.51013  0.85498  0.48726  Biso   1.000  Cu
  Cu25     1.0000 0.22152  0.01432  0.99564  Biso   1.000  Cu
  Cu26     1.0000 0.01442  0.21927  0.98916  Biso   1.000  Cu
  Cu27     1.0000 0.00485  0.00315  0.19907  Biso   1.000  Cu
  Cu28     1.0000 0.71559  0.01157  0.48026  Biso   1.000  Cu
  Cu29     1.0000 0.51518  0.21665  0.49606  Biso   1.000  Cu
  Cu30     1.0000 0.50231  0.00491  0.28500  Biso   1.000  Cu
  Cu31     1.0000 0.30426  0.51323  0.98032  Biso   1.000  Cu
  Cu32     1.0000 0.51045  0.71869  0.98474  Biso   1.000  Cu
  Cu33     1.0000 0.49877  0.50628  0.19918  Biso   1.000  Cu
  Cu34     1.0000 0.80470  0.51100  0.50602  Biso   1.000  Cu
  Cu35     1.0000 0.00820  0.71534  0.49334  Biso   1.000  Cu
  Cu36     1.0000 0.00053  0.50388  0.28367  Biso   1.000  Cu
  Cu37     1.0000 0.80690  0.01421  0.98064  Biso   1.000  Cu
  Cu38     1.0000 0.01223  0.80322  0.98822  Biso   1.000  Cu
  Cu39     1.0000 0.02006  0.01793  0.78188  Biso   1.000  Cu
  Cu40     1.0000 0.30734  0.00820  0.50212  Biso   1.000  Cu
  Cu41     1.0000 0.50718  0.80028  0.49392  Biso   1.000  Cu
  Cu42     1.0000 0.52200  0.01059  0.70602  Biso   1.000  Cu
  Cu43     1.0000 0.72449  0.51726  0.00427  Biso   1.000  Cu
  Cu44     1.0000 0.51855  0.30826  0.99464  Biso   1.000  Cu
  Cu45     1.0000 0.52768  0.50970  0.78383  Biso   1.000  Cu
  Cu46     1.0000 0.21878  0.50706  0.47869  Biso   1.000  Cu
  Cu47     1.0000 0.01221  0.30250  0.49560  Biso   1.000  Cu
  Cu48     1.0000 0.02769  0.51046  0.70111  Biso   1.000  Cu
  H1       1.0000 0.24561  0.79526  0.51906  Biso   1.000  H
  H2       1.0000 0.54586  0.29985  0.73261  Biso   1.000  H
  H3       1.0000 0.73415  0.53150  0.29935  Biso   1.000  H
  H4       1.0000 0.74971  0.80421  0.96722  Biso   1.000  H
  H5       1.0000 0.00257  0.24799  0.70512  Biso   1.000  H
  H6       1.0000 0.28976  0.53566  0.24254  Biso   1.000  H
  H7       1.0000 0.28258  0.30528  0.50727  Biso   1.000  H
  H8       1.0000 0.99973  0.80104  0.72396  Biso   1.000  H
  H9       1.0000 0.71403  0.02021  0.21216  Biso   1.000  H
  H10      1.0000 0.78074  0.29484  0.01555  Biso   1.000  H
  H11      1.0000 0.47321  0.79572  0.75437  Biso   1.000  H
  H12      1.0000 0.26207  0.05015  0.21665  Biso   1.000  H
  H13      1.0000 0.71293  0.27931  0.48146  Biso   1.000  H
  H14      1.0000 0.53892  0.76684  0.19566  Biso   1.000  H
  H15      1.0000 0.29323  0.48329  0.68876  Biso   1.000  H
  H16      1.0000 0.27846  0.21965  0.00949  Biso   1.000  H
  H17      1.0000 0.01511  0.77050  0.28951  Biso   1.000  H
  H18      1.0000 0.74287  0.48158  0.74698  Biso   1.000  H
  H19      1.0000 0.79475  0.77521  0.49433  Biso   1.000  H
  H20      1.0000 0.01535  0.21177  0.25619  Biso   1.000  H
  H21      1.0000 0.25683  0.05751  0.70266  Biso   1.000  H
  H22      1.0000 0.25907  0.73659  0.03474  Biso   1.000  H
  H23      1.0000 0.52111  0.21343  0.22994  Biso   1.000  H
  H24      1.0000 0.80589  0.98519  0.72611  Biso   1.000  H
  H25      1.0000 0.28139  0.05970  0.78636  Biso   1.000  H
  H26      1.0000 0.81321  0.27963  0.99100  Biso   1.000  H
  H27      1.0000 0.96970  0.74720  0.20314  Biso   1.000  H
  H28      1.0000 0.78784  0.00011  0.69023  Biso   1.000  H
  H29      1.0000 0.24727  0.22198  0.46914  Biso   1.000  H
  H30      1.0000 0.53820  0.79471  0.22497  Biso   1.000  H
  H31      1.0000 0.31368  0.55161  0.72150  Biso   1.000  H
  H32      1.0000 0.76937  0.72536  0.03242  Biso   1.000  H
  H33      1.0000 0.46320  0.28606  0.25272  Biso   1.000  H
  H34      1.0000 0.76294  0.53328  0.71076  Biso   1.000  H
  H35      1.0000 0.21710  0.77177  0.45765  Biso   1.000  H
  H36      1.0000 0.96899  0.24125  0.28184  Biso   1.000  H
  H37      1.0000 0.74075  0.96061  0.19044  Biso   1.000  H
  H38      1.0000 0.27369  0.80359  0.96147  Biso   1.000  H
  H39      1.0000 0.99402  0.28047  0.78078  Biso   1.000  H
  H40      1.0000 0.24278  0.98444  0.29437  Biso   1.000  H
  H41      1.0000 0.77164  0.80114  0.54593  Biso   1.000  H
  H42      1.0000 0.49183  0.21849  0.76557  Biso   1.000  H
  H43      1.0000 0.71172  0.46678  0.26327  Biso   1.000  H
  H44      1.0000 0.25489  0.29814  0.94986  Biso   1.000  H
  H45      1.0000 0.54660  0.72889  0.73109  Biso   1.000  H
  H46      1.0000 0.26071  0.47840  0.26184  Biso   1.000  H
  H47      1.0000 0.74333  0.30955  0.50994  Biso   1.000  H
  H48      1.0000 0.05482  0.72684  0.75682  Biso   1.000  H
  H49      1.0000 0.21647  0.53977  0.21263  Biso   1.000  H
  H50      1.0000 0.30218  0.27046  0.52306  Biso   1.000  H
  H51      1.0000 0.53424  0.24766  0.20693  Biso   1.000  H
  H52      1.0000 0.75323  0.54475  0.23069  Biso   1.000  H
  H53      1.0000 0.74756  0.22215  0.96214  Biso   1.000  H
  H54      1.0000 0.01527  0.29387  0.22423  Biso   1.000  H
  H55      1.0000 0.29330  0.05018  0.24171  Biso   1.000  H
  H56      1.0000 0.26876  0.72513  0.51782  Biso   1.000  H
  H57      1.0000 0.03746  0.78827  0.25362  Biso   1.000  H
  H58      1.0000 0.78790  0.02294  0.24039  Biso   1.000  H
  H59      1.0000 0.72587  0.77394  0.96784  Biso   1.000  H
  H60      1.0000 0.47974  0.74020  0.27571  Biso   1.000  H
  H61      1.0000 0.82111  0.48648  0.77151  Biso   1.000  H
  H62      1.0000 0.71398  0.74462  0.50023  Biso   1.000  H
  H63      1.0000 0.46483  0.75598  0.77286  Biso   1.000  H
  H64      1.0000 0.26441  0.48333  0.76365  Biso   1.000  H
  H65      1.0000 0.22686  0.75225  0.02628  Biso   1.000  H
  H66      1.0000 0.99061  0.76754  0.70264  Biso   1.000  H
  H67      1.0000 0.72307  0.04067  0.74488  Biso   1.000  H
  H68      1.0000 0.79863  0.24472  0.47565  Biso   1.000  H
  H69      1.0000 0.04836  0.22043  0.73076  Biso   1.000  H
  H70      1.0000 0.22801  0.01034  0.72711  Biso   1.000  H
  H71      1.0000 0.30244  0.25166  0.01538  Biso   1.000  H
  H72      1.0000 0.53185  0.27784  0.69961  Biso   1.000  H
  H73      1.0000 0.79211  0.54932  0.78842  Biso   1.000  H
  H74      1.0000 0.74241  0.72201  0.55152  Biso   1.000  H
  H75      1.0000 0.52290  0.74664  0.69274  Biso   1.000  H
  H76      1.0000 0.23796  0.54278  0.73657  Biso   1.000  H
  H77      1.0000 0.29734  0.76910  0.95370  Biso   1.000  H
  H78      1.0000 0.04631  0.75270  0.78573  Biso   1.000  H
  H79      1.0000 0.75684  0.05395  0.76856  Biso   1.000  H
  H80      1.0000 0.77719  0.21980  0.51727  Biso   1.000  H
  H81      1.0000 0.05323  0.30489  0.75758  Biso   1.000  H
  H82      1.0000 0.30475  0.00579  0.76446  Biso   1.000  H
  H83      1.0000 0.22216  0.27621  0.96158  Biso   1.000  H
  H84      1.0000 0.48692  0.25092  0.78791  Biso   1.000  H
  H85      1.0000 0.23235  0.48794  0.18438  Biso   1.000  H
  H86      1.0000 0.21677  0.24373  0.47578  Biso   1.000  H
  H87      1.0000 0.48456  0.27287  0.29068  Biso   1.000  H
  H88      1.0000 0.77646  0.46850  0.24907  Biso   1.000  H
  H89      1.0000 0.72970  0.25698  0.94575  Biso   1.000  H
  H90      1.0000 0.97067  0.26766  0.19855  Biso   1.000  H
  H91      1.0000 0.22261  0.97420  0.25873  Biso   1.000  H
  H92      1.0000 0.28778  0.75363  0.45293  Biso   1.000  H
  H93      1.0000 0.98572  0.71177  0.22577  Biso   1.000  H
  H94      1.0000 0.75864  0.96211  0.26970  Biso   1.000  H
  H95      1.0000 0.79851  0.75512  0.03094  Biso   1.000  H
  H96      1.0000 0.48038  0.71036  0.24514  Biso   1.000  H
  H97      1.0000 0.88477  0.02661  0.89237  Biso   1.000  H
  H98      1.0000 0.92658  0.87579  0.98359  Biso   1.000  H
  H99      1.0000 0.02614  0.92617  0.85303  Biso   1.000  H
  H100     1.0000 0.38927  0.01242  0.59519  Biso   1.000  H
  H101     1.0000 0.41835  0.87885  0.48730  Biso   1.000  H
  H102     1.0000 0.51381  0.92407  0.62848  Biso   1.000  H
  H103     1.0000 0.65578  0.50780  0.91003  Biso   1.000  H
  H104     1.0000 0.61265  0.37939  0.99678  Biso   1.000  H
  H105     1.0000 0.51831  0.41975  0.86023  Biso   1.000  H
  H106     1.0000 0.15225  0.48935  0.57783  Biso   1.000  H
  H107     1.0000 0.10170  0.37773  0.47647  Biso   1.000  H
  H108     1.0000 0.02166  0.42375  0.62361  Biso   1.000  H
  H109     1.0000 0.14394  0.01269  0.08763  Biso   1.000  H
  H110     1.0000 0.09916  0.14791  0.99931  Biso   1.000  H
  H111     1.0000 0.00238  0.09831  0.12220  Biso   1.000  H
  H112     1.0000 0.63750  0.01557  0.39261  Biso   1.000  H
  H113     1.0000 0.60430  0.14048  0.51086  Biso   1.000  H
  H114     1.0000 0.50003  0.09198  0.36243  Biso   1.000  H
  H115     1.0000 0.37118  0.50994  0.07145  Biso   1.000  H
  H116     1.0000 0.41778  0.64147  0.99309  Biso   1.000  H
  H117     1.0000 0.51375  0.59654  0.11696  Biso   1.000  H
  H118     1.0000 0.87206  0.51593  0.40916  Biso   1.000  H
  H119     1.0000 0.91416  0.64417  0.50903  Biso   1.000  H
  H120     1.0000 0.01592  0.59500  0.36265  Biso   1.000  H
  H121     1.0000 0.11048  0.01359  0.86328  Biso   1.000  H
  H122     1.0000 0.88470  0.10541  0.98633  Biso   1.000  H
  H123     1.0000 0.00801  0.87458  0.08297  Biso   1.000  H
  H124     1.0000 0.60577  0.00447  0.62545  Biso   1.000  H
  H125     1.0000 0.38108  0.10199  0.49649  Biso   1.000  H
  H126     1.0000 0.50993  0.86674  0.39718  Biso   1.000  H
  H127     1.0000 0.42960  0.51853  0.85623  Biso   1.000  H
  H128     1.0000 0.64476  0.60477  0.00338  Biso   1.000  H
  H129     1.0000 0.50488  0.37753  0.08603  Biso   1.000  H
  H130     1.0000 0.93508  0.51862  0.62852  Biso   1.000  H
  H131     1.0000 0.14443  0.59898  0.48151  Biso   1.000  H
  H132     1.0000 0.00794  0.37347  0.39750  Biso   1.000  H
  H133     1.0000 0.91928  0.99762  0.11823  Biso   1.000  H
  H134     1.0000 0.14988  0.92226  0.99839  Biso   1.000  H
  H135     1.0000 0.02006  0.14613  0.90074  Biso   1.000  H
  H136     1.0000 0.41816  0.00812  0.36391  Biso   1.000  H
  H137     1.0000 0.64013  0.91901  0.49062  Biso   1.000  H
  H138     1.0000 0.51528  0.14300  0.59263  Biso   1.000  H
  H139     1.0000 0.59741  0.50222  0.12805  Biso   1.000  H
  H140     1.0000 0.38824  0.42022  0.98655  Biso   1.000  H
  H141     1.0000 0.51552  0.64158  0.89918  Biso   1.000  H
  H142     1.0000 0.09615  0.50443  0.35097  Biso   1.000  H
  H143     1.0000 0.87854  0.42159  0.49820  Biso   1.000  H
  H144     1.0000 0.03110  0.64228  0.58739  Biso   1.000  H
  H145     1.0000 0.61474  0.50424  0.86283  Biso   1.000  H
  H146     1.0000 0.86952  0.60257  0.51131  Biso   1.000  H
  H147     1.0000 0.50769  0.87954  0.58135  Biso   1.000  H
  H148     1.0000 0.11327  0.48819  0.62087  Biso   1.000  H
  H149     1.0000 0.37708  0.60549  0.98678  Biso   1.000  H
  H150     1.0000 0.02753  0.88361  0.89958  Biso   1.000  H
  H151     1.0000 0.92542  0.01716  0.85158  Biso   1.000  H
  H152     1.0000 0.64465  0.09851  0.49658  Biso   1.000  H
  H153     1.0000 0.02316  0.37757  0.58060  Biso   1.000  H
  H154     1.0000 0.42961  0.01393  0.63382  Biso   1.000  H
  H155     1.0000 0.14100  0.10805  0.99293  Biso   1.000  H
  H156     1.0000 0.52131  0.38150  0.89886  Biso   1.000  H
  H157     1.0000 0.41438  0.50904  0.11702  Biso   1.000  H
  H158     1.0000 0.14696  0.41979  0.46583  Biso   1.000  H
  H159     1.0000 0.50986  0.13838  0.40757  Biso   1.000  H
  H160     1.0000 0.90928  0.50995  0.36613  Biso   1.000  H
  H161     1.0000 0.65334  0.41970  0.99725  Biso   1.000  H
  H162     1.0000 0.99534  0.14144  0.07974  Biso   1.000  H
  H163     1.0000 0.10159  0.00489  0.12515  Biso   1.000  H
  H164     1.0000 0.37728  0.91749  0.48800  Biso   1.000  H
  H165     1.0000 0.01313  0.63667  0.40398  Biso   1.000  H
  H166     1.0000 0.59657  0.02019  0.35168  Biso   1.000  H
  H167     1.0000 0.88103  0.92238  0.97887  Biso   1.000  H
  H168     1.0000 0.52404  0.64348  0.07558  Biso   1.000  H
  H169     1.0000 0.00807  0.10682  0.86040  Biso   1.000  H
  H170     1.0000 0.87855  0.00779  0.07278  Biso   1.000  H
  H171     1.0000 0.10467  0.87996  0.99773  Biso   1.000  H
  H172     1.0000 0.52358  0.10389  0.63385  Biso   1.000  H
  H173     1.0000 0.37534  0.00617  0.40881  Biso   1.000  H
  H174     1.0000 0.59889  0.87841  0.49257  Biso   1.000  H
  H175     1.0000 0.53485  0.60106  0.85738  Biso   1.000  H
  H176     1.0000 0.64231  0.50965  0.09021  Biso   1.000  H
  H177     1.0000 0.42810  0.37837  0.99003  Biso   1.000  H
  H178     1.0000 0.04248  0.60224  0.63040  Biso   1.000  H
  H179     1.0000 0.14083  0.50617  0.39221  Biso   1.000  H
  H180     1.0000 0.92074  0.37860  0.50390  Biso   1.000  H
  H181     1.0000 0.00610  0.91460  0.12663  Biso   1.000  H
  H182     1.0000 0.15054  0.01021  0.90316  Biso   1.000  H
  H183     1.0000 0.92637  0.14636  0.98059  Biso   1.000  H
  H184     1.0000 0.50765  0.90614  0.35563  Biso   1.000  H
  H185     1.0000 0.64239  0.00078  0.57822  Biso   1.000  H
  H186     1.0000 0.42110  0.14252  0.49785  Biso   1.000  H
  H187     1.0000 0.50073  0.41340  0.12653  Biso   1.000  H
  H188     1.0000 0.38661  0.50646  0.89376  Biso   1.000  H
  H189     1.0000 0.60102  0.64629  0.99175  Biso   1.000  H
  H190     1.0000 0.99581  0.41210  0.35475  Biso   1.000  H
  H191     1.0000 0.89010  0.51398  0.59035  Biso   1.000  H
  H192     1.0000 0.10118  0.63743  0.48958  Biso   1.000  H
  H193     1.0000 0.27787  0.86997  0.48797  Biso   1.000  H
  H194     1.0000 0.52272  0.28024  0.85472  Biso   1.000  H
  H195     1.0000 0.85442  0.50140  0.27298  Biso   1.000  H
  H196     1.0000 0.78280  0.87081  0.99067  Biso   1.000  H
  H197     1.0000 0.03055  0.28473  0.63848  Biso   1.000  H
  H198     1.0000 0.35475  0.49571  0.20782  Biso   1.000  H
  H199     1.0000 0.24308  0.36542  0.47393  Biso   1.000  H
  H200     1.0000 0.00703  0.79192  0.84317  Biso   1.000  H
  H201     1.0000 0.64198  0.00763  0.25185  Biso   1.000  H
  H202     1.0000 0.75170  0.37109  0.99577  Biso   1.000  H
  H203     1.0000 0.47990  0.78676  0.63408  Biso   1.000  H
  H204     1.0000 0.15165  0.01150  0.22515  Biso   1.000  H
  H205     1.0000 0.73947  0.15413  0.48179  Biso   1.000  H
  H206     1.0000 0.50635  0.73538  0.13120  Biso   1.000  H
  H207     1.0000 0.17594  0.49587  0.71169  Biso   1.000  H
  H208     1.0000 0.23996  0.15695  0.97591  Biso   1.000  H
  H209     1.0000 0.98039  0.72794  0.34946  Biso   1.000  H
  H210     1.0000 0.67628  0.52411  0.77144  Biso   1.000  H
  H211     1.0000 0.77305  0.65752  0.51049  Biso   1.000  H
  H212     1.0000 0.98248  0.23314  0.13447  Biso   1.000  H
  H213     1.0000 0.38021  0.03577  0.72944  Biso   1.000  H
  H214     1.0000 0.28135  0.65799  0.99418  Biso   1.000  H
  H215     1.0000 0.52434  0.23136  0.35189  Biso   1.000  H
  H216     1.0000 0.87897  0.02322  0.75096  Biso   1.000  H
  H217     1.0000 0.23346  0.52828  0.33161  Biso   1.000  H
  H218     1.0000 0.36928  0.23931  0.48919  Biso   1.000  H
  H219     1.0000 0.49700  0.36063  0.22295  Biso   1.000  H
  H220     1.0000 0.73466  0.51800  0.14970  Biso   1.000  H
  H221     1.0000 0.87710  0.24232  0.96044  Biso   1.000  H
  H222     1.0000 0.99177  0.35855  0.25917  Biso   1.000  H
  H223     1.0000 0.28114  0.03583  0.36069  Biso   1.000  H
  H224     1.0000 0.15098  0.73572  0.49856  Biso   1.000  H
  H225     1.0000 0.01025  0.85705  0.22222  Biso   1.000  H
  H226     1.0000 0.77920  0.99832  0.12373  Biso   1.000  H
  H227     1.0000 0.65321  0.74187  0.99273  Biso   1.000  H
  H228     1.0000 0.50612  0.85698  0.25719  Biso   1.000  H
  H229     1.0000 0.79977  0.48673  0.65288  Biso   1.000  H
  H230     1.0000 0.64954  0.78515  0.52959  Biso   1.000  H
  H231     1.0000 0.52862  0.65140  0.76082  Biso   1.000  H
  H232     1.0000 0.29054  0.51134  0.83975  Biso   1.000  H
  H233     1.0000 0.15621  0.78334  0.99196  Biso   1.000  H
  H234     1.0000 0.02231  0.65723  0.72383  Biso   1.000  H
  H235     1.0000 0.74418  0.01798  0.62223  Biso   1.000  H
  H236     1.0000 0.86873  0.28401  0.49459  Biso   1.000  H
  H237     1.0000 0.00335  0.16151  0.76403  Biso   1.000  H
  H238     1.0000 0.24761  0.02387  0.85156  Biso   1.000  H
  H239     1.0000 0.37708  0.28386  0.97614  Biso   1.000  H
  H240     1.0000 0.51485  0.15496  0.72937  Biso   1.000  H
  H241     1.0000 0.75631  0.52631  0.86217  Biso   1.000  H
  H242     1.0000 0.86428  0.74162  0.51053  Biso   1.000  H
  H243     1.0000 0.49381  0.86431  0.72310  Biso   1.000  H
  H244     1.0000 0.25263  0.50586  0.61601  Biso   1.000  H
  H245     1.0000 0.36640  0.74149  0.99131  Biso   1.000  H
  H246     1.0000 0.03671  0.87285  0.75853  Biso   1.000  H
  H247     1.0000 0.78813  0.03121  0.83536  Biso   1.000  H
  H248     1.0000 0.65004  0.23845  0.50318  Biso   1.000  H
  H249     1.0000 0.02440  0.37169  0.72107  Biso   1.000  H
  H250     1.0000 0.28995  0.02386  0.64534  Biso   1.000  H
  H251     1.0000 0.15510  0.24278  0.99647  Biso   1.000  H
  H252     1.0000 0.52507  0.36878  0.76417  Biso   1.000  H
  H253     1.0000 0.27397  0.51602  0.12447  Biso   1.000  H
  H254     1.0000 0.15246  0.28472  0.50548  Biso   1.000  H
  H255     1.0000 0.48720  0.14798  0.27013  Biso   1.000  H
  H256     1.0000 0.77294  0.50942  0.36306  Biso   1.000  H
  H257     1.0000 0.66080  0.28099  0.99513  Biso   1.000  H
  H258     1.0000 0.98162  0.14485  0.21712  Biso   1.000  H
  H259     1.0000 0.23664  0.02498  0.14208  Biso   1.000  H
  H260     1.0000 0.36480  0.78281  0.46795  Biso   1.000  H
  H261     1.0000 0.01337  0.64652  0.26463  Biso   1.000  H
  H262     1.0000 0.73222  0.00102  0.33714  Biso   1.000  H
  H263     1.0000 0.86325  0.78391  0.99653  Biso   1.000  H
  H264     1.0000 0.51680  0.64674  0.21544  Biso   1.000  H
  H265     1.0000 0.02686  0.24268  0.84945  Biso   1.000  H
  H266     1.0000 0.85818  0.98778  0.20993  Biso   1.000  H
  H267     1.0000 0.24666  0.87055  0.99715  Biso   1.000  H
  H268     1.0000 0.49928  0.24100  0.64047  Biso   1.000  H
  H269     1.0000 0.36052  0.01665  0.27020  Biso   1.000  H
  H270     1.0000 0.73884  0.86749  0.50293  Biso   1.000  H
  H271     1.0000 0.50244  0.73665  0.84209  Biso   1.000  H
  H272     1.0000 0.64343  0.50141  0.22929  Biso   1.000  H
  H273     1.0000 0.28788  0.37063  0.97954  Biso   1.000  H
  H274     1.0000 0.03246  0.73802  0.63852  Biso   1.000  H
  H275     1.0000 0.14641  0.50882  0.25382  Biso   1.000  H
  H276     1.0000 0.78732  0.37080  0.47728  Biso   1.000  H
  H277     1.0000 0.00892  0.77451  0.13408  Biso   1.000  H
  H278     1.0000 0.16080  0.04324  0.76794  Biso   1.000  H
  H279     1.0000 0.78840  0.15738  0.99202  Biso   1.000  H
  H280     1.0000 0.51170  0.76978  0.34801  Biso   1.000  H
  H281     1.0000 0.66947  0.99511  0.71646  Biso   1.000  H
  H282     1.0000 0.28473  0.15285  0.49667  Biso   1.000  H
  H283     1.0000 0.51222  0.27707  0.13711  Biso   1.000  H
  H284     1.0000 0.38133  0.52201  0.75508  Biso   1.000  H
  H285     1.0000 0.73863  0.65786  0.98618  Biso   1.000  H
  H286     1.0000 0.00707  0.27417  0.35137  Biso   1.000  H
  H287     1.0000 0.88615  0.51925  0.73188  Biso   1.000  H
  H288     1.0000 0.24070  0.65430  0.48327  Biso   1.000  H
  H289     1.0000 0.10094  0.24240  0.00348  Biso   1.000  H
  H290     1.0000 0.98891  0.08912  0.21571  Biso   1.000  H
  H291     1.0000 0.23533  0.03170  0.08585  Biso   1.000  H
  H292     1.0000 0.59946  0.23632  0.51170  Biso   1.000  H
  H293     1.0000 0.48807  0.09554  0.26930  Biso   1.000  H
  H294     1.0000 0.73520  0.00685  0.38966  Biso   1.000  H
  H295     1.0000 0.41890  0.73936  0.98220  Biso   1.000  H
  H296     1.0000 0.51988  0.59575  0.21342  Biso   1.000  H
  H297     1.0000 0.27609  0.52047  0.07167  Biso   1.000  H
  H298     1.0000 0.91757  0.73992  0.50969  Biso   1.000  H
  H299     1.0000 0.01916  0.59451  0.26570  Biso   1.000  H
  H300     1.0000 0.77742  0.52234  0.41529  Biso   1.000  H
  H301     1.0000 0.91864  0.78333  0.00113  Biso   1.000  H
  H302     1.0000 0.04304  0.92631  0.75796  Biso   1.000  H
  H303     1.0000 0.78975  0.03529  0.88891  Biso   1.000  H
  H304     1.0000 0.42028  0.78301  0.47071  Biso   1.000  H
  H305     1.0000 0.50000  0.92100  0.72423  Biso   1.000  H
  H306     1.0000 0.29256  0.02295  0.59211  Biso   1.000  H
  H307     1.0000 0.60915  0.28533  0.98523  Biso   1.000  H
  H308     1.0000 0.52069  0.42070  0.76248  Biso   1.000  H
  H309     1.0000 0.75181  0.51909  0.91686  Biso   1.000  H
  H310     1.0000 0.10213  0.28816  0.50491  Biso   1.000  H
  H311     1.0000 0.02015  0.42108  0.71924  Biso   1.000  H
  H312     1.0000 0.24595  0.50455  0.56537  Biso   1.000  H
  H313     1.0000 0.24688  0.01761  0.90486  Biso   1.000  H
  H314     1.0000 0.92955  0.23972  0.95869  Biso   1.000  H
  H315     1.0000 0.00892  0.91432  0.22122  Biso   1.000  H
  H316     1.0000 0.73923  0.01950  0.56898  Biso   1.000  H
  H317     1.0000 0.42432  0.23935  0.48549  Biso   1.000  H
  H318     1.0000 0.50437  0.91331  0.25999  Biso   1.000  H
  H319     1.0000 0.28794  0.50276  0.88884  Biso   1.000  H
  H320     1.0000 0.59837  0.73915  0.98666  Biso   1.000  H
  H321     1.0000 0.49328  0.41541  0.22293  Biso   1.000  H
  H322     1.0000 0.79497  0.48526  0.59892  Biso   1.000  H
  H323     1.0000 0.09478  0.73330  0.49398  Biso   1.000  H
  H324     1.0000 0.99147  0.41379  0.26148  Biso   1.000  H
  H325     1.0000 0.78295  0.99528  0.06545  Biso   1.000  H
  H326     1.0000 0.10445  0.78526  0.99021  Biso   1.000  H
  H327     1.0000 0.00252  0.10673  0.76499  Biso   1.000  H
  H328     1.0000 0.28266  0.03413  0.41321  Biso   1.000  H
  H329     1.0000 0.59745  0.78614  0.52860  Biso   1.000  H
  H330     1.0000 0.51754  0.09977  0.72783  Biso   1.000  H
  H331     1.0000 0.73748  0.52356  0.09699  Biso   1.000  H
  H332     1.0000 0.43323  0.28807  0.98122  Biso   1.000  H
  H333     1.0000 0.54292  0.60070  0.76179  Biso   1.000  H
  H334     1.0000 0.23576  0.52729  0.38703  Biso   1.000  H
  H335     1.0000 0.92070  0.28384  0.50309  Biso   1.000  H
  H336     1.0000 0.02931  0.60339  0.72562  Biso   1.000  H
  H337     1.0000 0.03723  0.23855  0.90442  Biso   1.000  H
  H338     1.0000 0.91179  0.99103  0.21312  Biso   1.000  H
  H339     1.0000 0.24480  0.92077  0.00348  Biso   1.000  H
  H340     1.0000 0.50418  0.23677  0.58530  Biso   1.000  H
  H341     1.0000 0.41499  0.00424  0.26757  Biso   1.000  H
  H342     1.0000 0.73520  0.91929  0.48848  Biso   1.000  H
  H343     1.0000 0.49840  0.73686  0.89510  Biso   1.000  H
  H344     1.0000 0.58740  0.49567  0.22245  Biso   1.000  H
  H345     1.0000 0.29009  0.42290  0.98632  Biso   1.000  H
  H346     1.0000 0.02657  0.73861  0.58602  Biso   1.000  H
  H347     1.0000 0.08845  0.50587  0.25674  Biso   1.000  H
  H348     1.0000 0.78696  0.42466  0.47601  Biso   1.000  H
  H349     1.0000 0.00727  0.78009  0.08187  Biso   1.000  H
  H350     1.0000 0.10838  0.03302  0.76700  Biso   1.000  H
  H351     1.0000 0.78795  0.10557  0.99373  Biso   1.000  H
  H352     1.0000 0.51380  0.77166  0.39911  Biso   1.000  H
  H353     1.0000 0.61312  0.99506  0.72045  Biso   1.000  H
  H354     1.0000 0.28264  0.10074  0.49658  Biso   1.000  H
  H355     1.0000 0.52391  0.28365  0.08375  Biso   1.000  H
  H356     1.0000 0.43704  0.51966  0.75845  Biso   1.000  H
  H357     1.0000 0.73902  0.60130  0.98555  Biso   1.000  H
  H358     1.0000 0.00762  0.27867  0.40418  Biso   1.000  H
  H359     1.0000 0.93948  0.52386  0.72581  Biso   1.000  H
  H360     1.0000 0.24290  0.60059  0.48035  Biso   1.000  H
  H361     1.0000 0.97782  0.72601  0.40308  Biso   1.000  H
  H362     1.0000 0.43148  0.02688  0.72981  Biso   1.000  H
  H363     1.0000 0.75113  0.42031  0.99562  Biso   1.000  H
  H364     1.0000 0.50817  0.73793  0.07754  Biso   1.000  H
  H365     1.0000 0.93302  0.01984  0.75610  Biso   1.000  H
  H366     1.0000 0.24154  0.41981  0.46316  Biso   1.000  H
  H367     1.0000 0.52468  0.23302  0.40369  Biso   1.000  H
  H368     1.0000 0.12227  0.49256  0.71676  Biso   1.000  H
  H369     1.0000 0.78334  0.92308  0.98412  Biso   1.000  H
  H370     1.0000 0.99281  0.23673  0.07983  Biso   1.000  H
  H371     1.0000 0.62441  0.51430  0.76689  Biso   1.000  H
  H372     1.0000 0.28211  0.92178  0.49084  Biso   1.000  H
  H373     1.0000 0.03180  0.28324  0.58324  Biso   1.000  H
  H374     1.0000 0.58882  0.01177  0.25711  Biso   1.000  H
  H375     1.0000 0.27839  0.60416  0.99043  Biso   1.000  H
  H376     1.0000 0.51951  0.28439  0.91173  Biso   1.000  H
  H377     1.0000 0.09556  0.00463  0.22047  Biso   1.000  H
  H378     1.0000 0.77328  0.60235  0.50774  Biso   1.000  H
  H379     1.0000 0.48737  0.78524  0.58241  Biso   1.000  H
  H380     1.0000 0.90824  0.49580  0.27212  Biso   1.000  H
  H381     1.0000 0.23802  0.10570  0.97908  Biso   1.000  H
  H382     1.0000 0.01364  0.79030  0.89975  Biso   1.000  H
  H383     1.0000 0.41182  0.50299  0.21068  Biso   1.000  H
  H384     1.0000 0.73646  0.10222  0.47255  Biso   1.000  H
  H385     1.0000 0.22823  0.48386  0.30765  Biso   1.000  H
  H386     1.0000 0.28548  0.18506  0.46500  Biso   1.000  H
  H387     1.0000 0.46599  0.32766  0.21376  Biso   1.000  H
  H388     1.0000 0.67973  0.46714  0.21888  Biso   1.000  H
  H389     1.0000 0.85099  0.24486  0.99093  Biso   1.000  H
  H390     1.0000 0.97444  0.27418  0.32128  Biso   1.000  H
  H391     1.0000 0.27965  0.98362  0.32989  Biso   1.000  H
  H392     1.0000 0.18316  0.72931  0.45268  Biso   1.000  H
  H393     1.0000 0.97487  0.78354  0.16529  Biso   1.000  H
  H394     1.0000 0.78103  0.96087  0.15119  Biso   1.000  H
  H395     1.0000 0.73262  0.68649  0.03174  Biso   1.000  H
  H396     1.0000 0.54166  0.83085  0.26354  Biso   1.000  H
  H397     1.0000 0.80033  0.52994  0.67021  Biso   1.000  H
  H398     1.0000 0.73262  0.84390  0.53880  Biso   1.000  H
  H399     1.0000 0.55449  0.69535  0.76608  Biso   1.000  H
  H400     1.0000 0.34911  0.55075  0.76040  Biso   1.000  H
  H401     1.0000 0.23989  0.84123  0.96417  Biso   1.000  H
  H402     1.0000 0.06678  0.69146  0.71458  Biso   1.000  H
  H403     1.0000 0.75036  0.98792  0.65621  Biso   1.000  H
  H404     1.0000 0.78025  0.34554  0.50721  Biso   1.000  H
  H405     1.0000 0.99068  0.24786  0.82007  Biso   1.000  H
  H406     1.0000 0.24318  0.06016  0.82112  Biso   1.000  H
  H407     1.0000 0.28922  0.33548  0.94569  Biso   1.000  H
  H408     1.0000 0.48518  0.18129  0.72610  Biso   1.000  H
  H409     1.0000 0.27202  0.47749  0.15065  Biso   1.000  H
  H410     1.0000 0.18211  0.28446  0.47083  Biso   1.000  H
  H411     1.0000 0.48164  0.23128  0.32849  Biso   1.000  H
  H412     1.0000 0.82124  0.46848  0.28331  Biso   1.000  H
  H413     1.0000 0.69406  0.29339  0.95425  Biso   1.000  H
  H414     1.0000 0.95631  0.22955  0.16544  Biso   1.000  H
  H415     1.0000 0.18329  0.97232  0.22021  Biso   1.000  H
  H416     1.0000 0.32091  0.79219  0.44517  Biso   1.000  H
  H417     1.0000 0.98107  0.67458  0.26181  Biso   1.000  H
  H418     1.0000 0.72728  0.96925  0.30892  Biso   1.000  H
  H419     1.0000 0.83702  0.79160  0.03025  Biso   1.000  H
  H420     1.0000 0.48240  0.67513  0.21096  Biso   1.000  H
  H421     1.0000 0.75380  0.55541  0.82176  Biso   1.000  H
  H422     1.0000 0.77525  0.68255  0.54732  Biso   1.000  H
  H423     1.0000 0.51927  0.78563  0.65489  Biso   1.000  H
  H424     1.0000 0.19829  0.53772  0.70405  Biso   1.000  H
  H425     1.0000 0.33730  0.73264  0.95945  Biso   1.000  H
  H426     1.0000 0.05394  0.79117  0.81658  Biso   1.000  H
  H427     1.0000 0.79229  0.05859  0.80319  Biso   1.000  H
  H428     1.0000 0.74369  0.18105  0.51783  Biso   1.000  H
  H429     1.0000 0.05319  0.34272  0.71982  Biso   1.000  H
  H430     1.0000 0.34589  0.00245  0.73310  Biso   1.000  H
  H431     1.0000 0.18251  0.24487  0.96543  Biso   1.000  H
  H432     1.0000 0.48349  0.29128  0.82248  Biso   1.000  H
  H433     1.0000 0.29490  0.05781  0.66786  Biso   1.000  H
  H434     1.0000 0.74827  0.33562  0.01974  Biso   1.000  H
  H435     1.0000 0.02051  0.73357  0.32673  Biso   1.000  H
  H436     1.0000 0.84314  0.99044  0.76089  Biso   1.000  H
  H437     1.0000 0.24637  0.34239  0.50993  Biso   1.000  H
  H438     1.0000 0.54572  0.73049  0.16064  Biso   1.000  H
  H439     1.0000 0.25342  0.47950  0.65301  Biso   1.000  H
  H440     1.0000 0.78849  0.83647  0.96162  Biso   1.000  H
  H441     1.0000 0.52198  0.17513  0.26616  Biso   1.000  H
  H442     1.0000 0.70366  0.48458  0.78043  Biso   1.000  H
  H443     1.0000 0.28907  0.83278  0.52536  Biso   1.000  H
  H444     1.0000 0.01347  0.17332  0.21720  Biso   1.000  H
  H445     1.0000 0.67969  0.03170  0.25264  Biso   1.000  H
  H446     1.0000 0.29519  0.69388  0.03526  Biso   1.000  H
  H447     1.0000 0.00219  0.28440  0.66419  Biso   1.000  H
  H448     1.0000 0.22803  0.04752  0.17930  Biso   1.000  H
  H449     1.0000 0.82800  0.73888  0.48687  Biso   1.000  H
  H450     1.0000 0.55526  0.33363  0.77115  Biso   1.000  H
  H451     1.0000 0.77523  0.54007  0.33206  Biso   1.000  H
  H452     1.0000 0.24188  0.18459  0.01759  Biso   1.000  H
  H453     1.0000 0.46249  0.83033  0.71944  Biso   1.000  H
  H454     1.0000 0.32947  0.53644  0.20306  Biso   1.000  H
  H455     1.0000 0.67861  0.24052  0.47207  Biso   1.000  H
  H456     1.0000 0.99644  0.84138  0.75916  Biso   1.000  H
  H457     1.0000 0.67782  0.78353  0.49191  Biso   1.000  H
  H458     1.0000 0.47104  0.71890  0.81096  Biso   1.000  H
  H459     1.0000 0.85745  0.48405  0.73198  Biso   1.000  H
  H460     1.0000 0.18969  0.79014  0.02993  Biso   1.000  H
  H461     1.0000 0.98996  0.72693  0.67090  Biso   1.000  H
  H462     1.0000 0.29862  0.47815  0.80235  Biso   1.000  H
  H463     1.0000 0.83769  0.28193  0.46393  Biso   1.000  H
  H464     1.0000 0.04243  0.18467  0.77215  Biso   1.000  H
  H465     1.0000 0.68692  0.03605  0.71316  Biso   1.000  H
  H466     1.0000 0.34209  0.29016  0.01229  Biso   1.000  H
  H467     1.0000 0.53135  0.24249  0.66531  Biso   1.000  H
  H468     1.0000 0.19121  0.99879  0.76644  Biso   1.000  H
  H469     1.0000 0.34217  0.23219  0.52196  Biso   1.000  H
  H470     1.0000 0.53470  0.28399  0.17118  Biso   1.000  H
  H471     1.0000 0.17500  0.54444  0.25021  Biso   1.000  H
  H472     1.0000 0.78251  0.18237  0.95704  Biso   1.000  H
  H473     1.0000 0.02485  0.33134  0.26025  Biso   1.000  H
  H474     1.0000 0.72204  0.54492  0.18416  Biso   1.000  H
  H475     1.0000 0.23198  0.68964  0.52494  Biso   1.000  H
  H476     1.0000 0.03836  0.82993  0.21807  Biso   1.000  H
  H477     1.0000 0.32794  0.05237  0.27498  Biso   1.000  H
  H478     1.0000 0.69079  0.73356  0.96053  Biso   1.000  H
  H479     1.0000 0.47428  0.77619  0.31084  Biso   1.000  H
  H480     1.0000 0.82788  0.02538  0.20769  Biso   1.000  H
  N1       1.0000 0.68700  0.18550  0.49661  Biso   1.000  N
  N2       1.0000 0.51654  0.68081  0.16155  Biso   1.000  N
  N3       1.0000 0.20284  0.49996  0.65597  Biso   1.000  N
  N4       1.0000 0.18657  0.18892  0.99319  Biso   1.000  N
  N5       1.0000 0.00160  0.67905  0.31738  Biso   1.000  N
  N6       1.0000 0.70381  0.52164  0.82595  Biso   1.000  N
  N7       1.0000 0.82802  0.68885  0.51391  Biso   1.000  N
  N8       1.0000 0.98449  0.17991  0.16517  Biso   1.000  N
  N9       1.0000 0.34606  0.02622  0.67706  Biso   1.000  N
  N10      1.0000 0.33449  0.68954  0.99468  Biso   1.000  N
  N11      1.0000 0.50410  0.17921  0.32093  Biso   1.000  N
  N12      1.0000 0.84412  0.02713  0.80346  Biso   1.000  N
  N13      1.0000 0.33116  0.83546  0.48402  Biso   1.000  N
  N14      1.0000 0.52268  0.33507  0.81873  Biso   1.000  N
  N15      1.0000 0.82401  0.50495  0.32669  Biso   1.000  N
  N16      1.0000 0.83569  0.83861  0.99577  Biso   1.000  N
  N17      1.0000 0.02960  0.33698  0.66879  Biso   1.000  N
  N18      1.0000 0.32538  0.50403  0.15570  Biso   1.000  N
  N19      1.0000 0.19031  0.33465  0.48835  Biso   1.000  N
  N20      1.0000 0.02420  0.84117  0.81262  Biso   1.000  N
  N21      1.0000 0.67941  0.00615  0.30435  Biso   1.000  N
  N22      1.0000 0.69698  0.33419  0.99137  Biso   1.000  N
  N23      1.0000 0.49240  0.83609  0.66708  Biso   1.000  N
  N24      1.0000 0.18454  0.01196  0.17451  Biso   1.000  N
  N25      1.0000 0.85084  0.50997  0.67924  Biso   1.000  N
  N26      1.0000 0.68398  0.83518  0.51108  Biso   1.000  N
  N27      1.0000 0.51815  0.68367  0.81222  Biso   1.000  N
  N28      1.0000 0.34750  0.51481  0.80649  Biso   1.000  N
  N29      1.0000 0.19023  0.83646  0.99422  Biso   1.000  N
  N30      1.0000 0.02980  0.68716  0.67082  Biso   1.000  N
  N31      1.0000 0.69341  0.00677  0.65994  Biso   1.000  N
  N32      1.0000 0.83644  0.33695  0.48797  Biso   1.000  N
  N33      1.0000 0.01417  0.19309  0.81890  Biso   1.000  N
  N34      1.0000 0.19507  0.02716  0.81772  Biso   1.000  N
  N35      1.0000 0.34265  0.33674  0.97739  Biso   1.000  N
  N36      1.0000 0.50765  0.18805  0.67505  Biso   1.000  N
  N37      1.0000 0.17912  0.51272  0.30371  Biso   1.000  N
  N38      1.0000 0.33658  0.18570  0.49513  Biso   1.000  N
  N39      1.0000 0.50182  0.32894  0.17091  Biso   1.000  N
  N40      1.0000 0.67986  0.50562  0.17750  Biso   1.000  N
  N41      1.0000 0.84179  0.19017  0.97582  Biso   1.000  N
  N42      1.0000 0.00064  0.32603  0.31456  Biso   1.000  N
  N43      1.0000 0.33058  0.01766  0.32493  Biso   1.000  N
  N44      1.0000 0.18616  0.68411  0.49100  Biso   1.000  N
  N45      1.0000 0.01103  0.82899  0.16794  Biso   1.000  N
  N46      1.0000 0.82798  0.99576  0.15536  Biso   1.000  N
  N47      1.0000 0.68663  0.68902  0.99606  Biso   1.000  N
  N48      1.0000 0.50974  0.82484  0.31156  Biso   1.000  N
  O1       1.0000 0.35393  0.55647  0.98403  Biso   1.000  O
  O2       1.0000 0.01526  0.35468  0.53256  Biso   1.000  O
  O3       1.0000 0.54626  0.00665  0.33311  Biso   1.000  O
  O4       1.0000 0.84862  0.55782  0.50502  Biso   1.000  O
  O5       1.0000 0.52030  0.35935  0.95210  Biso   1.000  O
  O6       1.0000 0.04773  0.00148  0.15031  Biso   1.000  O
  O7       1.0000 0.16523  0.05206  0.98854  Biso   1.000  O
  O8       1.0000 0.50484  0.85381  0.52935  Biso   1.000  O
  O9       1.0000 0.96177  0.50218  0.33808  Biso   1.000  O
  O10      1.0000 0.66664  0.05002  0.48051  Biso   1.000  O
  O11      1.0000 0.01344  0.85829  0.94896  Biso   1.000  O
  O12      1.0000 0.46186  0.50727  0.14555  Biso   1.000  O
  O13      1.0000 0.67533  0.46765  0.99878  Biso   1.000  O
  O14      1.0000 0.00072  0.66341  0.45488  Biso   1.000  O
  O15      1.0000 0.47784  0.00910  0.65433  Biso   1.000  O
  O16      1.0000 0.17167  0.46480  0.47922  Biso   1.000  O
  O17      1.0000 0.51180  0.66776  0.02748  Biso   1.000  O
  O18      1.0000 0.97425  0.01047  0.83095  Biso   1.000  O
  O19      1.0000 0.85920  0.97112  0.97375  Biso   1.000  O
  O20      1.0000 0.50959  0.16394  0.45643  Biso   1.000  O
  O21      1.0000 0.06889  0.50626  0.64873  Biso   1.000  O
  O22      1.0000 0.35855  0.96660  0.49818  Biso   1.000  O
  O23      1.0000 0.99945  0.16626  0.02993  Biso   1.000  O
  O24      1.0000 0.56599  0.50894  0.83892  Biso   1.000  O
  O25      1.0000 0.96439  0.00005  0.14279  Biso   1.000  O
  O26      1.0000 0.17222  0.96912  0.99897  Biso   1.000  O
  O27      1.0000 0.02941  0.16849  0.95148  Biso   1.000  O
  O28      1.0000 0.46320  0.99316  0.33974  Biso   1.000  O
  O29      1.0000 0.66283  0.96729  0.47751  Biso   1.000  O
  O30      1.0000 0.51254  0.16448  0.54041  Biso   1.000  O
  O31      1.0000 0.54464  0.50201  0.14925  Biso   1.000  O
  O32      1.0000 0.36191  0.47445  0.98587  Biso   1.000  O
  O33      1.0000 0.51100  0.66555  0.94598  Biso   1.000  O
  O34      1.0000 0.04596  0.49668  0.33159  Biso   1.000  O
  O35      1.0000 0.85706  0.47479  0.49586  Biso   1.000  O
  O36      1.0000 0.01636  0.66477  0.53768  Biso   1.000  O
  O37      1.0000 0.05684  0.02267  0.83666  Biso   1.000  O
  O38      1.0000 0.86176  0.05513  0.98705  Biso   1.000  O
  O39      1.0000 0.01454  0.85042  0.03357  Biso   1.000  O
  O40      1.0000 0.56134  0.00841  0.65457  Biso   1.000  O
  O41      1.0000 0.35472  0.05107  0.49796  Biso   1.000  O
  O42      1.0000 0.51367  0.84770  0.44403  Biso   1.000  O
  O43      1.0000 0.48298  0.52065  0.83137  Biso   1.000  O
  O44      1.0000 0.66877  0.55417  0.00449  Biso   1.000  O
  O45      1.0000 0.52010  0.35670  0.03659  Biso   1.000  O
  O46      1.0000 0.98442  0.51823  0.65169  Biso   1.000  O
  O47      1.0000 0.16915  0.54695  0.48736  Biso   1.000  O
  O48      1.0000 0.00652  0.35095  0.44752  Biso   1.000  O
  O49      1.0000 0.00637  0.96296  0.15117  Biso   1.000  O
  O50      1.0000 0.17280  0.00516  0.95323  Biso   1.000  O
  O51      1.0000 0.97569  0.16785  0.97461  Biso   1.000  O
  O52      1.0000 0.51220  0.95795  0.33343  Biso   1.000  O
  O53      1.0000 0.66402  0.00706  0.52593  Biso   1.000  O
  O54      1.0000 0.46877  0.16937  0.49776  Biso   1.000  O
  O55      1.0000 0.49897  0.46218  0.14761  Biso   1.000  O
  O56      1.0000 0.35987  0.51342  0.94208  Biso   1.000  O
  O57      1.0000 0.55227  0.66638  0.98976  Biso   1.000  O
  O58      1.0000 0.00220  0.46039  0.33097  Biso   1.000  O
  O59      1.0000 0.85812  0.51271  0.54358  Biso   1.000  O
  O60      1.0000 0.04924  0.65920  0.48713  Biso   1.000  O
  O61      1.0000 0.00905  0.05943  0.83482  Biso   1.000  O
  O62      1.0000 0.85637  0.00846  0.02149  Biso   1.000  O
  O63      1.0000 0.05657  0.85696  0.98822  Biso   1.000  O
  O64      1.0000 0.52006  0.05543  0.65559  Biso   1.000  O
  O65      1.0000 0.35584  0.01385  0.45918  Biso   1.000  O
  O66      1.0000 0.55106  0.85162  0.48904  Biso   1.000  O
  O67      1.0000 0.52904  0.55175  0.83574  Biso   1.000  O
  O68      1.0000 0.66982  0.50414  0.04276  Biso   1.000  O
  O69      1.0000 0.47665  0.35892  0.99440  Biso   1.000  O
  O70      1.0000 0.03578  0.55514  0.65117  Biso   1.000  O
  O71      1.0000 0.16637  0.51283  0.44025  Biso   1.000  O
  O72      1.0000 0.97014  0.35612  0.49195  Biso   1.000  O
  O73      1.0000 0.01771  0.47197  0.64664  Biso   1.000  O
  O74      1.0000 0.66224  0.00933  0.43973  Biso   1.000  O
  O75      1.0000 0.46751  0.66841  0.98858  Biso   1.000  O
  O76      1.0000 0.51583  0.46993  0.83524  Biso   1.000  O
  O77      1.0000 0.16475  0.01577  0.03527  Biso   1.000  O
  O78      1.0000 0.96450  0.66320  0.50940  Biso   1.000  O
  O79      1.0000 0.51829  0.97020  0.65243  Biso   1.000  O
  O80      1.0000 0.85285  0.52464  0.45809  Biso   1.000  O
  O81      1.0000 0.05180  0.16809  0.00511  Biso   1.000  O
  O82      1.0000 0.02471  0.97424  0.83390  Biso   1.000  O
  O83      1.0000 0.34748  0.51501  0.02356  Biso   1.000  O
  O84      1.0000 0.55307  0.16013  0.50264  Biso   1.000  O
  O85      1.0000 0.01273  0.54294  0.33672  Biso   1.000  O
  O86      1.0000 0.36124  0.00933  0.54358  Biso   1.000  O
  O87      1.0000 0.56115  0.35731  0.99391  Biso   1.000  O
  O88      1.0000 0.50908  0.54557  0.14385  Biso   1.000  O
  O89      1.0000 0.85929  0.02181  0.94098  Biso   1.000  O
  O90      1.0000 0.05429  0.35671  0.48644  Biso   1.000  O
  O91      1.0000 0.50196  0.04314  0.34002  Biso   1.000  O
  O92      1.0000 0.16691  0.50370  0.52442  Biso   1.000  O
  O93      1.0000 0.97235  0.85234  0.99055  Biso   1.000  O
  O94      1.0000 0.00494  0.04779  0.14411  Biso   1.000  O
  O95      1.0000 0.67513  0.51093  0.96016  Biso   1.000  O
  O96      1.0000 0.46854  0.85632  0.48437  Biso   1.000  O
  O97      1.0000 0.47227  0.21745  0.49787  Biso   1.000  O
  O98      1.0000 0.49335  0.46567  0.19656  Biso   1.000  O
  O99      1.0000 0.21590  0.51170  0.43694  Biso   1.000  O
  O100     1.0000 0.97558  0.21574  0.97726  Biso   1.000  O
  O101     1.0000 1.00000  0.46107  0.28204  Biso   1.000  O
  O102     1.0000 0.71648  0.51842  0.04464  Biso   1.000  O
  O103     1.0000 0.04790  0.70789  0.48968  Biso   1.000  O
  O104     1.0000 0.00450  0.96111  0.20084  Biso   1.000  O
  O105     1.0000 0.30700  0.00529  0.45927  Biso   1.000  O
  O106     1.0000 0.55168  0.71486  0.98283  Biso   1.000  O
  O107     1.0000 0.51094  0.96240  0.28481  Biso   1.000  O
  O108     1.0000 0.80738  0.01096  0.02097  Biso   1.000  O
  O109     1.0000 0.54862  0.80473  0.50261  Biso   1.000  O
  O110     1.0000 0.53535  0.55129  0.78688  Biso   1.000  O
  O111     1.0000 0.81316  0.49807  0.54578  Biso   1.000  O
  O112     1.0000 0.05605  0.80833  0.98633  Biso   1.000  O
  O113     1.0000 0.03327  0.55134  0.69985  Biso   1.000  O
  O114     1.0000 0.31204  0.50993  0.93919  Biso   1.000  O
  O115     1.0000 0.97061  0.30764  0.49860  Biso   1.000  O
  O116     1.0000 0.00977  0.06000  0.78635  Biso   1.000  O
  O117     1.0000 0.71255  0.01339  0.52310  Biso   1.000  O
  O118     1.0000 0.47671  0.31120  0.98892  Biso   1.000  O
  O119     1.0000 0.51969  0.05113  0.70406  Biso   1.000  O
  O120     1.0000 0.22238  0.01138  0.95221  Biso   1.000  O
  O121     1.0000 0.06850  0.50067  0.69706  Biso   1.000  O
  O122     1.0000 0.71571  0.05285  0.48106  Biso   1.000  O
  O123     1.0000 0.51554  0.71547  0.02671  Biso   1.000  O
  O124     1.0000 0.56957  0.50359  0.79140  Biso   1.000  O
  O125     1.0000 0.21471  0.05513  0.98988  Biso   1.000  O
  O126     1.0000 0.00178  0.71206  0.45248  Biso   1.000  O
  O127     1.0000 0.47958  0.00887  0.70441  Biso   1.000  O
  O128     1.0000 0.80261  0.55081  0.51736  Biso   1.000  O
  O129     1.0000 0.00099  0.21429  0.02847  Biso   1.000  O
  O130     1.0000 0.98096  0.00866  0.78286  Biso   1.000  O
  O131     1.0000 0.30617  0.55481  0.97633  Biso   1.000  O
  O132     1.0000 0.50992  0.21250  0.45305  Biso   1.000  O
  O133     1.0000 0.95857  0.50367  0.28831  Biso   1.000  O
  O134     1.0000 0.30960  0.96707  0.50444  Biso   1.000  O
  O135     1.0000 0.52509  0.31070  0.95493  Biso   1.000  O
  O136     1.0000 0.45819  0.51142  0.19248  Biso   1.000  O
  O137     1.0000 0.81025  0.97211  0.97808  Biso   1.000  O
  O138     1.0000 0.01685  0.30606  0.53510  Biso   1.000  O
  O139     1.0000 0.54265  0.01371  0.28507  Biso   1.000  O
  O140     1.0000 0.21897  0.46584  0.47088  Biso   1.000  O
  O141     1.0000 0.01215  0.80962  0.94617  Biso   1.000  O
  O142     1.0000 0.04787  0.00309  0.19953  Biso   1.000  O
  O143     1.0000 0.72300  0.47354  0.00214  Biso   1.000  O
  O144     1.0000 0.50031  0.80642  0.53423  Biso   1.000  O
  O145     1.0000 0.54254  0.50132  0.19889  Biso   1.000  O
  O146     1.0000 0.21754  0.54876  0.47762  Biso   1.000  O
  O147     1.0000 0.51513  0.21304  0.53940  Biso   1.000  O
  O148     1.0000 0.04096  0.50104  0.28360  Biso   1.000  O
  O149     1.0000 0.71747  0.55731  0.00504  Biso   1.000  O
  O150     1.0000 0.02865  0.21750  0.95147  Biso   1.000  O
  O151     1.0000 0.96268  0.99851  0.18961  Biso   1.000  O
  O152     1.0000 0.30674  0.05123  0.50336  Biso   1.000  O
  O153     1.0000 0.01968  0.71291  0.53444  Biso   1.000  O
  O154     1.0000 0.46086  0.99717  0.29062  Biso   1.000  O
  O155     1.0000 0.81309  0.05614  0.98210  Biso   1.000  O
  O156     1.0000 0.50707  0.71429  0.94443  Biso   1.000  O
  O157     1.0000 0.48520  0.51762  0.78400  Biso   1.000  O
  O158     1.0000 0.80950  0.47114  0.49254  Biso   1.000  O
  O159     1.0000 0.51158  0.79834  0.45102  Biso   1.000  O
  O160     1.0000 0.98691  0.52166  0.70141  Biso   1.000  O
  O161     1.0000 0.31333  0.47160  0.98119  Biso   1.000  O
  O162     1.0000 0.01285  0.80339  0.03077  Biso   1.000  O
  O163     1.0000 0.06001  0.02750  0.78889  Biso   1.000  O
  O164     1.0000 0.71274  0.96910  0.47998  Biso   1.000  O
  O165     1.0000 0.01069  0.30146  0.45229  Biso   1.000  O
  O166     1.0000 0.56459  0.00914  0.70382  Biso   1.000  O
  O167     1.0000 0.21983  0.97313  0.00048  Biso   1.000  O
  O168     1.0000 0.51162  0.30896  0.03604  Biso   1.000  O
  O169     1.0000 0.00122  0.04498  0.19382  Biso   1.000  O
  O170     1.0000 0.21469  0.01967  0.03584  Biso   1.000  O
  O171     1.0000 0.05390  0.21587  0.00561  Biso   1.000  O
  O172     1.0000 0.49545  0.04539  0.29251  Biso   1.000  O
  O173     1.0000 0.71313  0.01845  0.43990  Biso   1.000  O
  O174     1.0000 0.55438  0.20940  0.49354  Biso   1.000  O
  O175     1.0000 0.51016  0.54538  0.19272  Biso   1.000  O
  O176     1.0000 0.29870  0.51808  0.02246  Biso   1.000  O
  O177     1.0000 0.46708  0.71731  0.98754  Biso   1.000  O
  O178     1.0000 0.00067  0.54668  0.29027  Biso   1.000  O
  O179     1.0000 0.80385  0.52341  0.46333  Biso   1.000  O
  O180     1.0000 0.96721  0.71099  0.49958  Biso   1.000  O
  O181     1.0000 0.03192  0.97675  0.78365  Biso   1.000  O
  O182     1.0000 0.81042  0.02023  0.93763  Biso   1.000  O
  O183     1.0000 0.96903  0.80369  0.99149  Biso   1.000  O
  O184     1.0000 0.52055  0.96543  0.70156  Biso   1.000  O
  O185     1.0000 0.31239  0.00869  0.54427  Biso   1.000  O
  O186     1.0000 0.46557  0.80719  0.48702  Biso   1.000  O
  O187     1.0000 0.52000  0.46988  0.78674  Biso   1.000  O
  O188     1.0000 0.72280  0.52272  0.96246  Biso   1.000  O
  O189     1.0000 0.56134  0.30734  0.99894  Biso   1.000  O
  O190     1.0000 0.02041  0.46981  0.69620  Biso   1.000  O
  O191     1.0000 0.21630  0.49994  0.51907  Biso   1.000  O
  O192     1.0000 0.05380  0.30709  0.49157  Biso   1.000  O
