data_image0
_cell_length_a       46.7118
_cell_length_b       46.5053
_cell_length_c       46.5111
_cell_angle_alpha    90
_cell_angle_beta     90
_cell_angle_gamma    90

_symmetry_space_group_name_H-M    "P 1"
_symmetry_int_tables_number       1

loop_
  _symmetry_equiv_pos_as_xyz
  'x, y, z'

loop_
  _atom_site_label
  _atom_site_occupancy
  _atom_site_fract_x
  _atom_site_fract_y
  _atom_site_fract_z
  _atom_site_thermal_displace_type
  _atom_site_B_iso_or_equiv
  _atom_site_type_symbol
  C1       1.0000 0.56984  0.99222  0.33284  Biso   1.000  C
  C2       1.0000 0.34127  0.55296  0.02545  Biso   1.000  C
  C3       1.0000 0.02802  0.31009  0.58291  Biso   1.000  C
  C4       1.0000 0.06265  0.98661  0.20765  Biso   1.000  C
  C5       1.0000 0.84134  0.53865  0.51623  Biso   1.000  C
  C6       1.0000 0.50208  0.31103  0.95161  Biso   1.000  C
  C7       1.0000 0.97322  0.49208  0.33743  Biso   1.000  C
  C8       1.0000 0.19676  0.04827  0.03006  Biso   1.000  C
  C9       1.0000 0.52529  0.81633  0.57920  Biso   1.000  C
  C10      1.0000 0.47695  0.47417  0.19682  Biso   1.000  C
  C11      1.0000 0.70596  0.04552  0.50878  Biso   1.000  C
  C12      1.0000 0.02309  0.81080  0.95477  Biso   1.000  C
  C13      1.0000 0.47372  0.99524  0.70475  Biso   1.000  C
  C14      1.0000 0.69966  0.42485  0.00912  Biso   1.000  C
  C15      1.0000 0.02252  0.66645  0.45890  Biso   1.000  C
  C16      1.0000 0.96918  0.99951  0.84011  Biso   1.000  C
  C17      1.0000 0.21233  0.43526  0.51007  Biso   1.000  C
  C18      1.0000 0.52344  0.66696  0.07920  Biso   1.000  C
  C19      1.0000 0.08100  0.49524  0.69695  Biso   1.000  C
  C20      1.0000 0.83497  0.92855  0.00777  Biso   1.000  C
  C21      1.0000 0.52753  0.17216  0.45751  Biso   1.000  C
  C22      1.0000 0.57724  0.49555  0.83701  Biso   1.000  C
  C23      1.0000 0.33750  0.93219  0.53160  Biso   1.000  C
  C24      1.0000 0.00498  0.16392  0.08916  Biso   1.000  C
  C25      1.0000 0.34458  0.04120  0.53076  Biso   1.000  C
  C26      1.0000 0.50818  0.31300  0.05942  Biso   1.000  C
  C27      1.0000 0.08213  0.47662  0.34113  Biso   1.000  C
  C28      1.0000 0.82740  0.03568  0.00982  Biso   1.000  C
  C29      1.0000 0.03793  0.30535  0.47494  Biso   1.000  C
  C30      1.0000 0.58130  0.48814  0.19279  Biso   1.000  C
  C31      1.0000 0.20740  0.54391  0.52414  Biso   1.000  C
  C32      1.0000 0.01712  0.80515  0.06191  Biso   1.000  C
  C33      1.0000 0.45826  0.98957  0.33769  Biso   1.000  C
  C34      1.0000 0.70754  0.53408  0.01885  Biso   1.000  C
  C35      1.0000 0.52271  0.81261  0.47073  Biso   1.000  C
  C36      1.0000 0.95320  0.97661  0.20279  Biso   1.000  C
  C37      1.0000 0.70737  0.93433  0.51297  Biso   1.000  C
  C38      1.0000 0.53030  0.66892  0.97035  Biso   1.000  C
  C39      1.0000 0.97182  0.49772  0.69988  Biso   1.000  C
  C40      1.0000 0.20017  0.93947  0.03873  Biso   1.000  C
  C41      1.0000 0.01430  0.67367  0.56623  Biso   1.000  C
  C42      1.0000 0.46973  0.49346  0.83423  Biso   1.000  C
  C43      1.0000 0.85045  0.42949  0.51240  Biso   1.000  C
  C44      1.0000 0.00635  0.16954  0.97775  Biso   1.000  C
  C45      1.0000 0.58038  0.99438  0.69348  Biso   1.000  C
  C46      1.0000 0.33559  0.44595  0.01791  Biso   1.000  C
  C47      1.0000 0.52811  0.17297  0.56733  Biso   1.000  C
  C48      1.0000 0.07791  0.99595  0.84147  Biso   1.000  C
  C49      1.0000 0.02366  0.05153  0.84504  Biso   1.000  C
  C50      1.0000 0.83430  0.98158  0.06407  Biso   1.000  C
  C51      1.0000 0.07798  0.81216  0.01510  Biso   1.000  C
  C52      1.0000 0.53028  0.04843  0.70149  Biso   1.000  C
  C53      1.0000 0.34129  0.98139  0.47483  Biso   1.000  C
  C54      1.0000 0.57700  0.81424  0.52620  Biso   1.000  C
  C55      1.0000 0.51889  0.54631  0.84105  Biso   1.000  C
  C56      1.0000 0.70569  0.47637  0.06685  Biso   1.000  C
  C57      1.0000 0.45161  0.31378  0.00800  Biso   1.000  C
  C58      1.0000 0.03073  0.54567  0.69606  Biso   1.000  C
  C59      1.0000 0.21152  0.49855  0.46247  Biso   1.000  C
  C60      1.0000 0.97934  0.30642  0.52262  Biso   1.000  C
  C61      1.0000 0.00970  0.92931  0.19479  Biso   1.000  C
  C62      1.0000 0.20151  0.99382  0.97674  Biso   1.000  C
  C63      1.0000 0.95183  0.16163  0.03383  Biso   1.000  C
  C64      1.0000 0.51855  0.93307  0.33695  Biso   1.000  C
  C65      1.0000 0.70732  0.98860  0.56617  Biso   1.000  C
  C66      1.0000 0.47437  0.17028  0.51119  Biso   1.000  C
  C67      1.0000 0.54258  0.42776  0.19001  Biso   1.000  C
  C68      1.0000 0.34180  0.49976  0.96460  Biso   1.000  C
  C69      1.0000 0.58168  0.66308  0.03096  Biso   1.000  C
  C70      1.0000 0.01750  0.43290  0.34729  Biso   1.000  C
  C71      1.0000 0.84645  0.48416  0.57153  Biso   1.000  C
  C72      1.0000 0.07493  0.67096  0.52407  Biso   1.000  C
  C73      1.0000 0.03354  0.53863  0.33352  Biso   1.000  C
  C74      1.0000 0.34305  0.99269  0.58280  Biso   1.000  C
  C75      1.0000 0.56150  0.31241  0.00045  Biso   1.000  C
  C76      1.0000 0.52185  0.53582  0.20117  Biso   1.000  C
  C77      1.0000 0.82888  0.98254  0.95312  Biso   1.000  C
  C78      1.0000 0.08595  0.30766  0.53615  Biso   1.000  C
  C79      1.0000 0.51147  0.04338  0.33375  Biso   1.000  C
  C80      1.0000 0.20721  0.48510  0.57029  Biso   1.000  C
  C81      1.0000 0.97023  0.80650  0.00458  Biso   1.000  C
  C82      1.0000 0.00206  0.03723  0.21346  Biso   1.000  C
  C83      1.0000 0.70718  0.48515  0.95859  Biso   1.000  C
  C84      1.0000 0.46364  0.80908  0.52987  Biso   1.000  C
  C85      1.0000 0.02790  0.44066  0.70210  Biso   1.000  C
  C86      1.0000 0.70070  0.99254  0.45811  Biso   1.000  C
  C87      1.0000 0.47376  0.67528  0.02180  Biso   1.000  C
  C88      1.0000 0.52579  0.43790  0.83052  Biso   1.000  C
  C89      1.0000 0.19500  0.99407  0.08776  Biso   1.000  C
  C90      1.0000 0.96506  0.66927  0.50897  Biso   1.000  C
  C91      1.0000 0.52833  0.93925  0.70860  Biso   1.000  C
  C92      1.0000 0.84549  0.48859  0.46184  Biso   1.000  C
  C93      1.0000 0.06091  0.16813  0.03680  Biso   1.000  C
  C94      1.0000 0.02943  0.94243  0.84116  Biso   1.000  C
  C95      1.0000 0.34394  0.49575  0.07543  Biso   1.000  C
  C96      1.0000 0.58311  0.17386  0.51280  Biso   1.000  C
  C97      1.0000 0.70478  0.07804  0.50541  Biso   1.000  C
  C98      1.0000 0.52910  0.66565  0.11113  Biso   1.000  C
  C99      1.0000 0.11278  0.49365  0.69666  Biso   1.000  C
  C100     1.0000 0.19412  0.08087  0.02744  Biso   1.000  C
  C101     1.0000 0.02230  0.66770  0.42593  Biso   1.000  C
  C102     1.0000 0.60846  0.49954  0.83357  Biso   1.000  C
  C103     1.0000 0.84161  0.56935  0.52173  Biso   1.000  C
  C104     1.0000 0.99920  0.16390  0.12090  Biso   1.000  C
  C105     1.0000 0.44081  0.99766  0.70643  Biso   1.000  C
  C106     1.0000 0.34344  0.58548  0.02385  Biso   1.000  C
  C107     1.0000 0.52262  0.17344  0.42531  Biso   1.000  C
  C108     1.0000 0.93681  0.00715  0.83942  Biso   1.000  C
  C109     1.0000 0.33799  0.90049  0.53733  Biso   1.000  C
  C110     1.0000 0.50111  0.31077  0.91963  Biso   1.000  C
  C111     1.0000 0.94197  0.49205  0.33782  Biso   1.000  C
  C112     1.0000 0.83637  0.89678  0.00937  Biso   1.000  C
  C113     1.0000 0.02466  0.30983  0.61445  Biso   1.000  C
  C114     1.0000 0.44433  0.47097  0.19751  Biso   1.000  C
  C115     1.0000 0.21298  0.40319  0.51150  Biso   1.000  C
  C116     1.0000 0.01583  0.81069  0.92433  Biso   1.000  C
  C117     1.0000 0.60207  0.99166  0.33181  Biso   1.000  C
  C118     1.0000 0.69929  0.39296  0.00698  Biso   1.000  C
  C119     1.0000 0.53287  0.81427  0.60967  Biso   1.000  C
  C120     1.0000 0.09524  0.98610  0.21057  Biso   1.000  C
  C121     1.0000 0.83470  0.98452  0.09612  Biso   1.000  C
  C122     1.0000 0.10937  0.81230  0.01744  Biso   1.000  C
  C123     1.0000 0.02087  0.08408  0.84792  Biso   1.000  C
  C124     1.0000 0.33957  0.97894  0.44387  Biso   1.000  C
  C125     1.0000 0.60902  0.81405  0.52610  Biso   1.000  C
  C126     1.0000 0.53357  0.08029  0.69945  Biso   1.000  C
  C127     1.0000 0.70798  0.47961  0.09872  Biso   1.000  C
  C128     1.0000 0.41972  0.31395  0.01342  Biso   1.000  C
  C129     1.0000 0.51453  0.57830  0.84164  Biso   1.000  C
  C130     1.0000 0.21138  0.49766  0.43102  Biso   1.000  C
  C131     1.0000 0.94706  0.30774  0.52011  Biso   1.000  C
  C132     1.0000 0.03043  0.57739  0.69341  Biso   1.000  C
  C133     1.0000 0.20158  0.99649  0.94464  Biso   1.000  C
  C134     1.0000 0.92037  0.16212  0.03205  Biso   1.000  C
  C135     1.0000 0.01868  0.89858  0.19179  Biso   1.000  C
  C136     1.0000 0.70617  0.98355  0.59738  Biso   1.000  C
  C137     1.0000 0.44229  0.17000  0.51415  Biso   1.000  C
  C138     1.0000 0.52027  0.90104  0.33991  Biso   1.000  C
  C139     1.0000 0.34268  0.49675  0.93282  Biso   1.000  C
  C140     1.0000 0.61386  0.66372  0.02784  Biso   1.000  C
  C141     1.0000 0.54406  0.39564  0.18704  Biso   1.000  C
  C142     1.0000 0.84597  0.48760  0.60382  Biso   1.000  C
  C143     1.0000 0.10696  0.67100  0.53257  Biso   1.000  C
  C144     1.0000 0.00946  0.40240  0.35146  Biso   1.000  C
  C145     1.0000 0.34583  0.49734  0.10749  Biso   1.000  C
  C146     1.0000 0.11792  0.30760  0.53135  Biso   1.000  C
  C147     1.0000 0.51054  0.07556  0.33336  Biso   1.000  C
  C148     1.0000 0.84462  0.49297  0.43059  Biso   1.000  C
  C149     1.0000 0.59377  0.30751  0.99955  Biso   1.000  C
  C150     1.0000 0.99192  0.06986  0.21563  Biso   1.000  C
  C151     1.0000 0.19427  0.99263  0.12044  Biso   1.000  C
  C152     1.0000 0.43243  0.80790  0.53853  Biso   1.000  C
  C153     1.0000 0.03324  0.57107  0.33163  Biso   1.000  C
  C154     1.0000 0.69923  0.99413  0.42608  Biso   1.000  C
  C155     1.0000 0.93795  0.80602  0.00244  Biso   1.000  C
  C156     1.0000 0.52108  0.56761  0.20381  Biso   1.000  C
  C157     1.0000 0.70740  0.48905  0.92695  Biso   1.000  C
  C158     1.0000 0.93354  0.67017  0.51330  Biso   1.000  C
  C159     1.0000 0.53186  0.90763  0.70740  Biso   1.000  C
  C160     1.0000 0.20700  0.49020  0.60328  Biso   1.000  C
  C161     1.0000 0.44166  0.67639  0.01956  Biso   1.000  C
  C162     1.0000 0.03210  0.90994  0.83844  Biso   1.000  C
  C163     1.0000 0.83366  0.98065  0.92141  Biso   1.000  C
  C164     1.0000 0.61553  0.17404  0.51860  Biso   1.000  C
  C165     1.0000 0.02163  0.40995  0.70372  Biso   1.000  C
  C166     1.0000 0.34291  0.00064  0.61382  Biso   1.000  C
  C167     1.0000 0.09278  0.16924  0.03422  Biso   1.000  C
  C168     1.0000 0.52675  0.40555  0.82725  Biso   1.000  C
  C169     1.0000 0.01573  0.80339  0.09409  Biso   1.000  C
  C170     1.0000 0.10958  0.99934  0.84532  Biso   1.000  C
  C171     1.0000 0.82735  0.06730  0.01496  Biso   1.000  C
  C172     1.0000 0.52374  0.81125  0.43895  Biso   1.000  C
  C173     1.0000 0.61187  0.99697  0.69218  Biso   1.000  C
  C174     1.0000 0.34597  0.07436  0.53033  Biso   1.000  C
  C175     1.0000 0.50435  0.31334  0.09133  Biso   1.000  C
  C176     1.0000 0.43779  0.49441  0.83577  Biso   1.000  C
  C177     1.0000 0.70744  0.56603  0.02159  Biso   1.000  C
  C178     1.0000 0.03921  0.30508  0.44173  Biso   1.000  C
  C179     1.0000 0.94040  0.49947  0.69946  Biso   1.000  C
  C180     1.0000 0.20554  0.57655  0.52391  Biso   1.000  C
  C181     1.0000 0.01072  0.17350  0.94607  Biso   1.000  C
  C182     1.0000 0.92154  0.97118  0.19944  Biso   1.000  C
  C183     1.0000 0.20067  0.90786  0.04473  Biso   1.000  C
  C184     1.0000 0.53452  0.17275  0.59898  Biso   1.000  C
  C185     1.0000 0.42584  0.98728  0.33914  Biso   1.000  C
  C186     1.0000 0.70779  0.90256  0.51347  Biso   1.000  C
  C187     1.0000 0.52852  0.67045  0.93842  Biso   1.000  C
  C188     1.0000 0.61272  0.49105  0.19302  Biso   1.000  C
  C189     1.0000 0.33054  0.41450  0.01989  Biso   1.000  C
  C190     1.0000 0.01607  0.67277  0.59818  Biso   1.000  C
  C191     1.0000 0.11554  0.47504  0.34091  Biso   1.000  C
  C192     1.0000 0.85137  0.39792  0.51118  Biso   1.000  C
  C193     1.0000 0.86237  0.98771  0.90958  Biso   1.000  C
  C194     1.0000 0.92152  0.83337  0.99913  Biso   1.000  C
  C195     1.0000 0.03003  0.89167  0.86454  Biso   1.000  C
  C196     1.0000 0.37143  0.00439  0.63006  Biso   1.000  C
  C197     1.0000 0.41409  0.83454  0.53668  Biso   1.000  C
  C198     1.0000 0.53411  0.89278  0.67992  Biso   1.000  C
  C199     1.0000 0.67952  0.49226  0.91205  Biso   1.000  C
  C200     1.0000 0.61362  0.33280  0.99906  Biso   1.000  C
  C201     1.0000 0.51589  0.39046  0.85281  Biso   1.000  C
  C202     1.0000 0.18035  0.48803  0.62123  Biso   1.000  C
  C203     1.0000 0.13289  0.33484  0.52709  Biso   1.000  C
  C204     1.0000 0.02247  0.39236  0.67840  Biso   1.000  C
  C205     1.0000 0.16650  0.98917  0.13494  Biso   1.000  C
  C206     1.0000 0.11025  0.14260  0.03319  Biso   1.000  C
  C207     1.0000 0.98865  0.08548  0.18794  Biso   1.000  C
  C208     1.0000 0.67233  0.98923  0.41167  Biso   1.000  C
  C209     1.0000 0.63072  0.14713  0.51714  Biso   1.000  C
  C210     1.0000 0.51513  0.09282  0.35991  Biso   1.000  C
  C211     1.0000 0.37385  0.49393  0.12111  Biso   1.000  C
  C212     1.0000 0.42469  0.64902  0.02200  Biso   1.000  C
  C213     1.0000 0.52525  0.58409  0.17827  Biso   1.000  C
  C214     1.0000 0.87274  0.49468  0.41454  Biso   1.000  C
  C215     1.0000 0.91945  0.64229  0.51046  Biso   1.000  C
  C216     1.0000 0.03010  0.58745  0.35821  Biso   1.000  C
  C217     1.0000 0.12379  0.99836  0.87263  Biso   1.000  C
  C218     1.0000 0.85334  0.08360  0.02008  Biso   1.000  C
  C219     1.0000 0.01308  0.83092  0.10994  Biso   1.000  C
  C220     1.0000 0.62796  0.99326  0.66428  Biso   1.000  C
  C221     1.0000 0.37307  0.08915  0.52900  Biso   1.000  C
  C222     1.0000 0.52520  0.83740  0.42133  Biso   1.000  C
  C223     1.0000 0.42208  0.49762  0.86267  Biso   1.000  C
  C224     1.0000 0.68091  0.58400  0.02293  Biso   1.000  C
  C225     1.0000 0.51328  0.33933  0.10840  Biso   1.000  C
  C226     1.0000 0.92528  0.49385  0.67133  Biso   1.000  C
  C227     1.0000 0.17701  0.58992  0.52556  Biso   1.000  C
  C228     1.0000 0.03525  0.33214  0.42622  Biso   1.000  C
  C229     1.0000 0.90865  0.97174  0.17205  Biso   1.000  C
  C230     1.0000 0.17428  0.89283  0.03597  Biso   1.000  C
  C231     1.0000 0.01148  0.14700  0.92856  Biso   1.000  C
  C232     1.0000 0.41241  0.98426  0.36836  Biso   1.000  C
  C233     1.0000 0.68052  0.88709  0.51512  Biso   1.000  C
  C234     1.0000 0.53819  0.14580  0.61538  Biso   1.000  C
  C235     1.0000 0.62969  0.49107  0.16698  Biso   1.000  C
  C236     1.0000 0.35573  0.39598  0.01715  Biso   1.000  C
  C237     1.0000 0.52541  0.64350  0.92193  Biso   1.000  C
  C238     1.0000 0.13154  0.47728  0.36841  Biso   1.000  C
  C239     1.0000 0.87904  0.38347  0.51623  Biso   1.000  C
  C240     1.0000 0.01792  0.64558  0.61419  Biso   1.000  C
  C241     1.0000 0.62584  0.49837  0.86087  Biso   1.000  C
  C242     1.0000 0.86751  0.58526  0.51805  Biso   1.000  C
  C243     1.0000 0.53540  0.84153  0.62640  Biso   1.000  C
  C244     1.0000 0.12942  0.49310  0.67017  Biso   1.000  C
  C245     1.0000 0.37223  0.59964  0.02272  Biso   1.000  C
  C246     1.0000 0.01926  0.83798  0.90975  Biso   1.000  C
  C247     1.0000 0.91875  0.99872  0.86383  Biso   1.000  C
  C248     1.0000 0.67862  0.09494  0.50852  Biso   1.000  C
  C249     1.0000 0.02592  0.33642  0.63023  Biso   1.000  C
  C250     1.0000 0.42360  0.99691  0.67992  Biso   1.000  C
  C251     1.0000 0.16620  0.09494  0.02550  Biso   1.000  C
  C252     1.0000 0.50423  0.33837  0.90474  Biso   1.000  C
  C253     1.0000 0.42791  0.48062  0.17192  Biso   1.000  C
  C254     1.0000 0.18578  0.38781  0.51474  Biso   1.000  C
  C255     1.0000 0.52018  0.14573  0.41061  Biso   1.000  C
  C256     1.0000 0.92409  0.49060  0.36424  Biso   1.000  C
  C257     1.0000 0.67142  0.37890  0.00217  Biso   1.000  C
  C258     1.0000 0.99105  0.13733  0.13600  Biso   1.000  C
  C259     1.0000 0.11234  0.98494  0.18469  Biso   1.000  C
  C260     1.0000 0.36413  0.88416  0.53649  Biso   1.000  C
  C261     1.0000 0.02366  0.64079  0.41014  Biso   1.000  C
  C262     1.0000 0.61755  0.99091  0.35945  Biso   1.000  C
  C263     1.0000 0.86466  0.88314  0.00606  Biso   1.000  C
  C264     1.0000 0.52850  0.63651  0.12755  Biso   1.000  C
  C265     1.0000 0.01831  0.09980  0.87456  Biso   1.000  C
  C266     1.0000 0.86130  0.97698  0.11424  Biso   1.000  C
  C267     1.0000 0.12380  0.83922  0.02402  Biso   1.000  C
  C268     1.0000 0.53294  0.09460  0.67113  Biso   1.000  C
  C269     1.0000 0.36550  0.98382  0.42525  Biso   1.000  C
  C270     1.0000 0.62664  0.83998  0.52211  Biso   1.000  C
  C271     1.0000 0.51815  0.59239  0.86985  Biso   1.000  C
  C272     1.0000 0.68154  0.47976  0.11660  Biso   1.000  C
  C273     1.0000 0.40516  0.34291  0.01373  Biso   1.000  C
  C274     1.0000 0.02731  0.59200  0.66646  Biso   1.000  C
  C275     1.0000 0.18419  0.48971  0.41800  Biso   1.000  C
  C276     1.0000 0.93177  0.33531  0.52003  Biso   1.000  C
  C277     1.0000 0.01762  0.88354  0.16434  Biso   1.000  C
  C278     1.0000 0.17438  0.99932  0.92853  Biso   1.000  C
  C279     1.0000 0.90623  0.13392  0.02740  Biso   1.000  C
  C280     1.0000 0.52171  0.88741  0.36777  Biso   1.000  C
  C281     1.0000 0.67752  0.98487  0.61313  Biso   1.000  C
  C282     1.0000 0.42661  0.14320  0.51721  Biso   1.000  C
  C283     1.0000 0.53595  0.38294  0.15865  Biso   1.000  C
  C284     1.0000 0.37056  0.49803  0.91606  Biso   1.000  C
  C285     1.0000 0.63024  0.63736  0.02212  Biso   1.000  C
  C286     1.0000 0.01820  0.38622  0.37751  Biso   1.000  C
  C287     1.0000 0.87291  0.49191  0.62011  Biso   1.000  C
  C288     1.0000 0.12320  0.64446  0.53010  Biso   1.000  C
  C289     1.0000 0.36135  0.85260  0.54128  Biso   1.000  C
  C290     1.0000 0.51006  0.33809  0.87362  Biso   1.000  C
  C291     1.0000 0.89355  0.49145  0.36246  Biso   1.000  C
  C292     1.0000 0.86611  0.85194  0.00298  Biso   1.000  C
  C293     1.0000 0.02495  0.33680  0.66134  Biso   1.000  C
  C294     1.0000 0.39599  0.48042  0.17283  Biso   1.000  C
  C295     1.0000 0.18556  0.35632  0.51692  Biso   1.000  C
  C296     1.0000 0.02244  0.83754  0.87878  Biso   1.000  C
  C297     1.0000 0.64948  0.99304  0.35926  Biso   1.000  C
  C298     1.0000 0.66848  0.34797  0.00293  Biso   1.000  C
  C299     1.0000 0.53395  0.84135  0.65794  Biso   1.000  C
  C300     1.0000 0.14256  0.98602  0.18776  Biso   1.000  C
  C301     1.0000 0.68089  0.12575  0.51071  Biso   1.000  C
  C302     1.0000 0.52685  0.63818  0.15853  Biso   1.000  C
  C303     1.0000 0.16014  0.49345  0.67427  Biso   1.000  C
  C304     1.0000 0.16506  0.12657  0.03278  Biso   1.000  C
  C305     1.0000 0.02460  0.64121  0.37918  Biso   1.000  C
  C306     1.0000 0.65715  0.49941  0.85939  Biso   1.000  C
  C307     1.0000 0.86741  0.61721  0.52133  Biso   1.000  C
  C308     1.0000 0.98981  0.13951  0.16806  Biso   1.000  C
  C309     1.0000 0.39263  0.00343  0.68331  Biso   1.000  C
  C310     1.0000 0.37274  0.63040  0.02506  Biso   1.000  C
  C311     1.0000 0.51877  0.14664  0.37868  Biso   1.000  C
  C312     1.0000 0.88851  0.99732  0.85911  Biso   1.000  C
  C313     1.0000 0.18576  0.48752  0.38627  Biso   1.000  C
  C314     1.0000 0.39523  0.14186  0.51840  Biso   1.000  C
  C315     1.0000 0.52959  0.35237  0.16035  Biso   1.000  C
  C316     1.0000 0.68105  0.48973  0.14617  Biso   1.000  C
  C317     1.0000 0.87454  0.13584  0.02339  Biso   1.000  C
  C318     1.0000 0.01737  0.35503  0.37728  Biso   1.000  C
  C319     1.0000 0.36122  0.99000  0.39497  Biso   1.000  C
  C320     1.0000 0.15464  0.64359  0.53470  Biso   1.000  C
  C321     1.0000 0.01751  0.85167  0.16582  Biso   1.000  C
  C322     1.0000 0.85886  0.97900  0.14525  Biso   1.000  C
  C323     1.0000 0.66109  0.63643  0.02581  Biso   1.000  C
  C324     1.0000 0.52111  0.85559  0.36760  Biso   1.000  C
  C325     1.0000 0.87166  0.49614  0.65126  Biso   1.000  C
  C326     1.0000 0.65815  0.83581  0.51830  Biso   1.000  C
  C327     1.0000 0.51796  0.62492  0.86913  Biso   1.000  C
  C328     1.0000 0.36858  0.49395  0.88572  Biso   1.000  C
  C329     1.0000 0.15480  0.83864  0.02802  Biso   1.000  C
  C330     1.0000 0.02568  0.62393  0.66763  Biso   1.000  C
  C331     1.0000 0.67914  0.98744  0.64353  Biso   1.000  C
  C332     1.0000 0.90087  0.33128  0.51763  Biso   1.000  C
  C333     1.0000 0.01829  0.13083  0.87403  Biso   1.000  C
  C334     1.0000 0.17562  0.99883  0.89675  Biso   1.000  C
  C335     1.0000 0.37494  0.34330  0.02251  Biso   1.000  C
  C336     1.0000 0.53541  0.12634  0.66931  Biso   1.000  C
  C337     1.0000 0.67958  0.49637  0.88032  Biso   1.000  C
  C338     1.0000 0.88746  0.64024  0.51711  Biso   1.000  C
  C339     1.0000 0.53365  0.86129  0.68029  Biso   1.000  C
  C340     1.0000 0.18134  0.49215  0.65214  Biso   1.000  C
  C341     1.0000 0.39444  0.65191  0.02518  Biso   1.000  C
  C342     1.0000 0.02592  0.86058  0.85927  Biso   1.000  C
  C343     1.0000 0.86533  0.99177  0.87884  Biso   1.000  C
  C344     1.0000 0.66137  0.14862  0.51295  Biso   1.000  C
  C345     1.0000 0.02301  0.36050  0.68025  Biso   1.000  C
  C346     1.0000 0.37050  0.00701  0.66136  Biso   1.000  C
  C347     1.0000 0.14245  0.14608  0.03300  Biso   1.000  C
  C348     1.0000 0.51539  0.35914  0.85197  Biso   1.000  C
  C349     1.0000 0.37500  0.48599  0.15152  Biso   1.000  C
  C350     1.0000 0.16379  0.33492  0.52104  Biso   1.000  C
  C351     1.0000 0.51790  0.12450  0.35836  Biso   1.000  C
  C352     1.0000 0.87098  0.49318  0.38306  Biso   1.000  C
  C353     1.0000 0.64466  0.32897  0.00252  Biso   1.000  C
  C354     1.0000 0.98791  0.11643  0.18899  Biso   1.000  C
  C355     1.0000 0.16590  0.98846  0.16629  Biso   1.000  C
  C356     1.0000 0.38297  0.83114  0.54070  Biso   1.000  C
  C357     1.0000 0.02619  0.61924  0.35757  Biso   1.000  C
  C358     1.0000 0.67184  0.99197  0.38008  Biso   1.000  C
  C359     1.0000 0.88991  0.83135  0.00197  Biso   1.000  C
  C360     1.0000 0.52485  0.61477  0.17989  Biso   1.000  C
  C361     1.0000 0.01609  0.15122  0.89660  Biso   1.000  C
  C362     1.0000 0.87789  0.97612  0.16932  Biso   1.000  C
  C363     1.0000 0.17511  0.86007  0.03408  Biso   1.000  C
  C364     1.0000 0.53705  0.14624  0.64686  Biso   1.000  C
  C365     1.0000 0.38163  0.98983  0.37088  Biso   1.000  C
  C366     1.0000 0.68076  0.85588  0.51411  Biso   1.000  C
  C367     1.0000 0.52121  0.64605  0.89115  Biso   1.000  C
  C368     1.0000 0.66076  0.49524  0.16809  Biso   1.000  C
  C369     1.0000 0.35367  0.36579  0.02351  Biso   1.000  C
  C370     1.0000 0.02015  0.64626  0.64654  Biso   1.000  C
  C371     1.0000 0.16399  0.48252  0.36599  Biso   1.000  C
  C372     1.0000 0.87913  0.35135  0.51383  Biso   1.000  C
  C373     1.0000 0.01569  0.83007  0.14340  Biso   1.000  C
  C374     1.0000 0.15554  0.99945  0.87335  Biso   1.000  C
  C375     1.0000 0.85200  0.11495  0.02045  Biso   1.000  C
  C376     1.0000 0.52106  0.83420  0.38990  Biso   1.000  C
  C377     1.0000 0.65863  0.99176  0.66604  Biso   1.000  C
  C378     1.0000 0.37329  0.12062  0.52224  Biso   1.000  C
  C379     1.0000 0.51922  0.33452  0.13870  Biso   1.000  C
  C380     1.0000 0.39054  0.49442  0.86281  Biso   1.000  C
  C381     1.0000 0.68242  0.61471  0.02569  Biso   1.000  C
  C382     1.0000 0.02606  0.33310  0.39609  Biso   1.000  C
  C383     1.0000 0.89334  0.49727  0.67186  Biso   1.000  C
  C384     1.0000 0.17617  0.62173  0.53178  Biso   1.000  C
  C385     1.0000 0.19166  0.14319  0.03648  Biso   1.000  C
  C386     1.0000 0.99451  0.16558  0.18457  Biso   1.000  C
  C387     1.0000 0.15649  0.98685  0.21559  Biso   1.000  C
  C388     1.0000 0.70777  0.14079  0.50740  Biso   1.000  C
  C389     1.0000 0.51987  0.17296  0.36207  Biso   1.000  C
  C390     1.0000 0.66333  0.99429  0.33102  Biso   1.000  C
  C391     1.0000 0.34668  0.64818  0.02546  Biso   1.000  C
  C392     1.0000 0.52412  0.66524  0.17427  Biso   1.000  C
  C393     1.0000 0.38139  0.47285  0.19936  Biso   1.000  C
  C394     1.0000 0.84134  0.63327  0.52911  Biso   1.000  C
  C395     1.0000 0.02271  0.66818  0.36198  Biso   1.000  C
  C396     1.0000 0.87921  0.49502  0.33492  Biso   1.000  C
  C397     1.0000 0.84101  0.83477  0.00697  Biso   1.000  C
  C398     1.0000 0.02108  0.81141  0.86169  Biso   1.000  C
  C399     1.0000 0.87524  0.00095  0.83126  Biso   1.000  C
  C400     1.0000 0.33490  0.83656  0.54450  Biso   1.000  C
  C401     1.0000 0.53130  0.81368  0.67180  Biso   1.000  C
  C402     1.0000 0.37740  0.00627  0.70911  Biso   1.000  C
  C403     1.0000 0.69295  0.33003  0.00686  Biso   1.000  C
  C404     1.0000 0.51353  0.31135  0.85836  Biso   1.000  C
  C405     1.0000 0.67202  0.50232  0.83273  Biso   1.000  C
  C406     1.0000 0.21279  0.34131  0.51509  Biso   1.000  C
  C407     1.0000 0.02294  0.31116  0.67949  Biso   1.000  C
  C408     1.0000 0.17514  0.49212  0.70093  Biso   1.000  C
  C409     1.0000 0.17270  0.00082  0.84661  Biso   1.000  C
  C410     1.0000 0.82577  0.13094  0.01428  Biso   1.000  C
  C411     1.0000 0.01683  0.80308  0.15857  Biso   1.000  C
  C412     1.0000 0.67611  0.99695  0.69197  Biso   1.000  C
  C413     1.0000 0.34691  0.13640  0.51926  Biso   1.000  C
  C414     1.0000 0.51627  0.80673  0.37595  Biso   1.000  C
  C415     1.0000 0.37426  0.48866  0.83612  Biso   1.000  C
  C416     1.0000 0.70998  0.62782  0.02879  Biso   1.000  C
  C417     1.0000 0.51681  0.30635  0.15319  Biso   1.000  C
  C418     1.0000 0.87814  0.50241  0.69953  Biso   1.000  C
  C419     1.0000 0.20249  0.63677  0.53685  Biso   1.000  C
  C420     1.0000 0.02250  0.30717  0.38034  Biso   1.000  C
  C421     1.0000 0.86094  0.98147  0.19506  Biso   1.000  C
  C422     1.0000 0.20234  0.84490  0.03869  Biso   1.000  C
  C423     1.0000 0.01970  0.17877  0.88330  Biso   1.000  C
  C424     1.0000 0.36291  0.99380  0.34548  Biso   1.000  C
  C425     1.0000 0.70767  0.83845  0.51302  Biso   1.000  C
  C426     1.0000 0.53825  0.17316  0.66311  Biso   1.000  C
  C427     1.0000 0.67727  0.49901  0.19481  Biso   1.000  C
  C428     1.0000 0.32763  0.35209  0.03127  Biso   1.000  C
  C429     1.0000 0.51885  0.67321  0.87574  Biso   1.000  C
  C430     1.0000 0.17858  0.48161  0.33894  Biso   1.000  C
  C431     1.0000 0.85299  0.33534  0.50975  Biso   1.000  C
  C432     1.0000 0.01971  0.67259  0.66287  Biso   1.000  C
  C433     1.0000 0.02175  0.14877  0.84799  Biso   1.000  C
  C434     1.0000 0.83145  0.98687  0.15904  Biso   1.000  C
  C435     1.0000 0.17242  0.81107  0.02569  Biso   1.000  C
  C436     1.0000 0.53775  0.14253  0.69559  Biso   1.000  C
  C437     1.0000 0.33430  0.99118  0.38046  Biso   1.000  C
  C438     1.0000 0.67228  0.80715  0.51870  Biso   1.000  C
  C439     1.0000 0.51431  0.64195  0.84216  Biso   1.000  C
  C440     1.0000 0.70846  0.49507  0.16020  Biso   1.000  C
  C441     1.0000 0.35902  0.31806  0.02853  Biso   1.000  C
  C442     1.0000 0.02692  0.64025  0.69488  Biso   1.000  C
  C443     1.0000 0.21296  0.49104  0.36865  Biso   1.000  C
  C444     1.0000 0.88609  0.30306  0.51584  Biso   1.000  C
  C445     1.0000 0.01932  0.83565  0.19197  Biso   1.000  C
  C446     1.0000 0.20286  0.99682  0.88185  Biso   1.000  C
  C447     1.0000 0.85876  0.16325  0.02338  Biso   1.000  C
  C448     1.0000 0.51689  0.83761  0.34197  Biso   1.000  C
  C449     1.0000 0.70701  0.99135  0.65801  Biso   1.000  C
  C450     1.0000 0.37945  0.16828  0.51435  Biso   1.000  C
  C451     1.0000 0.53190  0.33471  0.18656  Biso   1.000  C
  C452     1.0000 0.34257  0.49092  0.86931  Biso   1.000  C
  C453     1.0000 0.67836  0.66188  0.03068  Biso   1.000  C
  C454     1.0000 0.00881  0.33999  0.35141  Biso   1.000  C
  C455     1.0000 0.84397  0.49678  0.66683  Biso   1.000  C
  C456     1.0000 0.17026  0.66922  0.54147  Biso   1.000  C
  C457     1.0000 0.02455  0.63505  0.33070  Biso   1.000  C
  C458     1.0000 0.34426  0.00906  0.67763  Biso   1.000  C
  C459     1.0000 0.65653  0.30090  0.00528  Biso   1.000  C
  C460     1.0000 0.51995  0.63116  0.20605  Biso   1.000  C
  C461     1.0000 0.84086  0.98864  0.85972  Biso   1.000  C
  C462     1.0000 0.17873  0.30732  0.51913  Biso   1.000  C
  C463     1.0000 0.51648  0.13977  0.33020  Biso   1.000  C
  C464     1.0000 0.20773  0.49366  0.66675  Biso   1.000  C
  C465     1.0000 0.87494  0.80333  0.00748  Biso   1.000  C
  C466     1.0000 0.98880  0.13234  0.21603  Biso   1.000  C
  C467     1.0000 0.70596  0.49886  0.86414  Biso   1.000  C
  C468     1.0000 0.36935  0.80364  0.54739  Biso   1.000  C
  C469     1.0000 0.02060  0.34769  0.70888  Biso   1.000  C
  C470     1.0000 0.69755  0.99897  0.36243  Biso   1.000  C
  C471     1.0000 0.38019  0.67870  0.02612  Biso   1.000  C
  C472     1.0000 0.52180  0.34450  0.82621  Biso   1.000  C
  C473     1.0000 0.19125  0.99068  0.18477  Biso   1.000  C
  C474     1.0000 0.87068  0.66684  0.52261  Biso   1.000  C
  C475     1.0000 0.53121  0.84557  0.70584  Biso   1.000  C
  C476     1.0000 0.84505  0.49345  0.36667  Biso   1.000  C
  C477     1.0000 0.15638  0.17434  0.03664  Biso   1.000  C
  C478     1.0000 0.02856  0.84734  0.83125  Biso   1.000  C
  C479     1.0000 0.34789  0.48158  0.16776  Biso   1.000  C
  C480     1.0000 0.67818  0.17404  0.51163  Biso   1.000  C
  C481     1.0000 0.38848  0.77889  0.55070  Biso   1.000  C
  C482     1.0000 0.53191  0.35950  0.80046  Biso   1.000  C
  C483     1.0000 0.81640  0.49038  0.38325  Biso   1.000  C
  C484     1.0000 0.89263  0.77638  0.00779  Biso   1.000  C
  C485     1.0000 0.01791  0.36571  0.73506  Biso   1.000  C
  C486     1.0000 0.31883  0.48594  0.15423  Biso   1.000  C
  C487     1.0000 0.16390  0.27971  0.52461  Biso   1.000  C
  C488     1.0000 0.03335  0.86628  0.80648  Biso   1.000  C
  C489     1.0000 0.72332  0.00375  0.37783  Biso   1.000  C
  C490     1.0000 0.63639  0.27636  0.00677  Biso   1.000  C
  C491     1.0000 0.53032  0.86154  0.73346  Biso   1.000  C
  C492     1.0000 0.21933  0.99293  0.17075  Biso   1.000  C
  C493     1.0000 0.66398  0.20146  0.51742  Biso   1.000  C
  C494     1.0000 0.51333  0.61536  0.23178  Biso   1.000  C
  C495     1.0000 0.23323  0.49757  0.65029  Biso   1.000  C
  C496     1.0000 0.13895  0.19944  0.04056  Biso   1.000  C
  C497     1.0000 0.02964  0.61680  0.30367  Biso   1.000  C
  C498     1.0000 0.73384  0.49748  0.87931  Biso   1.000  C
  C499     1.0000 0.88652  0.69490  0.52320  Biso   1.000  C
  C500     1.0000 0.98808  0.11652  0.24372  Biso   1.000  C
  C501     1.0000 0.31728  0.00939  0.66102  Biso   1.000  C
  C502     1.0000 0.39538  0.70551  0.02701  Biso   1.000  C
  C503     1.0000 0.51169  0.12185  0.30537  Biso   1.000  C
  C504     1.0000 0.81241  0.97914  0.87086  Biso   1.000  C
  C505     1.0000 0.65430  0.50655  0.80605  Biso   1.000  C
  C506     1.0000 0.81530  0.61606  0.53252  Biso   1.000  C
  C507     1.0000 0.53113  0.78615  0.65615  Biso   1.000  C
  C508     1.0000 0.15796  0.49057  0.72821  Biso   1.000  C
  C509     1.0000 0.31890  0.63366  0.02551  Biso   1.000  C
  C510     1.0000 0.01692  0.78378  0.87544  Biso   1.000  C
  C511     1.0000 0.89381  0.01024  0.80761  Biso   1.000  C
  C512     1.0000 0.73414  0.12463  0.50008  Biso   1.000  C
  C513     1.0000 0.02271  0.28281  0.66469  Biso   1.000  C
  C514     1.0000 0.39544  0.00487  0.73632  Biso   1.000  C
  C515     1.0000 0.21890  0.12944  0.03520  Biso   1.000  C
  C516     1.0000 0.50643  0.28375  0.87106  Biso   1.000  C
  C517     1.0000 0.39808  0.46336  0.22572  Biso   1.000  C
  C518     1.0000 0.24025  0.35725  0.51283  Biso   1.000  C
  C519     1.0000 0.52240  0.19953  0.37725  Biso   1.000  C
  C520     1.0000 0.89581  0.49964  0.30924  Biso   1.000  C
  C521     1.0000 0.72300  0.34357  0.00883  Biso   1.000  C
  C522     1.0000 0.00071  0.19293  0.16952  Biso   1.000  C
  C523     1.0000 0.13764  0.98840  0.24271  Biso   1.000  C
  C524     1.0000 0.30835  0.85390  0.54610  Biso   1.000  C
  C525     1.0000 0.01972  0.69524  0.37824  Biso   1.000  C
  C526     1.0000 0.64784  0.98925  0.30382  Biso   1.000  C
  C527     1.0000 0.81226  0.84819  0.00989  Biso   1.000  C
  C528     1.0000 0.52591  0.69285  0.15797  Biso   1.000  C
  C529     1.0000 0.79944  0.11385  0.01063  Biso   1.000  C
  C530     1.0000 0.01843  0.77623  0.14164  Biso   1.000  C
  C531     1.0000 0.15778  0.00251  0.81852  Biso   1.000  C
  C532     1.0000 0.31989  0.12121  0.52358  Biso   1.000  C
  C533     1.0000 0.51744  0.78165  0.39437  Biso   1.000  C
  C534     1.0000 0.66003  0.00186  0.71931  Biso   1.000  C
  C535     1.0000 0.73696  0.61100  0.02712  Biso   1.000  C
  C536     1.0000 0.50551  0.28174  0.13747  Biso   1.000  C
  C537     1.0000 0.39039  0.48773  0.80800  Biso   1.000  C
  C538     1.0000 0.22948  0.62341  0.53334  Biso   1.000  C
  C539     1.0000 0.03038  0.27877  0.39401  Biso   1.000  C
  C540     1.0000 0.89435  0.50755  0.72618  Biso   1.000  C
  C541     1.0000 0.22846  0.86083  0.04834  Biso   1.000  C
  C542     1.0000 0.02491  0.20496  0.90221  Biso   1.000  C
  C543     1.0000 0.87360  0.97935  0.22376  Biso   1.000  C
  C544     1.0000 0.73435  0.85326  0.50877  Biso   1.000  C
  C545     1.0000 0.53647  0.20110  0.64741  Biso   1.000  C
  C546     1.0000 0.37630  0.99732  0.31664  Biso   1.000  C
  C547     1.0000 0.30107  0.37036  0.03612  Biso   1.000  C
  C548     1.0000 0.52351  0.69964  0.89231  Biso   1.000  C
  C549     1.0000 0.65911  0.50193  0.22149  Biso   1.000  C
  C550     1.0000 0.82573  0.35073  0.50549  Biso   1.000  C
  C551     1.0000 0.02003  0.69931  0.64659  Biso   1.000  C
  C552     1.0000 0.16196  0.47474  0.31246  Biso   1.000  C
  C553     1.0000 0.02401  0.13353  0.81919  Biso   1.000  C
  C554     1.0000 0.80571  0.99320  0.14240  Biso   1.000  C
  C555     1.0000 0.15743  0.78535  0.01460  Biso   1.000  C
  C556     1.0000 0.54214  0.12747  0.72418  Biso   1.000  C
  C557     1.0000 0.30963  0.98851  0.39940  Biso   1.000  C
  C558     1.0000 0.65571  0.78152  0.52355  Biso   1.000  C
  C559     1.0000 0.51068  0.62618  0.81435  Biso   1.000  C
  C560     1.0000 0.73616  0.49065  0.14505  Biso   1.000  C
  C561     1.0000 0.37502  0.29095  0.02986  Biso   1.000  C
  C562     1.0000 0.03151  0.62459  0.72117  Biso   1.000  C
  C563     1.0000 0.23922  0.50046  0.38377  Biso   1.000  C
  C564     1.0000 0.90158  0.27552  0.51833  Biso   1.000  C
  C565     1.0000 0.01889  0.85075  0.21962  Biso   1.000  C
  C566     1.0000 0.22892  0.99275  0.89956  Biso   1.000  C
  C567     1.0000 0.87317  0.19144  0.02681  Biso   1.000  C
  C568     1.0000 0.51732  0.85128  0.31362  Biso   1.000  C
  C569     1.0000 0.73478  0.99018  0.64250  Biso   1.000  C
  C570     1.0000 0.39529  0.19476  0.50826  Biso   1.000  C
  C571     1.0000 0.54452  0.34817  0.21344  Biso   1.000  C
  C572     1.0000 0.31573  0.49531  0.88606  Biso   1.000  C
  C573     1.0000 0.66327  0.68900  0.03381  Biso   1.000  C
  C574     1.0000 0.99738  0.35516  0.32655  Biso   1.000  C
  C575     1.0000 0.81577  0.49276  0.65070  Biso   1.000  C
  C576     1.0000 0.15309  0.69529  0.54509  Biso   1.000  C
  C577     1.0000 0.31788  0.49378  0.12388  Biso   1.000  C
  C578     1.0000 0.13359  0.28124  0.53213  Biso   1.000  C
  C579     1.0000 0.50529  0.09006  0.30618  Biso   1.000  C
  C580     1.0000 0.81649  0.49251  0.41424  Biso   1.000  C
  C581     1.0000 0.60576  0.28038  0.00565  Biso   1.000  C
  C582     1.0000 0.99119  0.08598  0.24348  Biso   1.000  C
  C583     1.0000 0.22060  0.99307  0.13801  Biso   1.000  C
  C584     1.0000 0.41957  0.77980  0.54607  Biso   1.000  C
  C585     1.0000 0.03458  0.58509  0.30367  Biso   1.000  C
  C586     1.0000 0.72529  0.99987  0.40976  Biso   1.000  C
  C587     1.0000 0.92386  0.77773  0.00717  Biso   1.000  C
  C588     1.0000 0.51336  0.58298  0.23191  Biso   1.000  C
  C589     1.0000 0.73350  0.49295  0.91084  Biso   1.000  C
  C590     1.0000 0.91721  0.69640  0.51953  Biso   1.000  C
  C591     1.0000 0.52948  0.89248  0.73405  Biso   1.000  C
  C592     1.0000 0.23355  0.49779  0.61868  Biso   1.000  C
  C593     1.0000 0.42648  0.70317  0.02418  Biso   1.000  C
  C594     1.0000 0.03588  0.89785  0.80922  Biso   1.000  C
  C595     1.0000 0.80891  0.97539  0.90293  Biso   1.000  C
  C596     1.0000 0.63167  0.20127  0.52035  Biso   1.000  C
  C597     1.0000 0.01874  0.39667  0.73215  Biso   1.000  C
  C598     1.0000 0.31547  0.00619  0.62899  Biso   1.000  C
  C599     1.0000 0.10741  0.19679  0.03710  Biso   1.000  C
  C600     1.0000 0.53462  0.39034  0.80003  Biso   1.000  C
  C601     1.0000 0.22954  0.99433  0.93090  Biso   1.000  C
  C602     1.0000 0.90468  0.19067  0.03191  Biso   1.000  C
  C603     1.0000 0.02056  0.88228  0.21893  Biso   1.000  C
  C604     1.0000 0.73284  0.98636  0.61147  Biso   1.000  C
  C605     1.0000 0.42619  0.19716  0.50937  Biso   1.000  C
  C606     1.0000 0.51822  0.88365  0.31366  Biso   1.000  C
  C607     1.0000 0.31499  0.49548  0.91728  Biso   1.000  C
  C608     1.0000 0.63152  0.68826  0.03458  Biso   1.000  C
  C609     1.0000 0.55081  0.37918  0.21278  Biso   1.000  C
  C610     1.0000 0.81687  0.48671  0.61883  Biso   1.000  C
  C611     1.0000 0.12181  0.69732  0.54065  Biso   1.000  C
  C612     1.0000 0.99846  0.38622  0.32515  Biso   1.000  C
  C613     1.0000 0.80837  0.99029  0.11081  Biso   1.000  C
  C614     1.0000 0.12448  0.78590  0.01282  Biso   1.000  C
  C615     1.0000 0.02475  0.10105  0.82077  Biso   1.000  C
  C616     1.0000 0.31137  0.98213  0.42991  Biso   1.000  C
  C617     1.0000 0.62395  0.78507  0.52622  Biso   1.000  C
  C618     1.0000 0.53869  0.09606  0.72605  Biso   1.000  C
  C619     1.0000 0.73505  0.48310  0.11404  Biso   1.000  C
  C620     1.0000 0.40422  0.28834  0.02356  Biso   1.000  C
  C621     1.0000 0.51014  0.59480  0.81489  Biso   1.000  C
  C622     1.0000 0.23828  0.50451  0.41500  Biso   1.000  C
  C623     1.0000 0.93261  0.27923  0.52126  Biso   1.000  C
  C624     1.0000 0.03263  0.59367  0.72076  Biso   1.000  C
  C625     1.0000 0.01898  0.20284  0.93371  Biso   1.000  C
  C626     1.0000 0.90364  0.97241  0.22590  Biso   1.000  C
  C627     1.0000 0.22848  0.89254  0.05131  Biso   1.000  C
  C628     1.0000 0.53451  0.20008  0.61544  Biso   1.000  C
  C629     1.0000 0.40672  0.99441  0.31482  Biso   1.000  C
  C630     1.0000 0.73544  0.88390  0.50947  Biso   1.000  C
  C631     1.0000 0.52684  0.69826  0.92335  Biso   1.000  C
  C632     1.0000 0.62810  0.49512  0.21987  Biso   1.000  C
  C633     1.0000 0.30347  0.40195  0.03255  Biso   1.000  C
  C634     1.0000 0.01903  0.69999  0.61458  Biso   1.000  C
  C635     1.0000 0.12977  0.47422  0.31210  Biso   1.000  C
  C636     1.0000 0.82469  0.38284  0.50678  Biso   1.000  C
  C637     1.0000 0.01569  0.77636  0.11054  Biso   1.000  C
  C638     1.0000 0.12571  0.00252  0.81842  Biso   1.000  C
  C639     1.0000 0.80109  0.08247  0.01016  Biso   1.000  C
  C640     1.0000 0.52247  0.78333  0.42555  Biso   1.000  C
  C641     1.0000 0.62764  0.00368  0.71865  Biso   1.000  C
  C642     1.0000 0.31836  0.09083  0.52905  Biso   1.000  C
  C643     1.0000 0.49830  0.28463  0.10571  Biso   1.000  C
  C644     1.0000 0.42188  0.49152  0.80842  Biso   1.000  C
  C645     1.0000 0.73621  0.57983  0.02278  Biso   1.000  C
  C646     1.0000 0.03940  0.27721  0.42456  Biso   1.000  C
  C647     1.0000 0.92503  0.50561  0.72598  Biso   1.000  C
  C648     1.0000 0.23202  0.59328  0.52550  Biso   1.000  C
  C649     1.0000 0.02117  0.69546  0.41045  Biso   1.000  C
  C650     1.0000 0.42737  0.00032  0.73427  Biso   1.000  C
  C651     1.0000 0.72548  0.37525  0.00843  Biso   1.000  C
  C652     1.0000 0.53008  0.69414  0.12598  Biso   1.000  C
  C653     1.0000 0.92464  0.01575  0.81172  Biso   1.000  C
  C654     1.0000 0.23947  0.38827  0.51090  Biso   1.000  C
  C655     1.0000 0.52407  0.20049  0.40924  Biso   1.000  C
  C656     1.0000 0.12672  0.49362  0.72537  Biso   1.000  C
  C657     1.0000 0.81014  0.87972  0.01193  Biso   1.000  C
  C658     1.0000 0.00383  0.19182  0.13781  Biso   1.000  C
  C659     1.0000 0.62211  0.50359  0.80602  Biso   1.000  C
  C660     1.0000 0.31090  0.88446  0.54507  Biso   1.000  C
  C661     1.0000 0.02302  0.28292  0.63176  Biso   1.000  C
  C662     1.0000 0.61761  0.98785  0.30290  Biso   1.000  C
  C663     1.0000 0.31755  0.60240  0.02584  Biso   1.000  C
  C664     1.0000 0.49962  0.28391  0.90319  Biso   1.000  C
  C665     1.0000 0.10683  0.98723  0.23964  Biso   1.000  C
  C666     1.0000 0.81488  0.58519  0.52766  Biso   1.000  C
  C667     1.0000 0.53221  0.78619  0.62435  Biso   1.000  C
  C668     1.0000 0.92754  0.49625  0.31026  Biso   1.000  C
  C669     1.0000 0.22120  0.09785  0.03007  Biso   1.000  C
  C670     1.0000 0.01318  0.78283  0.90680  Biso   1.000  C
  C671     1.0000 0.42904  0.46280  0.22329  Biso   1.000  C
  C672     1.0000 0.73328  0.09401  0.50191  Biso   1.000  C
  C673     1.0000 0.22016  0.99964  0.83571  Biso   1.000  C
  C674     1.0000 0.81163  0.17679  0.01923  Biso   1.000  C
  C675     1.0000 0.01890  0.78914  0.20605  Biso   1.000  C
  C676     1.0000 0.72204  0.99984  0.70437  Biso   1.000  C
  C677     1.0000 0.33280  0.18249  0.51238  Biso   1.000  C
  C678     1.0000 0.51375  0.78911  0.32999  Biso   1.000  C
  C679     1.0000 0.32788  0.48983  0.82442  Biso   1.000  C
  C680     1.0000 0.72509  0.67417  0.03110  Biso   1.000  C
  C681     1.0000 0.52222  0.28889  0.19976  Biso   1.000  C
  C682     1.0000 0.83133  0.50521  0.71369  Biso   1.000  C
  C683     1.0000 0.21692  0.68308  0.54676  Biso   1.000  C
  C684     1.0000 0.01140  0.29182  0.33579  Biso   1.000  C
  C685     1.0000 0.81517  0.99493  0.20361  Biso   1.000  C
  C686     1.0000 0.21963  0.79869  0.03239  Biso   1.000  C
  C687     1.0000 0.02610  0.19612  0.83704  Biso   1.000  C
  C688     1.0000 0.31556  0.99441  0.33516  Biso   1.000  C
  C689     1.0000 0.71833  0.79008  0.51995  Biso   1.000  C
  C690     1.0000 0.53877  0.19030  0.70832  Biso   1.000  C
  C691     1.0000 0.72512  0.50486  0.20709  Biso   1.000  C
  C692     1.0000 0.31266  0.30576  0.03732  Biso   1.000  C
  C693     1.0000 0.51300  0.68988  0.82782  Biso   1.000  C
  C694     1.0000 0.22679  0.48355  0.32271  Biso   1.000  C
  C695     1.0000 0.84048  0.28739  0.51003  Biso   1.000  C
  C696     1.0000 0.02643  0.68834  0.70933  Biso   1.000  C
  C697     1.0000 0.70868  0.00204  0.31433  Biso   1.000  C
  C698     1.0000 0.33367  0.69564  0.02818  Biso   1.000  C
  C699     1.0000 0.02227  0.30125  0.72677  Biso   1.000  C
  C700     1.0000 0.20266  0.98874  0.23194  Biso   1.000  C
  C701     1.0000 0.82514  0.67995  0.52866  Biso   1.000  C
  C702     1.0000 0.52582  0.29843  0.81268  Biso   1.000  C
  C703     1.0000 0.83149  0.49523  0.31994  Biso   1.000  C
  C704     1.0000 0.20393  0.19061  0.03645  Biso   1.000  C
  C705     1.0000 0.52340  0.79961  0.71855  Biso   1.000  C
  C706     1.0000 0.33470  0.47679  0.21496  Biso   1.000  C
  C707     1.0000 0.72631  0.18586  0.50693  Biso   1.000  C
  C708     1.0000 0.02481  0.79914  0.81423  Biso   1.000  C
  C709     1.0000 0.33107  0.00905  0.72573  Biso   1.000  C
  C710     1.0000 0.70226  0.28368  0.01141  Biso   1.000  C
  C711     1.0000 0.02106  0.68118  0.31414  Biso   1.000  C
  C712     1.0000 0.83116  0.99775  0.81352  Biso   1.000  C
  C713     1.0000 0.22530  0.29361  0.51577  Biso   1.000  C
  C714     1.0000 0.51919  0.67903  0.22120  Biso   1.000  C
  C715     1.0000 0.22381  0.49399  0.71250  Biso   1.000  C
  C716     1.0000 0.83030  0.78592  0.01167  Biso   1.000  C
  C717     1.0000 0.52018  0.18677  0.31551  Biso   1.000  C
  C718     1.0000 0.71942  0.50505  0.81835  Biso   1.000  C
  C719     1.0000 0.32385  0.78994  0.55359  Biso   1.000  C
  C720     1.0000 0.99469  0.18068  0.23038  Biso   1.000  C
  C721     1.0000 0.53195  0.79056  0.30353  Biso   1.000  C
  C722     1.0000 0.33504  0.50774  0.79835  Biso   1.000  C
  C723     1.0000 0.81396  0.29302  0.52443  Biso   1.000  C
  C724     1.0000 0.99900  0.76365  0.20224  Biso   1.000  C
  C725     1.0000 0.80398  0.51985  0.70762  Biso   1.000  C
  C726     1.0000 0.28491  0.30704  0.02029  Biso   1.000  C
  C727     1.0000 0.00223  0.26224  0.34337  Biso   1.000  C
  C728     1.0000 0.24647  0.01693  0.84066  Biso   1.000  C
  C729     1.0000 0.74584  0.79712  0.53634  Biso   1.000  C
  C730     1.0000 0.51099  0.29736  0.22843  Biso   1.000  C
  C731     1.0000 0.74871  0.98225  0.70284  Biso   1.000  C
  C732     1.0000 0.24929  0.80739  0.02217  Biso   1.000  C
  C733     1.0000 0.52221  0.18808  0.73520  Biso   1.000  C
  C734     1.0000 0.72090  0.49163  0.23508  Biso   1.000  C
  C735     1.0000 0.21341  0.71325  0.53876  Biso   1.000  C
  C736     1.0000 0.01201  0.22406  0.84219  Biso   1.000  C
  C737     1.0000 0.25461  0.47071  0.32996  Biso   1.000  C
  C738     1.0000 0.75179  0.67475  0.04658  Biso   1.000  C
  C739     1.0000 0.05020  0.69022  0.73028  Biso   1.000  C
  C740     1.0000 0.78418  0.98562  0.20036  Biso   1.000  C
  C741     1.0000 0.30736  0.18035  0.49420  Biso   1.000  C
  C742     1.0000 0.52388  0.68454  0.79835  Biso   1.000  C
  C743     1.0000 0.31894  0.97939  0.30691  Biso   1.000  C
  C744     1.0000 0.80885  0.19971  0.04126  Biso   1.000  C
  C745     1.0000 0.03222  0.71047  0.31788  Biso   1.000  C
  C746     1.0000 0.30410  0.02588  0.72252  Biso   1.000  C
  C747     1.0000 0.72689  0.28715  0.03124  Biso   1.000  C
  C748     1.0000 0.53813  0.70418  0.22065  Biso   1.000  C
  C749     1.0000 0.83827  0.98819  0.78378  Biso   1.000  C
  C750     1.0000 0.25278  0.29607  0.53057  Biso   1.000  C
  C751     1.0000 0.53613  0.18102  0.28931  Biso   1.000  C
  C752     1.0000 0.25268  0.48000  0.71100  Biso   1.000  C
  C753     1.0000 0.80368  0.78509  0.99506  Biso   1.000  C
  C754     1.0000 0.00989  0.17402  0.25740  Biso   1.000  C
  C755     1.0000 0.71750  0.49064  0.78915  Biso   1.000  C
  C756     1.0000 0.29781  0.79581  0.57246  Biso   1.000  C
  C757     1.0000 0.00387  0.27514  0.72664  Biso   1.000  C
  C758     1.0000 0.70005  0.01675  0.28705  Biso   1.000  C
  C759     1.0000 0.30679  0.69011  0.04728  Biso   1.000  C
  C760     1.0000 0.54105  0.27203  0.82224  Biso   1.000  C
  C761     1.0000 0.22741  0.00637  0.22831  Biso   1.000  C
  C762     1.0000 0.82838  0.70501  0.50987  Biso   1.000  C
  C763     1.0000 0.50471  0.80449  0.74370  Biso   1.000  C
  C764     1.0000 0.80638  0.51278  0.32370  Biso   1.000  C
  C765     1.0000 0.23041  0.19134  0.05416  Biso   1.000  C
  C766     1.0000 0.01412  0.80667  0.78607  Biso   1.000  C
  C767     1.0000 0.34070  0.48844  0.24418  Biso   1.000  C
  C768     1.0000 0.72256  0.21273  0.49096  Biso   1.000  C
  C769     1.0000 0.50093  0.71869  0.83357  Biso   1.000  C
  C770     1.0000 0.83489  0.49368  0.74380  Biso   1.000  C
  C771     1.0000 0.71333  0.76121  0.50936  Biso   1.000  C
  C772     1.0000 0.00489  0.71161  0.70685  Biso   1.000  C
  C773     1.0000 0.30011  0.47606  0.82516  Biso   1.000  C
  C774     1.0000 0.21554  0.76809  0.04224  Biso   1.000  C
  C775     1.0000 0.04162  0.19207  0.81059  Biso   1.000  C
  C776     1.0000 0.72202  0.02091  0.72736  Biso   1.000  C
  C777     1.0000 0.84505  0.25972  0.49449  Biso   1.000  C
  C778     1.0000 0.55386  0.21830  0.70322  Biso   1.000  C
  C779     1.0000 0.21830  0.98485  0.80604  Biso   1.000  C
  C780     1.0000 0.31353  0.27958  0.05632  Biso   1.000  C
  C781     1.0000 0.53181  0.26023  0.19630  Biso   1.000  C
  C782     1.0000 0.22158  0.49621  0.29337  Biso   1.000  C
  C783     1.0000 0.33440  0.20775  0.53234  Biso   1.000  C
  C784     1.0000 0.01956  0.29634  0.30551  Biso   1.000  C
  C785     1.0000 0.75325  0.51772  0.20213  Biso   1.000  C
  C786     1.0000 0.79006  0.17519  0.99585  Biso   1.000  C
  C787     1.0000 0.03899  0.79013  0.22931  Biso   1.000  C
  C788     1.0000 0.28642  0.00429  0.34031  Biso   1.000  C
  C789     1.0000 0.24178  0.67692  0.56555  Biso   1.000  C
  C790     1.0000 0.49382  0.76361  0.33306  Biso   1.000  C
  C791     1.0000 0.81940  0.01478  0.22827  Biso   1.000  C
  C792     1.0000 0.71889  0.69789  0.01168  Biso   1.000  C
  C793     1.0000 0.50584  0.21394  0.31788  Biso   1.000  C
  C794     1.0000 0.30673  0.46271  0.21064  Biso   1.000  C
  C795     1.0000 0.21898  0.26645  0.49967  Biso   1.000  C
  C796     1.0000 0.98264  0.21005  0.22748  Biso   1.000  C
  C797     1.0000 0.83535  0.48285  0.29143  Biso   1.000  C
  C798     1.0000 0.70050  0.25679  0.99267  Biso   1.000  C
  C799     1.0000 0.00573  0.67378  0.28809  Biso   1.000  C
  C800     1.0000 0.19881  0.97225  0.25883  Biso   1.000  C
  C801     1.0000 0.32667  0.76074  0.54142  Biso   1.000  C
  C802     1.0000 0.49568  0.67778  0.24094  Biso   1.000  C
  C803     1.0000 0.73896  0.98941  0.31505  Biso   1.000  C
  C804     1.0000 0.83338  0.76215  0.03335  Biso   1.000  C
  C805     1.0000 0.53982  0.77174  0.71651  Biso   1.000  C
  C806     1.0000 0.74364  0.52412  0.82197  Biso   1.000  C
  C807     1.0000 0.80170  0.67916  0.54964  Biso   1.000  C
  C808     1.0000 0.03659  0.77021  0.81982  Biso   1.000  C
  C809     1.0000 0.21870  0.51413  0.73804  Biso   1.000  C
  C810     1.0000 0.33663  0.72300  0.01206  Biso   1.000  C
  C811     1.0000 0.04405  0.30607  0.74906  Biso   1.000  C
  C812     1.0000 0.80290  0.01039  0.81872  Biso   1.000  C
  C813     1.0000 0.75369  0.18127  0.52093  Biso   1.000  C
  C814     1.0000 0.51785  0.30199  0.78280  Biso   1.000  C
  C815     1.0000 0.33474  0.99409  0.75353  Biso   1.000  C
  C816     1.0000 0.20057  0.21664  0.01903  Biso   1.000  C
  C817     1.0000 0.01471  0.24573  0.82092  Biso   1.000  C
  C818     1.0000 0.76357  0.99429  0.22149  Biso   1.000  C
  C819     1.0000 0.27114  0.78712  0.02264  Biso   1.000  C
  C820     1.0000 0.52377  0.21065  0.75670  Biso   1.000  C
  C821     1.0000 0.29644  0.97807  0.28779  Biso   1.000  C
  C822     1.0000 0.76559  0.77585  0.54070  Biso   1.000  C
  C823     1.0000 0.52187  0.70605  0.77773  Biso   1.000  C
  C824     1.0000 0.74191  0.49317  0.25627  Biso   1.000  C
  C825     1.0000 0.26430  0.28622  0.02290  Biso   1.000  C
  C826     1.0000 0.04991  0.71143  0.75123  Biso   1.000  C
  C827     1.0000 0.27629  0.46721  0.30871  Biso   1.000  C
  C828     1.0000 0.78960  0.27448  0.51770  Biso   1.000  C
  C829     1.0000 0.99778  0.74237  0.22272  Biso   1.000  C
  C830     1.0000 0.26792  0.01924  0.81897  Biso   1.000  C
  C831     1.0000 0.78604  0.21744  0.03999  Biso   1.000  C
  C832     1.0000 0.53023  0.76927  0.28329  Biso   1.000  C
  C833     1.0000 0.77134  0.98280  0.72344  Biso   1.000  C
  C834     1.0000 0.28586  0.20079  0.49537  Biso   1.000  C
  C835     1.0000 0.51102  0.27728  0.25038  Biso   1.000  C
  C836     1.0000 0.31349  0.51168  0.77787  Biso   1.000  C
  C837     1.0000 0.77297  0.69520  0.04183  Biso   1.000  C
  C838     1.0000 0.00102  0.24072  0.32335  Biso   1.000  C
  C839     1.0000 0.78270  0.52277  0.72776  Biso   1.000  C
  C840     1.0000 0.23226  0.73443  0.54737  Biso   1.000  C
  C841     1.0000 0.24148  0.98765  0.78600  Biso   1.000  C
  C842     1.0000 0.77061  0.19849  0.99415  Biso   1.000  C
  C843     1.0000 0.03767  0.76568  0.24812  Biso   1.000  C
  C844     1.0000 0.74559  0.02176  0.74721  Biso   1.000  C
  C845     1.0000 0.31344  0.22859  0.53070  Biso   1.000  C
  C846     1.0000 0.49399  0.74314  0.31048  Biso   1.000  C
  C847     1.0000 0.28048  0.47857  0.80386  Biso   1.000  C
  C848     1.0000 0.74090  0.72013  0.00925  Biso   1.000  C
  C849     1.0000 0.53095  0.24195  0.22030  Biso   1.000  C
  C850     1.0000 0.81229  0.49760  0.76409  Biso   1.000  C
  C851     1.0000 0.26289  0.69767  0.57023  Biso   1.000  C
  C852     1.0000 0.01649  0.27415  0.28603  Biso   1.000  C
  C853     1.0000 0.79962  0.02150  0.24901  Biso   1.000  C
  C854     1.0000 0.23774  0.74794  0.03965  Biso   1.000  C
  C855     1.0000 0.04222  0.21370  0.78990  Biso   1.000  C
  C856     1.0000 0.26370  0.00223  0.32121  Biso   1.000  C
  C857     1.0000 0.73634  0.74059  0.51413  Biso   1.000  C
  C858     1.0000 0.55271  0.23999  0.72433  Biso   1.000  C
  C859     1.0000 0.77533  0.51794  0.22345  Biso   1.000  C
  C860     1.0000 0.29114  0.25909  0.05809  Biso   1.000  C
  C861     1.0000 0.50221  0.74129  0.81158  Biso   1.000  C
  C862     1.0000 0.24380  0.49232  0.27327  Biso   1.000  C
  C863     1.0000 0.82236  0.23952  0.49357  Biso   1.000  C
  C864     1.0000 0.00817  0.73522  0.72574  Biso   1.000  C
  C865     1.0000 0.73893  0.49408  0.76825  Biso   1.000  C
  C866     1.0000 0.80768  0.72722  0.51048  Biso   1.000  C
  C867     1.0000 0.50150  0.78139  0.76285  Biso   1.000  C
  C868     1.0000 0.27235  0.48286  0.73322  Biso   1.000  C
  C869     1.0000 0.28619  0.71189  0.04714  Biso   1.000  C
  C870     1.0000 0.01948  0.78726  0.76396  Biso   1.000  C
  C871     1.0000 0.81871  0.99452  0.76168  Biso   1.000  C
  C872     1.0000 0.74508  0.23522  0.48872  Biso   1.000  C
  C873     1.0000 0.00763  0.25520  0.74884  Biso   1.000  C
  C874     1.0000 0.28271  0.02416  0.74409  Biso   1.000  C
  C875     1.0000 0.25032  0.21277  0.05244  Biso   1.000  C
  C876     1.0000 0.54604  0.25135  0.80130  Biso   1.000  C
  C877     1.0000 0.31906  0.48865  0.26437  Biso   1.000  C
  C878     1.0000 0.27323  0.27421  0.52967  Biso   1.000  C
  C879     1.0000 0.53587  0.20176  0.26746  Biso   1.000  C
  C880     1.0000 0.78611  0.51557  0.30149  Biso   1.000  C
  C881     1.0000 0.74823  0.26615  0.03246  Biso   1.000  C
  C882     1.0000 0.01358  0.19593  0.27927  Biso   1.000  C
  C883     1.0000 0.24989  0.00429  0.24765  Biso   1.000  C
  C884     1.0000 0.27628  0.77371  0.57333  Biso   1.000  C
  C885     1.0000 0.03021  0.72992  0.29560  Biso   1.000  C
  C886     1.0000 0.72086  0.02000  0.26412  Biso   1.000  C
  C887     1.0000 0.78360  0.76240  0.99838  Biso   1.000  C
  C888     1.0000 0.53588  0.72540  0.24191  Biso   1.000  C
  C889     1.0000 0.75814  0.99328  0.29300  Biso   1.000  C
  C890     1.0000 0.31189  0.74110  0.01222  Biso   1.000  C
  C891     1.0000 0.04705  0.28496  0.77040  Biso   1.000  C
  C892     1.0000 0.22115  0.97417  0.28012  Biso   1.000  C
  C893     1.0000 0.78169  0.70261  0.55050  Biso   1.000  C
  C894     1.0000 0.52476  0.28208  0.76177  Biso   1.000  C
  C895     1.0000 0.81540  0.48782  0.26961  Biso   1.000  C
  C896     1.0000 0.21929  0.23934  0.02011  Biso   1.000  C
  C897     1.0000 0.53691  0.75100  0.73802  Biso   1.000  C
  C898     1.0000 0.28586  0.46332  0.23131  Biso   1.000  C
  C899     1.0000 0.77528  0.20191  0.51659  Biso   1.000  C
  C900     1.0000 0.03789  0.75078  0.79784  Biso   1.000  C
  C901     1.0000 0.31321  0.99190  0.77495  Biso   1.000  C
  C902     1.0000 0.72155  0.23526  0.99745  Biso   1.000  C
  C903     1.0000 0.00378  0.69425  0.26605  Biso   1.000  C
  C904     1.0000 0.78304  0.01364  0.79723  Biso   1.000  C
  C905     1.0000 0.23951  0.24329  0.50150  Biso   1.000  C
  C906     1.0000 0.49325  0.70018  0.26146  Biso   1.000  C
  C907     1.0000 0.23914  0.51503  0.75900  Biso   1.000  C
  C908     1.0000 0.81178  0.74145  0.03712  Biso   1.000  C
  C909     1.0000 0.50752  0.23489  0.29735  Biso   1.000  C
  C910     1.0000 0.76549  0.52585  0.80102  Biso   1.000  C
  C911     1.0000 0.30509  0.74058  0.54554  Biso   1.000  C
  C912     1.0000 0.98587  0.22998  0.24866  Biso   1.000  C
  C913     1.0000 0.78744  0.51068  0.75440  Biso   1.000  C
  C914     1.0000 0.76167  0.74756  0.52976  Biso   1.000  C
  C915     1.0000 0.51210  0.73415  0.78388  Biso   1.000  C
  C916     1.0000 0.28703  0.49693  0.78035  Biso   1.000  C
  C917     1.0000 0.26517  0.75780  0.03106  Biso   1.000  C
  C918     1.0000 0.02893  0.73548  0.74822  Biso   1.000  C
  C919     1.0000 0.76995  0.00274  0.74540  Biso   1.000  C
  C920     1.0000 0.79513  0.24895  0.50235  Biso   1.000  C
  C921     1.0000 0.02793  0.24057  0.79471  Biso   1.000  C
  C922     1.0000 0.26579  0.00513  0.79265  Biso   1.000  C
  C923     1.0000 0.26687  0.26238  0.03938  Biso   1.000  C
  C924     1.0000 0.54069  0.23504  0.75155  Biso   1.000  C
  C925     1.0000 0.26992  0.47923  0.28076  Biso   1.000  C
  C926     1.0000 0.28832  0.22479  0.51375  Biso   1.000  C
  C927     1.0000 0.52133  0.24988  0.24723  Biso   1.000  C
  C928     1.0000 0.76848  0.50677  0.25079  Biso   1.000  C
  C929     1.0000 0.76867  0.21940  0.01550  Biso   1.000  C
  C930     1.0000 0.00591  0.24770  0.29487  Biso   1.000  C
  C931     1.0000 0.26884  0.98751  0.29508  Biso   1.000  C
  C932     1.0000 0.25748  0.72609  0.56183  Biso   1.000  C
  C933     1.0000 0.01722  0.74340  0.24610  Biso   1.000  C
  C934     1.0000 0.77062  0.01210  0.24475  Biso   1.000  C
  C935     1.0000 0.76606  0.71967  0.02436  Biso   1.000  C
  C936     1.0000 0.51137  0.74659  0.28587  Biso   1.000  C
  C937     1.0000 0.74534  0.24093  0.01497  Biso   1.000  C
  C938     1.0000 0.01740  0.72206  0.26997  Biso   1.000  C
  C939     1.0000 0.28819  0.00733  0.76993  Biso   1.000  C
  C940     1.0000 0.26563  0.24831  0.51570  Biso   1.000  C
  C941     1.0000 0.51283  0.72302  0.26364  Biso   1.000  C
  C942     1.0000 0.79111  0.00514  0.76890  Biso   1.000  C
  C943     1.0000 0.78801  0.74092  0.01867  Biso   1.000  C
  C944     1.0000 0.52215  0.22887  0.27077  Biso   1.000  C
  C945     1.0000 0.26439  0.49832  0.75768  Biso   1.000  C
  C946     1.0000 0.28119  0.74685  0.56180  Biso   1.000  C
  C947     1.0000 0.00128  0.22383  0.27389  Biso   1.000  C
  C948     1.0000 0.76242  0.51076  0.77481  Biso   1.000  C
  C949     1.0000 0.28832  0.73627  0.03156  Biso   1.000  C
  C950     1.0000 0.02796  0.26154  0.77074  Biso   1.000  C
  C951     1.0000 0.75026  0.01174  0.26989  Biso   1.000  C
  C952     1.0000 0.78504  0.72539  0.53114  Biso   1.000  C
  C953     1.0000 0.53874  0.25811  0.77236  Biso   1.000  C
  C954     1.0000 0.24633  0.98889  0.27248  Biso   1.000  C
  C955     1.0000 0.24581  0.23790  0.03612  Biso   1.000  C
  C956     1.0000 0.51589  0.75588  0.76041  Biso   1.000  C
  C957     1.0000 0.79034  0.50388  0.27395  Biso   1.000  C
  C958     1.0000 0.77150  0.22816  0.50131  Biso   1.000  C
  C959     1.0000 0.02966  0.75955  0.76997  Biso   1.000  C
  C960     1.0000 0.29272  0.47517  0.25822  Biso   1.000  C
  Cu1      1.0000 0.02556  0.49256  0.67279  Biso   1.000  Cu
  Cu2      1.0000 0.67972  0.98929  0.51253  Biso   1.000  Cu
  Cu3      1.0000 0.52424  0.64270  0.02324  Biso   1.000  Cu
  Cu4      1.0000 0.52398  0.49136  0.86330  Biso   1.000  Cu
  Cu5      1.0000 0.17054  0.99201  0.03145  Biso   1.000  Cu
  Cu6      1.0000 0.02047  0.64282  0.51243  Biso   1.000  Cu
  Cu7      1.0000 0.52370  0.99302  0.67469  Biso   1.000  Cu
  Cu8      1.0000 0.87289  0.48527  0.51560  Biso   1.000  Cu
  Cu9      1.0000 0.00666  0.13831  0.03000  Biso   1.000  Cu
  Cu10     1.0000 0.02218  0.99393  0.86959  Biso   1.000  Cu
  Cu11     1.0000 0.36713  0.49643  0.01941  Biso   1.000  Cu
  Cu12     1.0000 0.52882  0.14582  0.51163  Biso   1.000  Cu
  Cu13     1.0000 0.02655  0.48907  0.36718  Biso   1.000  Cu
  Cu14     1.0000 0.36864  0.98552  0.52765  Biso   1.000  Cu
  Cu15     1.0000 0.50625  0.34021  0.00542  Biso   1.000  Cu
  Cu16     1.0000 0.52984  0.48350  0.16731  Biso   1.000  Cu
  Cu17     1.0000 0.85799  0.98499  0.00691  Biso   1.000  Cu
  Cu18     1.0000 0.03194  0.33413  0.52731  Biso   1.000  Cu
  Cu19     1.0000 0.51520  0.99037  0.36380  Biso   1.000  Cu
  Cu20     1.0000 0.18247  0.48715  0.51696  Biso   1.000  Cu
  Cu21     1.0000 0.02242  0.83471  0.00895  Biso   1.000  Cu
  Cu22     1.0000 0.00876  0.98746  0.17874  Biso   1.000  Cu
  Cu23     1.0000 0.67731  0.47908  0.01308  Biso   1.000  Cu
  Cu24     1.0000 0.51889  0.83912  0.52507  Biso   1.000  Cu
  Cu25     1.0000 0.22451  0.99667  0.03360  Biso   1.000  Cu
  Cu26     1.0000 0.00616  0.19245  0.03396  Biso   1.000  Cu
  Cu27     1.0000 0.00679  0.97892  0.23235  Biso   1.000  Cu
  Cu28     1.0000 0.73396  0.99232  0.51040  Biso   1.000  Cu
  Cu29     1.0000 0.52727  0.19931  0.51046  Biso   1.000  Cu
  Cu30     1.0000 0.51323  0.98781  0.30813  Biso   1.000  Cu
  Cu31     1.0000 0.31330  0.50058  0.02004  Biso   1.000  Cu
  Cu32     1.0000 0.53004  0.69576  0.02637  Biso   1.000  Cu
  Cu33     1.0000 0.53052  0.48064  0.22182  Biso   1.000  Cu
  Cu34     1.0000 0.81834  0.48266  0.51494  Biso   1.000  Cu
  Cu35     1.0000 0.02076  0.69668  0.51203  Biso   1.000  Cu
  Cu36     1.0000 0.02886  0.48308  0.31183  Biso   1.000  Cu
  Cu37     1.0000 0.80493  0.97960  0.01167  Biso   1.000  Cu
  Cu38     1.0000 0.02565  0.78118  0.00729  Biso   1.000  Cu
  Cu39     1.0000 0.02496  0.99937  0.81425  Biso   1.000  Cu
  Cu40     1.0000 0.31568  0.98644  0.53017  Biso   1.000  Cu
  Cu41     1.0000 0.52049  0.78281  0.52546  Biso   1.000  Cu
  Cu42     1.0000 0.52888  0.99672  0.72817  Biso   1.000  Cu
  Cu43     1.0000 0.73141  0.47931  0.01289  Biso   1.000  Cu
  Cu44     1.0000 0.50382  0.28583  0.00478  Biso   1.000  Cu
  Cu45     1.0000 0.52395  0.49406  0.80900  Biso   1.000  Cu
  Cu46     1.0000 0.23785  0.49082  0.51739  Biso   1.000  Cu
  Cu47     1.0000 0.03439  0.28077  0.53006  Biso   1.000  Cu
  Cu48     1.0000 0.02589  0.49594  0.72605  Biso   1.000  Cu
  H1       1.0000 0.25544  0.77812  0.58659  Biso   1.000  H
  H2       1.0000 0.55970  0.23327  0.80611  Biso   1.000  H
  H3       1.0000 0.76482  0.52612  0.30379  Biso   1.000  H
  H4       1.0000 0.76651  0.76125  0.98295  Biso   1.000  H
  H5       1.0000 0.99582  0.23533  0.75008  Biso   1.000  H
  H6       1.0000 0.32086  0.50282  0.28447  Biso   1.000  H
  H7       1.0000 0.29322  0.27934  0.53924  Biso   1.000  H
  H8       1.0000 0.01275  0.79421  0.74229  Biso   1.000  H
  H9       1.0000 0.71575  0.02893  0.24360  Biso   1.000  H
  H10      1.0000 0.76659  0.27261  0.04734  Biso   1.000  H
  H11      1.0000 0.48403  0.78268  0.77967  Biso   1.000  H
  H12      1.0000 0.27158  0.01417  0.24169  Biso   1.000  H
  H13      1.0000 0.73912  0.25403  0.47550  Biso   1.000  H
  H14      1.0000 0.55331  0.74102  0.24378  Biso   1.000  H
  H15      1.0000 0.29186  0.47142  0.73680  Biso   1.000  H
  H16      1.0000 0.26887  0.20859  0.06675  Biso   1.000  H
  H17      1.0000 0.03841  0.75262  0.29842  Biso   1.000  H
  H18      1.0000 0.73618  0.48304  0.74643  Biso   1.000  H
  H19      1.0000 0.80850  0.74611  0.49725  Biso   1.000  H
  H20      1.0000 0.02712  0.19160  0.29728  Biso   1.000  H
  H21      1.0000 0.26269  0.03422  0.74304  Biso   1.000  H
  H22      1.0000 0.26836  0.70751  0.06259  Biso   1.000  H
  H23      1.0000 0.54896  0.19623  0.24774  Biso   1.000  H
  H24      1.0000 0.82378  0.99132  0.73795  Biso   1.000  H
  H25      1.0000 0.28691  0.03484  0.82195  Biso   1.000  H
  H26      1.0000 0.78436  0.23393  0.05641  Biso   1.000  H
  H27      1.0000 0.98346  0.72366  0.22121  Biso   1.000  H
  H28      1.0000 0.78813  0.96616  0.72334  Biso   1.000  H
  H29      1.0000 0.26817  0.19817  0.47884  Biso   1.000  H
  H30      1.0000 0.54821  0.77158  0.26791  Biso   1.000  H
  H31      1.0000 0.31535  0.52729  0.75942  Biso   1.000  H
  H32      1.0000 0.79297  0.69115  0.05198  Biso   1.000  H
  H33      1.0000 0.50355  0.28461  0.27056  Biso   1.000  H
  H34      1.0000 0.76296  0.53394  0.72201  Biso   1.000  H
  H35      1.0000 0.22749  0.75683  0.54144  Biso   1.000  H
  H36      1.0000 0.99332  0.21897  0.33199  Biso   1.000  H
  H37      1.0000 0.74211  0.99156  0.21563  Biso   1.000  H
  H38      1.0000 0.29135  0.79379  0.01277  Biso   1.000  H
  H39      1.0000 0.00513  0.26677  0.82281  Biso   1.000  H
  H40      1.0000 0.29975  0.96729  0.26671  Biso   1.000  H
  H41      1.0000 0.78583  0.77960  0.55235  Biso   1.000  H
  H42      1.0000 0.51316  0.20805  0.77782  Biso   1.000  H
  H43      1.0000 0.73745  0.48521  0.27741  Biso   1.000  H
  H44      1.0000 0.24320  0.29011  0.01226  Biso   1.000  H
  H45      1.0000 0.52766  0.70069  0.75537  Biso   1.000  H
  H46      1.0000 0.29677  0.45721  0.31335  Biso   1.000  H
  H47      1.0000 0.76906  0.27567  0.52765  Biso   1.000  H
  H48      1.0000 0.06924  0.71173  0.76486  Biso   1.000  H
  H49      1.0000 0.23835  0.50220  0.25128  Biso   1.000  H
  H50      1.0000 0.31481  0.24705  0.54527  Biso   1.000  H
  H51      1.0000 0.53526  0.21909  0.21576  Biso   1.000  H
  H52      1.0000 0.79434  0.53107  0.22010  Biso   1.000  H
  H53      1.0000 0.75848  0.19899  0.97379  Biso   1.000  H
  H54      1.0000 0.02298  0.27649  0.26399  Biso   1.000  H
  H55      1.0000 0.24380  0.01084  0.32963  Biso   1.000  H
  H56      1.0000 0.28365  0.69391  0.58196  Biso   1.000  H
  H57      1.0000 0.05663  0.76610  0.26316  Biso   1.000  H
  H58      1.0000 0.80433  0.03490  0.27065  Biso   1.000  H
  H59      1.0000 0.73605  0.73942  0.99781  Biso   1.000  H
  H60      1.0000 0.47917  0.72376  0.31290  Biso   1.000  H
  H61      1.0000 0.81388  0.48766  0.78457  Biso   1.000  H
  H62      1.0000 0.73542  0.71752  0.50677  Biso   1.000  H
  H63      1.0000 0.48914  0.76060  0.81715  Biso   1.000  H
  H64      1.0000 0.25957  0.46778  0.80765  Biso   1.000  H
  H65      1.0000 0.23194  0.72545  0.04323  Biso   1.000  H
  H66      1.0000 0.99239  0.75338  0.72603  Biso   1.000  H
  H67      1.0000 0.74388  0.03757  0.76554  Biso   1.000  H
  H68      1.0000 0.82706  0.21877  0.48336  Biso   1.000  H
  H69      1.0000 0.05301  0.21021  0.76894  Biso   1.000  H
  H70      1.0000 0.23781  0.97456  0.76761  Biso   1.000  H
  H71      1.0000 0.29282  0.24190  0.07521  Biso   1.000  H
  H72      1.0000 0.56480  0.26087  0.71949  Biso   1.000  H
  H73      1.0000 0.78575  0.53919  0.80737  Biso   1.000  H
  H74      1.0000 0.76328  0.70131  0.56569  Biso   1.000  H
  H75      1.0000 0.54978  0.73158  0.73630  Biso   1.000  H
  H76      1.0000 0.23422  0.52668  0.77871  Biso   1.000  H
  H77      1.0000 0.30968  0.75763  0.99598  Biso   1.000  H
  H78      1.0000 0.04547  0.72867  0.80473  Biso   1.000  H
  H79      1.0000 0.76092  0.01774  0.80402  Biso   1.000  H
  H80      1.0000 0.79560  0.19892  0.52771  Biso   1.000  H
  H81      1.0000 0.06301  0.28577  0.78758  Biso   1.000  H
  H82      1.0000 0.31561  0.97694  0.79178  Biso   1.000  H
  H83      1.0000 0.21463  0.25926  0.00777  Biso   1.000  H
  H84      1.0000 0.52068  0.28569  0.73833  Biso   1.000  H
  H85      1.0000 0.26352  0.45768  0.22607  Biso   1.000  H
  H86      1.0000 0.23547  0.22142  0.49396  Biso   1.000  H
  H87      1.0000 0.49589  0.25614  0.30191  Biso   1.000  H
  H88      1.0000 0.81691  0.47584  0.24870  Biso   1.000  H
  H89      1.0000 0.72025  0.21395  0.98466  Biso   1.000  H
  H90      1.0000 0.97858  0.25182  0.24339  Biso   1.000  H
  H91      1.0000 0.21834  0.96297  0.30120  Biso   1.000  H
  H92      1.0000 0.30572  0.71985  0.53273  Biso   1.000  H
  H93      1.0000 0.99221  0.69015  0.24436  Biso   1.000  H
  H94      1.0000 0.78057  0.98401  0.29369  Biso   1.000  H
  H95      1.0000 0.81652  0.72508  0.05332  Biso   1.000  H
  H96      1.0000 0.47472  0.70026  0.27672  Biso   1.000  H
  H97      1.0000 0.87956  0.98988  0.92498  Biso   1.000  H
  H98      1.0000 0.93266  0.85336  0.99583  Biso   1.000  H
  H99      1.0000 0.02963  0.90120  0.88526  Biso   1.000  H
  H100     1.0000 0.39237  0.00081  0.62160  Biso   1.000  H
  H101     1.0000 0.42421  0.85586  0.53247  Biso   1.000  H
  H102     1.0000 0.53399  0.90375  0.65855  Biso   1.000  H
  H103     1.0000 0.65883  0.49065  0.91968  Biso   1.000  H
  H104     1.0000 0.60622  0.35430  0.99390  Biso   1.000  H
  H105     1.0000 0.50997  0.40316  0.87191  Biso   1.000  H
  H106     1.0000 0.15882  0.48911  0.61004  Biso   1.000  H
  H107     1.0000 0.12060  0.35612  0.52530  Biso   1.000  H
  H108     1.0000 0.02131  0.40168  0.65641  Biso   1.000  H
  H109     1.0000 0.14587  0.98682  0.12360  Biso   1.000  H
  H110     1.0000 0.09994  0.12062  0.03185  Biso   1.000  H
  H111     1.0000 0.98675  0.07297  0.16827  Biso   1.000  H
  H112     1.0000 0.65144  0.98440  0.42229  Biso   1.000  H
  H113     1.0000 0.61973  0.12602  0.51907  Biso   1.000  H
  H114     1.0000 0.51663  0.08123  0.38113  Biso   1.000  H
  H115     1.0000 0.39481  0.49522  0.11086  Biso   1.000  H
  H116     1.0000 0.43624  0.62797  0.02527  Biso   1.000  H
  H117     1.0000 0.52862  0.57400  0.15727  Biso   1.000  H
  H118     1.0000 0.89427  0.49759  0.42481  Biso   1.000  H
  H119     1.0000 0.93136  0.62343  0.50133  Biso   1.000  H
  H120     1.0000 0.03113  0.57751  0.37897  Biso   1.000  H
  H121     1.0000 0.11248  0.99681  0.89278  Biso   1.000  H
  H122     1.0000 0.87350  0.07133  0.02392  Biso   1.000  H
  H123     1.0000 0.00966  0.85280  0.09963  Biso   1.000  H
  H124     1.0000 0.61795  0.99230  0.64343  Biso   1.000  H
  H125     1.0000 0.39340  0.07731  0.53420  Biso   1.000  H
  H126     1.0000 0.52655  0.85852  0.42941  Biso   1.000  H
  H127     1.0000 0.43374  0.50247  0.88323  Biso   1.000  H
  H128     1.0000 0.66019  0.57325  0.02043  Biso   1.000  H
  H129     1.0000 0.51756  0.36105  0.09961  Biso   1.000  H
  H130     1.0000 0.93409  0.48759  0.65072  Biso   1.000  H
  H131     1.0000 0.15784  0.57569  0.52158  Biso   1.000  H
  H132     1.0000 0.04237  0.35315  0.43742  Biso   1.000  H
  H133     1.0000 0.92178  0.96738  0.15372  Biso   1.000  H
  H134     1.0000 0.15472  0.90565  0.03371  Biso   1.000  H
  H135     1.0000 0.00795  0.12549  0.93551  Biso   1.000  H
  H136     1.0000 0.42496  0.98091  0.38923  Biso   1.000  H
  H137     1.0000 0.66127  0.89912  0.51642  Biso   1.000  H
  H138     1.0000 0.53803  0.12374  0.60543  Biso   1.000  H
  H139     1.0000 0.61826  0.48883  0.14621  Biso   1.000  H
  H140     1.0000 0.37637  0.40555  0.01378  Biso   1.000  H
  H141     1.0000 0.52754  0.62137  0.93013  Biso   1.000  H
  H142     1.0000 0.11898  0.47798  0.38898  Biso   1.000  H
  H143     1.0000 0.89877  0.39593  0.52018  Biso   1.000  H
  H144     1.0000 0.01565  0.62518  0.60308  Biso   1.000  H
  H145     1.0000 0.61534  0.49892  0.88245  Biso   1.000  H
  H146     1.0000 0.88834  0.57716  0.51015  Biso   1.000  H
  H147     1.0000 0.53940  0.86323  0.61618  Biso   1.000  H
  H148     1.0000 0.12151  0.49501  0.64861  Biso   1.000  H
  H149     1.0000 0.39153  0.58934  0.01916  Biso   1.000  H
  H150     1.0000 0.01724  0.85697  0.92391  Biso   1.000  H
  H151     1.0000 0.92941  0.99916  0.88422  Biso   1.000  H
  H152     1.0000 0.65772  0.08353  0.51186  Biso   1.000  H
  H153     1.0000 0.02737  0.35737  0.61850  Biso   1.000  H
  H154     1.0000 0.43229  0.99111  0.65832  Biso   1.000  H
  H155     1.0000 0.14792  0.08128  0.02319  Biso   1.000  H
  H156     1.0000 0.50219  0.35867  0.91561  Biso   1.000  H
  H157     1.0000 0.44003  0.48529  0.15290  Biso   1.000  H
  H158     1.0000 0.16449  0.39835  0.51523  Biso   1.000  H
  H159     1.0000 0.52141  0.12378  0.42066  Biso   1.000  H
  H160     1.0000 0.93385  0.48891  0.38543  Biso   1.000  H
  H161     1.0000 0.65302  0.39375  0.99652  Biso   1.000  H
  H162     1.0000 0.98674  0.11581  0.12557  Biso   1.000  H
  H163     1.0000 0.10026  0.98530  0.16384  Biso   1.000  H
  H164     1.0000 0.38459  0.89484  0.53417  Biso   1.000  H
  H165     1.0000 0.01987  0.61907  0.41820  Biso   1.000  H
  H166     1.0000 0.60594  0.98738  0.38064  Biso   1.000  H
  H167     1.0000 0.88374  0.89419  0.00855  Biso   1.000  H
  H168     1.0000 0.52805  0.61708  0.11298  Biso   1.000  H
  H169     1.0000 0.01650  0.08657  0.89494  Biso   1.000  H
  H170     1.0000 0.88192  0.97159  0.10284  Biso   1.000  H
  H171     1.0000 0.11227  0.85906  0.02385  Biso   1.000  H
  H172     1.0000 0.53326  0.08287  0.65126  Biso   1.000  H
  H173     1.0000 0.38800  0.98330  0.43299  Biso   1.000  H
  H174     1.0000 0.61798  0.86105  0.52023  Biso   1.000  H
  H175     1.0000 0.52178  0.58185  0.89064  Biso   1.000  H
  H176     1.0000 0.66056  0.47397  0.10757  Biso   1.000  H
  H177     1.0000 0.41876  0.36227  0.00694  Biso   1.000  H
  H178     1.0000 0.02686  0.58041  0.64659  Biso   1.000  H
  H179     1.0000 0.16424  0.48633  0.43058  Biso   1.000  H
  H180     1.0000 0.94161  0.35624  0.52266  Biso   1.000  H
  H181     1.0000 0.01563  0.89388  0.14463  Biso   1.000  H
  H182     1.0000 0.15260  0.00302  0.93788  Biso   1.000  H
  H183     1.0000 0.91832  0.11237  0.02987  Biso   1.000  H
  H184     1.0000 0.52209  0.89911  0.38828  Biso   1.000  H
  H185     1.0000 0.65785  0.98282  0.60067  Biso   1.000  H
  H186     1.0000 0.43983  0.12312  0.51861  Biso   1.000  H
  H187     1.0000 0.53518  0.39574  0.13814  Biso   1.000  H
  H188     1.0000 0.39223  0.49697  0.92594  Biso   1.000  H
  H189     1.0000 0.61811  0.61830  0.01645  Biso   1.000  H
  H190     1.0000 0.02519  0.39641  0.39738  Biso   1.000  H
  H191     1.0000 0.89562  0.49302  0.60934  Biso   1.000  H
  H192     1.0000 0.11225  0.62618  0.52136  Biso   1.000  H
  H193     1.0000 0.28875  0.84271  0.54547  Biso   1.000  H
  H194     1.0000 0.50726  0.26336  0.85912  Biso   1.000  H
  H195     1.0000 0.88578  0.50400  0.28738  Biso   1.000  H
  H196     1.0000 0.79075  0.83624  0.01344  Biso   1.000  H
  H197     1.0000 0.01914  0.26197  0.67408  Biso   1.000  H
  H198     1.0000 0.38874  0.45858  0.24704  Biso   1.000  H
  H199     1.0000 0.26124  0.34695  0.51173  Biso   1.000  H
  H200     1.0000 0.01420  0.76412  0.86077  Biso   1.000  H
  H201     1.0000 0.66091  0.98685  0.28278  Biso   1.000  H
  H202     1.0000 0.74253  0.33202  0.00987  Biso   1.000  H
  H203     1.0000 0.52608  0.76606  0.66614  Biso   1.000  H
  H204     1.0000 0.14647  0.99287  0.26366  Biso   1.000  H
  H205     1.0000 0.75555  0.13463  0.49693  Biso   1.000  H
  H206     1.0000 0.52593  0.71286  0.16833  Biso   1.000  H
  H207     1.0000 0.16756  0.48920  0.74930  Biso   1.000  H
  H208     1.0000 0.23834  0.14243  0.03863  Biso   1.000  H
  H209     1.0000 0.01722  0.71643  0.36891  Biso   1.000  H
  H210     1.0000 0.66398  0.50704  0.78489  Biso   1.000  H
  H211     1.0000 0.79421  0.62395  0.53616  Biso   1.000  H
  H212     1.0000 0.00290  0.21344  0.18092  Biso   1.000  H
  H213     1.0000 0.38637  0.00845  0.75829  Biso   1.000  H
  H214     1.0000 0.30023  0.64793  0.02401  Biso   1.000  H
  H215     1.0000 0.52461  0.22073  0.36523  Biso   1.000  H
  H216     1.0000 0.88576  0.01153  0.78511  Biso   1.000  H
  H217     1.0000 0.25843  0.50706  0.37194  Biso   1.000  H
  H218     1.0000 0.38134  0.21159  0.49978  Biso   1.000  H
  H219     1.0000 0.54731  0.33603  0.23412  Biso   1.000  H
  H220     1.0000 0.75752  0.49060  0.15435  Biso   1.000  H
  H221     1.0000 0.86151  0.21206  0.02606  Biso   1.000  H
  H222     1.0000 0.98923  0.34252  0.30896  Biso   1.000  H
  H223     1.0000 0.28846  0.98832  0.38925  Biso   1.000  H
  H224     1.0000 0.16384  0.71654  0.55023  Biso   1.000  H
  H225     1.0000 0.02019  0.83682  0.23936  Biso   1.000  H
  H226     1.0000 0.78495  0.99950  0.15292  Biso   1.000  H
  H227     1.0000 0.67347  0.71030  0.03984  Biso   1.000  H
  H228     1.0000 0.51701  0.83837  0.29356  Biso   1.000  H
  H229     1.0000 0.79433  0.49298  0.66047  Biso   1.000  H
  H230     1.0000 0.66302  0.75989  0.52905  Biso   1.000  H
  H231     1.0000 0.50978  0.63636  0.79359  Biso   1.000  H
  H232     1.0000 0.29696  0.49560  0.87347  Biso   1.000  H
  H233     1.0000 0.16729  0.76390  0.01115  Biso   1.000  H
  H234     1.0000 0.03353  0.63937  0.73950  Biso   1.000  H
  H235     1.0000 0.75615  0.99366  0.65140  Biso   1.000  H
  H236     1.0000 0.89268  0.25396  0.51452  Biso   1.000  H
  H237     1.0000 0.02281  0.14504  0.79905  Biso   1.000  H
  H238     1.0000 0.25017  0.98810  0.89066  Biso   1.000  H
  H239     1.0000 0.36410  0.27257  0.03747  Biso   1.000  H
  H240     1.0000 0.54778  0.14019  0.74265  Biso   1.000  H
  H241     1.0000 0.75626  0.49889  0.86927  Biso   1.000  H
  H242     1.0000 0.87511  0.71508  0.52382  Biso   1.000  H
  H243     1.0000 0.52980  0.85251  0.75512  Biso   1.000  H
  H244     1.0000 0.25218  0.50518  0.66140  Biso   1.000  H
  H245     1.0000 0.38722  0.72723  0.03163  Biso   1.000  H
  H246     1.0000 0.03805  0.85735  0.78427  Biso   1.000  H
  H247     1.0000 0.79452  0.97329  0.85836  Biso   1.000  H
  H248     1.0000 0.67678  0.22214  0.52068  Biso   1.000  H
  H249     1.0000 0.01987  0.35711  0.75596  Biso   1.000  H
  H250     1.0000 0.29662  0.01022  0.67321  Biso   1.000  H
  H251     1.0000 0.14592  0.22117  0.04788  Biso   1.000  H
  H252     1.0000 0.54257  0.34836  0.78241  Biso   1.000  H
  H253     1.0000 0.29953  0.48280  0.16595  Biso   1.000  H
  H254     1.0000 0.17582  0.25965  0.52513  Biso   1.000  H
  H255     1.0000 0.51115  0.12989  0.28371  Biso   1.000  H
  H256     1.0000 0.79506  0.48868  0.37363  Biso   1.000  H
  H257     1.0000 0.64359  0.25397  0.01069  Biso   1.000  H
  H258     1.0000 0.98616  0.12867  0.26416  Biso   1.000  H
  H259     1.0000 0.24011  0.99146  0.18118  Biso   1.000  H
  H260     1.0000 0.37761  0.76001  0.55913  Biso   1.000  H
  H261     1.0000 0.02818  0.62452  0.28170  Biso   1.000  H
  H262     1.0000 0.74268  0.01169  0.36492  Biso   1.000  H
  H263     1.0000 0.88177  0.75516  0.00779  Biso   1.000  H
  H264     1.0000 0.50638  0.62538  0.25314  Biso   1.000  H
  H265     1.0000 0.03254  0.22536  0.89313  Biso   1.000  H
  H266     1.0000 0.86372  0.98227  0.24442  Biso   1.000  H
  H267     1.0000 0.24807  0.84847  0.05374  Biso   1.000  H
  H268     1.0000 0.53446  0.22140  0.65915  Biso   1.000  H
  H269     1.0000 0.36397  0.00066  0.29627  Biso   1.000  H
  H270     1.0000 0.75369  0.84117  0.50559  Biso   1.000  H
  H271     1.0000 0.52495  0.72054  0.88150  Biso   1.000  H
  H272     1.0000 0.66880  0.50940  0.24257  Biso   1.000  H
  H273     1.0000 0.28092  0.36170  0.04528  Biso   1.000  H
  H274     1.0000 0.02576  0.71954  0.65788  Biso   1.000  H
  H275     1.0000 0.17487  0.47197  0.29192  Biso   1.000  H
  H276     1.0000 0.80586  0.33870  0.50011  Biso   1.000  H
  H277     1.0000 0.01767  0.75560  0.15160  Biso   1.000  H
  H278     1.0000 0.16903  0.00337  0.79746  Biso   1.000  H
  H279     1.0000 0.77691  0.12271  0.01039  Biso   1.000  H
  H280     1.0000 0.51474  0.75977  0.38708  Biso   1.000  H
  H281     1.0000 0.66965  0.00196  0.74083  Biso   1.000  H
  H282     1.0000 0.30010  0.13331  0.52038  Biso   1.000  H
  H283     1.0000 0.50051  0.26100  0.14923  Biso   1.000  H
  H284     1.0000 0.37924  0.48281  0.78677  Biso   1.000  H
  H285     1.0000 0.75834  0.62176  0.03178  Biso   1.000  H
  H286     1.0000 0.03295  0.25774  0.38139  Biso   1.000  H
  H287     1.0000 0.88349  0.51135  0.74682  Biso   1.000  H
  H288     1.0000 0.25004  0.63474  0.53676  Biso   1.000  H
  H289     1.0000 0.09535  0.21711  0.03672  Biso   1.000  H
  H290     1.0000 0.98724  0.07301  0.26360  Biso   1.000  H
  H291     1.0000 0.24080  0.99192  0.12640  Biso   1.000  H
  H292     1.0000 0.61984  0.22073  0.52448  Biso   1.000  H
  H293     1.0000 0.50144  0.07901  0.28463  Biso   1.000  H
  H294     1.0000 0.74487  0.00383  0.42064  Biso   1.000  H
  H295     1.0000 0.43831  0.72462  0.02695  Biso   1.000  H
  H296     1.0000 0.50977  0.57055  0.25243  Biso   1.000  H
  H297     1.0000 0.29630  0.49718  0.11462  Biso   1.000  H
  H298     1.0000 0.92793  0.71834  0.51654  Biso   1.000  H
  H299     1.0000 0.03643  0.57398  0.28143  Biso   1.000  H
  H300     1.0000 0.79486  0.49097  0.42492  Biso   1.000  H
  H301     1.0000 0.93648  0.75816  0.00470  Biso   1.000  H
  H302     1.0000 0.03691  0.91187  0.79000  Biso   1.000  H
  H303     1.0000 0.78923  0.96666  0.91071  Biso   1.000  H
  H304     1.0000 0.43113  0.75965  0.54637  Biso   1.000  H
  H305     1.0000 0.52648  0.90366  0.75535  Biso   1.000  H
  H306     1.0000 0.29338  0.00263  0.61914  Biso   1.000  H
  H307     1.0000 0.59266  0.26062  0.00870  Biso   1.000  H
  H308     1.0000 0.54453  0.40127  0.78158  Biso   1.000  H
  H309     1.0000 0.75257  0.49123  0.92382  Biso   1.000  H
  H310     1.0000 0.12461  0.26018  0.53703  Biso   1.000  H
  H311     1.0000 0.01754  0.40927  0.75249  Biso   1.000  H
  H312     1.0000 0.25222  0.50465  0.60872  Biso   1.000  H
  H313     1.0000 0.24854  0.98918  0.94333  Biso   1.000  H
  H314     1.0000 0.91633  0.21110  0.03634  Biso   1.000  H
  H315     1.0000 0.02396  0.89367  0.23887  Biso   1.000  H
  H316     1.0000 0.75157  0.98448  0.59710  Biso   1.000  H
  H317     1.0000 0.43731  0.21868  0.50587  Biso   1.000  H
  H318     1.0000 0.51804  0.89545  0.29204  Biso   1.000  H
  H319     1.0000 0.29568  0.49254  0.92890  Biso   1.000  H
  H320     1.0000 0.61994  0.70821  0.04064  Biso   1.000  H
  H321     1.0000 0.55844  0.38967  0.23297  Biso   1.000  H
  H322     1.0000 0.79663  0.48242  0.60802  Biso   1.000  H
  H323     1.0000 0.10843  0.71688  0.54482  Biso   1.000  H
  H324     1.0000 0.98873  0.39748  0.30777  Biso   1.000  H
  H325     1.0000 0.78904  0.99086  0.09699  Biso   1.000  H
  H326     1.0000 0.11321  0.76679  0.00316  Biso   1.000  H
  H327     1.0000 0.02829  0.08829  0.80115  Biso   1.000  H
  H328     1.0000 0.29267  0.97814  0.44258  Biso   1.000  H
  H329     1.0000 0.61304  0.76536  0.53260  Biso   1.000  H
  H330     1.0000 0.53835  0.08764  0.74819  Biso   1.000  H
  H331     1.0000 0.75570  0.47979  0.10286  Biso   1.000  H
  H332     1.0000 0.41403  0.26781  0.02742  Biso   1.000  H
  H333     1.0000 0.50360  0.58394  0.79478  Biso   1.000  H
  H334     1.0000 0.25914  0.50979  0.42441  Biso   1.000  H
  H335     1.0000 0.94528  0.25800  0.52303  Biso   1.000  H
  H336     1.0000 0.03685  0.58297  0.74177  Biso   1.000  H
  H337     1.0000 0.02225  0.22333  0.94439  Biso   1.000  H
  H338     1.0000 0.91378  0.97151  0.24762  Biso   1.000  H
  H339     1.0000 0.24871  0.90582  0.05427  Biso   1.000  H
  H340     1.0000 0.53358  0.22224  0.60616  Biso   1.000  H
  H341     1.0000 0.41631  0.99895  0.29422  Biso   1.000  H
  H342     1.0000 0.75601  0.89702  0.50380  Biso   1.000  H
  H343     1.0000 0.52994  0.71841  0.93401  Biso   1.000  H
  H344     1.0000 0.61568  0.49412  0.23989  Biso   1.000  H
  H345     1.0000 0.28404  0.41459  0.03911  Biso   1.000  H
  H346     1.0000 0.02274  0.72123  0.60408  Biso   1.000  H
  H347     1.0000 0.11861  0.47079  0.29175  Biso   1.000  H
  H348     1.0000 0.80456  0.39246  0.49973  Biso   1.000  H
  H349     1.0000 0.01415  0.75529  0.10122  Biso   1.000  H
  H350     1.0000 0.11545  0.00414  0.79725  Biso   1.000  H
  H351     1.0000 0.78036  0.07075  0.00740  Biso   1.000  H
  H352     1.0000 0.52365  0.76309  0.43849  Biso   1.000  H
  H353     1.0000 0.61477  0.00528  0.73811  Biso   1.000  H
  H354     1.0000 0.29737  0.08029  0.53275  Biso   1.000  H
  H355     1.0000 0.48943  0.26729  0.09351  Biso   1.000  H
  H356     1.0000 0.43430  0.48844  0.78959  Biso   1.000  H
  H357     1.0000 0.75514  0.56689  0.02244  Biso   1.000  H
  H358     1.0000 0.04838  0.25681  0.43274  Biso   1.000  H
  H359     1.0000 0.93668  0.50867  0.74691  Biso   1.000  H
  H360     1.0000 0.25320  0.58259  0.52079  Biso   1.000  H
  H361     1.0000 0.01794  0.71398  0.42419  Biso   1.000  H
  H362     1.0000 0.43855  0.99880  0.75416  Biso   1.000  H
  H363     1.0000 0.74694  0.38547  0.00997  Biso   1.000  H
  H364     1.0000 0.53709  0.71646  0.11784  Biso   1.000  H
  H365     1.0000 0.93920  0.02461  0.79393  Biso   1.000  H
  H366     1.0000 0.25958  0.39966  0.51127  Biso   1.000  H
  H367     1.0000 0.52965  0.22104  0.42240  Biso   1.000  H
  H368     1.0000 0.11301  0.49487  0.74399  Biso   1.000  H
  H369     1.0000 0.78900  0.88830  0.01745  Biso   1.000  H
  H370     1.0000 0.00417  0.21376  0.13007  Biso   1.000  H
  H371     1.0000 0.61072  0.50323  0.78442  Biso   1.000  H
  H372     1.0000 0.29133  0.89776  0.54675  Biso   1.000  H
  H373     1.0000 0.02280  0.26300  0.62008  Biso   1.000  H
  H374     1.0000 0.60525  0.98592  0.28279  Biso   1.000  H
  H375     1.0000 0.29615  0.59139  0.02547  Biso   1.000  H
  H376     1.0000 0.49527  0.26334  0.91431  Biso   1.000  H
  H377     1.0000 0.09419  0.98627  0.25808  Biso   1.000  H
  H378     1.0000 0.79476  0.57234  0.53344  Biso   1.000  H
  H379     1.0000 0.53068  0.76738  0.61037  Biso   1.000  H
  H380     1.0000 0.93824  0.49733  0.28964  Biso   1.000  H
  H381     1.0000 0.24229  0.08776  0.03005  Biso   1.000  H
  H382     1.0000 0.01454  0.76260  0.91944  Biso   1.000  H
  H383     1.0000 0.44090  0.45903  0.24201  Biso   1.000  H
  H384     1.0000 0.75261  0.08166  0.50002  Biso   1.000  H
  H385     1.0000 0.25970  0.46350  0.35115  Biso   1.000  H
  H386     1.0000 0.30211  0.16106  0.48195  Biso   1.000  H
  H387     1.0000 0.50244  0.31924  0.23439  Biso   1.000  H
  H388     1.0000 0.70292  0.47770  0.24046  Biso   1.000  H
  H389     1.0000 0.82409  0.20199  0.05929  Biso   1.000  H
  H390     1.0000 0.99330  0.25876  0.36663  Biso   1.000  H
  H391     1.0000 0.33804  0.96751  0.30062  Biso   1.000  H
  H392     1.0000 0.19385  0.72071  0.52546  Biso   1.000  H
  H393     1.0000 0.98199  0.76492  0.18452  Biso   1.000  H
  H394     1.0000 0.77907  0.96781  0.18695  Biso   1.000  H
  H395     1.0000 0.75543  0.65742  0.06129  Biso   1.000  H
  H396     1.0000 0.54768  0.80695  0.30183  Biso   1.000  H
  H397     1.0000 0.80114  0.53075  0.68611  Biso   1.000  H
  H398     1.0000 0.74999  0.81839  0.54322  Biso   1.000  H
  H399     1.0000 0.53433  0.66397  0.79247  Biso   1.000  H
  H400     1.0000 0.35420  0.52028  0.79413  Biso   1.000  H
  H401     1.0000 0.25495  0.82974  0.01562  Biso   1.000  H
  H402     1.0000 0.06772  0.67439  0.73061  Biso   1.000  H
  H403     1.0000 0.75012  0.96471  0.68697  Biso   1.000  H
  H404     1.0000 0.81249  0.31377  0.53584  Biso   1.000  H
  H405     1.0000 0.99895  0.22714  0.86096  Biso   1.000  H
  H406     1.0000 0.24671  0.03004  0.86042  Biso   1.000  H
  H407     1.0000 0.28245  0.32291  0.00468  Biso   1.000  H
  H408     1.0000 0.50949  0.16987  0.74063  Biso   1.000  H
  H409     1.0000 0.30025  0.45232  0.18907  Biso   1.000  H
  H410     1.0000 0.19962  0.26083  0.48815  Biso   1.000  H
  H411     1.0000 0.49225  0.21902  0.33732  Biso   1.000  H
  H412     1.0000 0.85249  0.46865  0.28399  Biso   1.000  H
  H413     1.0000 0.68257  0.25317  0.97753  Biso   1.000  H
  H414     1.0000 0.97103  0.21548  0.20734  Biso   1.000  H
  H415     1.0000 0.18088  0.95651  0.25960  Biso   1.000  H
  H416     1.0000 0.34467  0.75297  0.52622  Biso   1.000  H
  H417     1.0000 0.99690  0.65341  0.28535  Biso   1.000  H
  H418     1.0000 0.74644  0.97676  0.33308  Biso   1.000  H
  H419     1.0000 0.85225  0.75781  0.04819  Biso   1.000  H
  H420     1.0000 0.48173  0.65818  0.24024  Biso   1.000  H
  H421     1.0000 0.74189  0.53515  0.84267  Biso   1.000  H
  H422     1.0000 0.79754  0.66073  0.56362  Biso   1.000  H
  H423     1.0000 0.55378  0.76660  0.69805  Biso   1.000  H
  H424     1.0000 0.20039  0.52759  0.73864  Biso   1.000  H
  H425     1.0000 0.35361  0.73078  0.99789  Biso   1.000  H
  H426     1.0000 0.04641  0.76344  0.84089  Biso   1.000  H
  H427     1.0000 0.79590  0.01584  0.84219  Biso   1.000  H
  H428     1.0000 0.75848  0.16357  0.53446  Biso   1.000  H
  H429     1.0000 0.05874  0.32534  0.75095  Biso   1.000  H
  H430     1.0000 0.35445  0.98068  0.75742  Biso   1.000  H
  H431     1.0000 0.18219  0.21766  0.00337  Biso   1.000  H
  H432     1.0000 0.50536  0.32057  0.77530  Biso   1.000  H
  H433     1.0000 0.29944  0.03962  0.70435  Biso   1.000  H
  H434     1.0000 0.73098  0.30625  0.04420  Biso   1.000  H
  H435     1.0000 0.04352  0.71825  0.33767  Biso   1.000  H
  H436     1.0000 0.85805  0.97626  0.77869  Biso   1.000  H
  H437     1.0000 0.25874  0.31582  0.54181  Biso   1.000  H
  H438     1.0000 0.55569  0.70357  0.20480  Biso   1.000  H
  H439     1.0000 0.25886  0.46473  0.69455  Biso   1.000  H
  H440     1.0000 0.79819  0.80172  0.97844  Biso   1.000  H
  H441     1.0000 0.54716  0.16024  0.28649  Biso   1.000  H
  H442     1.0000 0.70038  0.47472  0.78578  Biso   1.000  H
  H443     1.0000 0.29640  0.81617  0.58437  Biso   1.000  H
  H444     1.0000 0.02028  0.15395  0.26019  Biso   1.000  H
  H445     1.0000 0.67824  0.02489  0.28327  Biso   1.000  H
  H446     1.0000 0.30384  0.67068  0.06204  Biso   1.000  H
  H447     1.0000 0.98832  0.27067  0.70979  Biso   1.000  H
  H448     1.0000 0.23100  0.02344  0.21072  Biso   1.000  H
  H449     1.0000 0.84570  0.70697  0.49402  Biso   1.000  H
  H450     1.0000 0.54767  0.26749  0.84499  Biso   1.000  H
  H451     1.0000 0.80027  0.52254  0.34461  Biso   1.000  H
  H452     1.0000 0.23549  0.17392  0.06979  Biso   1.000  H
  H453     1.0000 0.49128  0.82425  0.74365  Biso   1.000  H
  H454     1.0000 0.36113  0.49677  0.25094  Biso   1.000  H
  H455     1.0000 0.70217  0.21404  0.47980  Biso   1.000  H
  H456     1.0000 0.00375  0.82913  0.78011  Biso   1.000  H
  H457     1.0000 0.69400  0.75768  0.49874  Biso   1.000  H
  H458     1.0000 0.49382  0.72402  0.85615  Biso   1.000  H
  H459     1.0000 0.85240  0.48012  0.75017  Biso   1.000  H
  H460     1.0000 0.19524  0.76161  0.05155  Biso   1.000  H
  H461     1.0000 0.98760  0.70770  0.68927  Biso   1.000  H
  H462     1.0000 0.29449  0.46064  0.84377  Biso   1.000  H
  H463     1.0000 0.86505  0.25490  0.48475  Biso   1.000  H
  H464     1.0000 0.05443  0.17204  0.80335  Biso   1.000  H
  H465     1.0000 0.70491  0.03534  0.73029  Biso   1.000  H
  H466     1.0000 0.33339  0.27597  0.07066  Biso   1.000  H
  H467     1.0000 0.56796  0.22135  0.68417  Biso   1.000  H
  H468     1.0000 0.20154  0.96902  0.79983  Biso   1.000  H
  H469     1.0000 0.35216  0.21152  0.54595  Biso   1.000  H
  H470     1.0000 0.53932  0.25077  0.17636  Biso   1.000  H
  H471     1.0000 0.20373  0.51103  0.28702  Biso   1.000  H
  H472     1.0000 0.79069  0.16012  0.97763  Biso   1.000  H
  H473     1.0000 0.02731  0.31608  0.29346  Biso   1.000  H
  H474     1.0000 0.76030  0.52807  0.18188  Biso   1.000  H
  H475     1.0000 0.24337  0.65563  0.57602  Biso   1.000  H
  H476     1.0000 0.05564  0.80664  0.23095  Biso   1.000  H
  H477     1.0000 0.27848  0.01493  0.35853  Biso   1.000  H
  H478     1.0000 0.69974  0.69815  0.99845  Biso   1.000  H
  H479     1.0000 0.48133  0.76044  0.35282  Biso   1.000  H
  H480     1.0000 0.84147  0.02416  0.23152  Biso   1.000  H
  N1       1.0000 0.70472  0.16835  0.50905  Biso   1.000  N
  N2       1.0000 0.52101  0.65900  0.20144  Biso   1.000  N
  N3       1.0000 0.20328  0.49264  0.69461  Biso   1.000  N
  N4       1.0000 0.18482  0.17036  0.03664  Biso   1.000  N
  N5       1.0000 0.02319  0.66288  0.33484  Biso   1.000  N
  N6       1.0000 0.69971  0.50276  0.83748  Biso   1.000  N
  N7       1.0000 0.84448  0.66031  0.52673  Biso   1.000  N
  N8       1.0000 0.99220  0.15975  0.21101  Biso   1.000  N
  N9       1.0000 0.34974  0.00853  0.70509  Biso   1.000  N
  N10      1.0000 0.35286  0.67598  0.02571  Biso   1.000  N
  N11      1.0000 0.51836  0.16693  0.33474  Biso   1.000  N
  N12      1.0000 0.84885  0.99436  0.83398  Biso   1.000  N
  N13      1.0000 0.34177  0.80961  0.54952  Biso   1.000  N
  N14      1.0000 0.52063  0.31736  0.83191  Biso   1.000  N
  N15      1.0000 0.85146  0.49511  0.33885  Biso   1.000  N
  N16      1.0000 0.84751  0.80726  0.01109  Biso   1.000  N
  N17      1.0000 0.02068  0.31967  0.70574  Biso   1.000  N
  N18      1.0000 0.35454  0.47697  0.19490  Biso   1.000  N
  N19      1.0000 0.20610  0.31337  0.51574  Biso   1.000  N
  N20      1.0000 0.02485  0.81875  0.83442  Biso   1.000  N
  N21      1.0000 0.69140  0.99893  0.33498  Biso   1.000  N
  N22      1.0000 0.68368  0.30377  0.00893  Biso   1.000  N
  N23      1.0000 0.52915  0.81866  0.69892  Biso   1.000  N
  N24      1.0000 0.18452  0.98807  0.21180  Biso   1.000  N
  N25      1.0000 0.85068  0.50225  0.69378  Biso   1.000  N
  N26      1.0000 0.70026  0.81019  0.51648  Biso   1.000  N
  N27      1.0000 0.51489  0.66965  0.84776  Biso   1.000  N
  N28      1.0000 0.34752  0.48808  0.84268  Biso   1.000  N
  N29      1.0000 0.19873  0.81736  0.03172  Biso   1.000  N
  N30      1.0000 0.02566  0.66818  0.69024  Biso   1.000  N
  N31      1.0000 0.70341  0.99554  0.68502  Biso   1.000  N
  N32      1.0000 0.85894  0.30833  0.51230  Biso   1.000  N
  N33      1.0000 0.02191  0.17599  0.85559  Biso   1.000  N
  N34      1.0000 0.19904  0.99938  0.85454  Biso   1.000  N
  N35      1.0000 0.33232  0.32519  0.03410  Biso   1.000  N
  N36      1.0000 0.53826  0.16925  0.69063  Biso   1.000  N
  N37      1.0000 0.20612  0.48475  0.34181  Biso   1.000  N
  N38      1.0000 0.35159  0.16303  0.51483  Biso   1.000  N
  N39      1.0000 0.52459  0.30845  0.18029  Biso   1.000  N
  N40      1.0000 0.70447  0.50118  0.18756  Biso   1.000  N
  N41      1.0000 0.83146  0.15794  0.01939  Biso   1.000  N
  N42      1.0000 0.01343  0.31274  0.35433  Biso   1.000  N
  N43      1.0000 0.33600  0.99382  0.35324  Biso   1.000  N
  N44      1.0000 0.19742  0.66363  0.54299  Biso   1.000  N
  N45      1.0000 0.01867  0.80873  0.18581  Biso   1.000  N
  N46      1.0000 0.83527  0.98756  0.18674  Biso   1.000  N
  N47      1.0000 0.70534  0.65500  0.03157  Biso   1.000  N
  N48      1.0000 0.51430  0.81079  0.34828  Biso   1.000  N
  O1       1.0000 0.36469  0.53902  0.02585  Biso   1.000  O
  O2       1.0000 0.02663  0.33376  0.57044  Biso   1.000  O
  O3       1.0000 0.55816  0.99312  0.35786  Biso   1.000  O
  O4       1.0000 0.86610  0.52755  0.51509  Biso   1.000  O
  O5       1.0000 0.50367  0.33595  0.96348  Biso   1.000  O
  O6       1.0000 0.05082  0.99091  0.18330  Biso   1.000  O
  O7       1.0000 0.17303  0.03358  0.03245  Biso   1.000  O
  O8       1.0000 0.52129  0.84033  0.56763  Biso   1.000  O
  O9       1.0000 0.98492  0.49530  0.36191  Biso   1.000  O
  O10      1.0000 0.68229  0.03250  0.50967  Biso   1.000  O
  O11      1.0000 0.02423  0.83526  0.96768  Biso   1.000  O
  O12      1.0000 0.48908  0.47475  0.17190  Biso   1.000  O
  O13      1.0000 0.67611  0.43777  0.01062  Biso   1.000  O
  O14      1.0000 0.02324  0.64123  0.47105  Biso   1.000  O
  O15      1.0000 0.48316  0.99231  0.67955  Biso   1.000  O
  O16      1.0000 0.18790  0.44660  0.50706  Biso   1.000  O
  O17      1.0000 0.51943  0.64377  0.06522  Biso   1.000  O
  O18      1.0000 0.98080  0.99454  0.86455  Biso   1.000  O
  O19      1.0000 0.85882  0.94139  0.00411  Biso   1.000  O
  O20      1.0000 0.53026  0.14807  0.46956  Biso   1.000  O
  O21      1.0000 0.06836  0.49194  0.67358  Biso   1.000  O
  O22      1.0000 0.36172  0.94395  0.52826  Biso   1.000  O
  O23      1.0000 0.00558  0.14017  0.07486  Biso   1.000  O
  O24      1.0000 0.56545  0.49070  0.86197  Biso   1.000  O
  O25      1.0000 0.96838  0.98322  0.18149  Biso   1.000  O
  O26      1.0000 0.17547  0.95044  0.03319  Biso   1.000  O
  O27      1.0000 0.00361  0.14432  0.98869  Biso   1.000  O
  O28      1.0000 0.47219  0.99154  0.36147  Biso   1.000  O
  O29      1.0000 0.68266  0.94680  0.51498  Biso   1.000  O
  O30      1.0000 0.52624  0.14828  0.55371  Biso   1.000  O
  O31      1.0000 0.56908  0.49014  0.16885  Biso   1.000  O
  O32      1.0000 0.36148  0.45569  0.01246  Biso   1.000  O
  O33      1.0000 0.52877  0.64436  0.98232  Biso   1.000  O
  O34      1.0000 0.06982  0.48311  0.36479  Biso   1.000  O
  O35      1.0000 0.87498  0.44256  0.51245  Biso   1.000  O
  O36      1.0000 0.01392  0.64789  0.55503  Biso   1.000  O
  O37      1.0000 0.06482  0.99513  0.86520  Biso   1.000  O
  O38      1.0000 0.85294  0.02677  0.00371  Biso   1.000  O
  O39      1.0000 0.01595  0.83076  0.05097  Biso   1.000  O
  O40      1.0000 0.56566  0.99142  0.66949  Biso   1.000  O
  O41      1.0000 0.36916  0.02887  0.52723  Biso   1.000  O
  O42      1.0000 0.52144  0.83712  0.48295  Biso   1.000  O
  O43      1.0000 0.48227  0.49249  0.85854  Biso   1.000  O
  O44      1.0000 0.68276  0.52181  0.01630  Biso   1.000  O
  O45      1.0000 0.51034  0.33817  0.04783  Biso   1.000  O
  O46      1.0000 0.98462  0.49604  0.67627  Biso   1.000  O
  O47      1.0000 0.18416  0.52894  0.52609  Biso   1.000  O
  O48      1.0000 0.03320  0.32958  0.48701  Biso   1.000  O
  O49      1.0000 0.00872  0.94475  0.17222  Biso   1.000  O
  O50      1.0000 0.17611  0.99345  0.98759  Biso   1.000  O
  O51      1.0000 0.96417  0.13717  0.03223  Biso   1.000  O
  O52      1.0000 0.52018  0.94714  0.35991  Biso   1.000  O
  O53      1.0000 0.68290  0.99141  0.55260  Biso   1.000  O
  O54      1.0000 0.48846  0.14638  0.51174  Biso   1.000  O
  O55      1.0000 0.53698  0.44147  0.16623  Biso   1.000  O
  O56      1.0000 0.36634  0.50039  0.97600  Biso   1.000  O
  O57      1.0000 0.56596  0.64006  0.03023  Biso   1.000  O
  O58      1.0000 0.02181  0.44843  0.36958  Biso   1.000  O
  O59      1.0000 0.86958  0.48591  0.55817  Biso   1.000  O
  O60      1.0000 0.06227  0.64693  0.52121  Biso   1.000  O
  O61      1.0000 0.01862  0.03894  0.86986  Biso   1.000  O
  O62      1.0000 0.85695  0.98193  0.04908  Biso   1.000  O
  O63      1.0000 0.06494  0.83570  0.01747  Biso   1.000  O
  O64      1.0000 0.52641  0.03581  0.67746  Biso   1.000  O
  O65      1.0000 0.36657  0.98227  0.48601  Biso   1.000  O
  O66      1.0000 0.56392  0.83884  0.52577  Biso   1.000  O
  O67      1.0000 0.52305  0.53295  0.86598  Biso   1.000  O
  O68      1.0000 0.68180  0.47848  0.05570  Biso   1.000  O
  O69      1.0000 0.46382  0.33747  0.00346  Biso   1.000  O
  O70      1.0000 0.02725  0.53210  0.67215  Biso   1.000  O
  O71      1.0000 0.18725  0.49770  0.47567  Biso   1.000  O
  O72      1.0000 0.99071  0.33071  0.52237  Biso   1.000  O
  O73      1.0000 0.02781  0.45197  0.67648  Biso   1.000  O
  O74      1.0000 0.67809  0.98712  0.47165  Biso   1.000  O
  O75      1.0000 0.48509  0.65058  0.01805  Biso   1.000  O
  O76      1.0000 0.52768  0.44804  0.85611  Biso   1.000  O
  O77      1.0000 0.16987  0.99264  0.07508  Biso   1.000  O
  O78      1.0000 0.97731  0.64461  0.50558  Biso   1.000  O
  O79      1.0000 0.52329  0.95138  0.68351  Biso   1.000  O
  O80      1.0000 0.86900  0.49185  0.47462  Biso   1.000  O
  O81      1.0000 0.04722  0.14354  0.03500  Biso   1.000  O
  O82      1.0000 0.02574  0.95313  0.86574  Biso   1.000  O
  O83      1.0000 0.36808  0.49377  0.06200  Biso   1.000  O
  O84      1.0000 0.57083  0.14903  0.51228  Biso   1.000  O
  O85      1.0000 0.02971  0.52972  0.35870  Biso   1.000  O
  O86      1.0000 0.36761  0.99124  0.57092  Biso   1.000  O
  O87      1.0000 0.55011  0.33746  0.99809  Biso   1.000  O
  O88      1.0000 0.52217  0.52478  0.17591  Biso   1.000  O
  O89      1.0000 0.85233  0.98542  0.96746  Biso   1.000  O
  O90      1.0000 0.07427  0.33191  0.53461  Biso   1.000  O
  O91      1.0000 0.51275  0.03086  0.35834  Biso   1.000  O
  O92      1.0000 0.18422  0.48041  0.55812  Biso   1.000  O
  O93      1.0000 0.98210  0.83099  0.00893  Biso   1.000  O
  O94      1.0000 0.00496  0.02798  0.18807  Biso   1.000  O
  O95      1.0000 0.68209  0.48558  0.97060  Biso   1.000  O
  O96      1.0000 0.47604  0.83427  0.52679  Biso   1.000  O
  O97      1.0000 0.48518  0.19557  0.51076  Biso   1.000  O
  O98      1.0000 0.54285  0.44161  0.21448  Biso   1.000  O
  O99      1.0000 0.23686  0.49800  0.47465  Biso   1.000  O
  O100     1.0000 0.96421  0.18609  0.03400  Biso   1.000  O
  O101     1.0000 0.01811  0.44161  0.32177  Biso   1.000  O
  O102     1.0000 0.72932  0.47388  0.05412  Biso   1.000  O
  O103     1.0000 0.06184  0.69555  0.52238  Biso   1.000  O
  O104     1.0000 0.00558  0.93964  0.22074  Biso   1.000  O
  O105     1.0000 0.31857  0.98452  0.48961  Biso   1.000  O
  O106     1.0000 0.57081  0.68848  0.02950  Biso   1.000  O
  O107     1.0000 0.51563  0.94357  0.31140  Biso   1.000  O
  O108     1.0000 0.80919  0.97838  0.05343  Biso   1.000  O
  O109     1.0000 0.56422  0.78934  0.52909  Biso   1.000  O
  O110     1.0000 0.51738  0.53361  0.81734  Biso   1.000  O
  O111     1.0000 0.82179  0.48094  0.55921  Biso   1.000  O
  O112     1.0000 0.06655  0.78726  0.01214  Biso   1.000  O
  O113     1.0000 0.03121  0.53599  0.72073  Biso   1.000  O
  O114     1.0000 0.31826  0.49887  0.97803  Biso   1.000  O
  O115     1.0000 0.99308  0.28261  0.52569  Biso   1.000  O
  O116     1.0000 0.02779  0.03986  0.82069  Biso   1.000  O
  O117     1.0000 0.73189  0.98677  0.55282  Biso   1.000  O
  O118     1.0000 0.46380  0.28975  0.01083  Biso   1.000  O
  O119     1.0000 0.53268  0.03793  0.72632  Biso   1.000  O
  O120     1.0000 0.22516  0.99282  0.99103  Biso   1.000  O
  O121     1.0000 0.06835  0.49623  0.72095  Biso   1.000  O
  O122     1.0000 0.73111  0.03386  0.51201  Biso   1.000  O
  O123     1.0000 0.52576  0.69150  0.06747  Biso   1.000  O
  O124     1.0000 0.56361  0.49893  0.81343  Biso   1.000  O
  O125     1.0000 0.22317  0.03775  0.02648  Biso   1.000  O
  O126     1.0000 0.02321  0.69146  0.47071  Biso   1.000  O
  O127     1.0000 0.48749  0.99722  0.72826  Biso   1.000  O
  O128     1.0000 0.81801  0.52430  0.51528  Biso   1.000  O
  O129     1.0000 0.00760  0.18852  0.07684  Biso   1.000  O
  O130     1.0000 0.98257  0.99628  0.81538  Biso   1.000  O
  O131     1.0000 0.31545  0.54328  0.02288  Biso   1.000  O
  O132     1.0000 0.52786  0.19749  0.46993  Biso   1.000  O
  O133     1.0000 0.98630  0.49258  0.31297  Biso   1.000  O
  O134     1.0000 0.31276  0.94363  0.53338  Biso   1.000  O
  O135     1.0000 0.49953  0.28637  0.96335  Biso   1.000  O
  O136     1.0000 0.49090  0.47438  0.22023  Biso   1.000  O
  O137     1.0000 0.81045  0.93983  0.01040  Biso   1.000  O
  O138     1.0000 0.03004  0.28550  0.57220  Biso   1.000  O
  O139     1.0000 0.55759  0.98993  0.30863  Biso   1.000  O
  O140     1.0000 0.23646  0.44707  0.51266  Biso   1.000  O
  O141     1.0000 0.02850  0.78549  0.96617  Biso   1.000  O
  O142     1.0000 0.04877  0.98320  0.23085  Biso   1.000  O
  O143     1.0000 0.72531  0.43824  0.00871  Biso   1.000  O
  O144     1.0000 0.52197  0.79098  0.56805  Biso   1.000  O
  O145     1.0000 0.56993  0.48851  0.21903  Biso   1.000  O
  O146     1.0000 0.23268  0.53342  0.52071  Biso   1.000  O
  O147     1.0000 0.52778  0.19906  0.55422  Biso   1.000  O
  O148     1.0000 0.06882  0.47012  0.31791  Biso   1.000  O
  O149     1.0000 0.73214  0.52064  0.01877  Biso   1.000  O
  O150     1.0000 0.00611  0.19249  0.99260  Biso   1.000  O
  O151     1.0000 0.96291  0.97575  0.22876  Biso   1.000  O
  O152     1.0000 0.31988  0.03016  0.52927  Biso   1.000  O
  O153     1.0000 0.01390  0.69808  0.55240  Biso   1.000  O
  O154     1.0000 0.46973  0.98616  0.31252  Biso   1.000  O
  O155     1.0000 0.80553  0.01963  0.00960  Biso   1.000  O
  O156     1.0000 0.53034  0.69296  0.98356  Biso   1.000  O
  O157     1.0000 0.48180  0.49236  0.80943  Biso   1.000  O
  O158     1.0000 0.82565  0.44062  0.51299  Biso   1.000  O
  O159     1.0000 0.52043  0.78832  0.48366  Biso   1.000  O
  O160     1.0000 0.98435  0.49966  0.72442  Biso   1.000  O
  O161     1.0000 0.31258  0.46155  0.01970  Biso   1.000  O
  O162     1.0000 0.01930  0.78140  0.04914  Biso   1.000  O
  O163     1.0000 0.06704  0.99978  0.81624  Biso   1.000  O
  O164     1.0000 0.73259  0.94782  0.51134  Biso   1.000  O
  O165     1.0000 0.03986  0.28100  0.48851  Biso   1.000  O
  O166     1.0000 0.56994  0.99384  0.71861  Biso   1.000  O
  O167     1.0000 0.22432  0.95284  0.03851  Biso   1.000  O
  O168     1.0000 0.50797  0.28864  0.04641  Biso   1.000  O
  O169     1.0000 0.00483  0.02275  0.23733  Biso   1.000  O
  O170     1.0000 0.21977  0.99421  0.07547  Biso   1.000  O
  O171     1.0000 0.04849  0.19321  0.03635  Biso   1.000  O
  O172     1.0000 0.51001  0.03072  0.30836  Biso   1.000  O
  O173     1.0000 0.72578  0.99523  0.46904  Biso   1.000  O
  O174     1.0000 0.57174  0.19928  0.50896  Biso   1.000  O
  O175     1.0000 0.52192  0.52162  0.22411  Biso   1.000  O
  O176     1.0000 0.31929  0.50056  0.06403  Biso   1.000  O
  O177     1.0000 0.48772  0.69862  0.02802  Biso   1.000  O
  O178     1.0000 0.03825  0.52294  0.31128  Biso   1.000  O
  O179     1.0000 0.82246  0.48103  0.47394  Biso   1.000  O
  O180     1.0000 0.97816  0.69274  0.50773  Biso   1.000  O
  O181     1.0000 0.02884  0.95761  0.81722  Biso   1.000  O
  O182     1.0000 0.80383  0.97871  0.96488  Biso   1.000  O
  O183     1.0000 0.98340  0.78244  0.00218  Biso   1.000  O
  O184     1.0000 0.52941  0.95359  0.73157  Biso   1.000  O
  O185     1.0000 0.31778  0.99086  0.57130  Biso   1.000  O
  O186     1.0000 0.47619  0.78541  0.52815  Biso   1.000  O
  O187     1.0000 0.52322  0.45243  0.80749  Biso   1.000  O
  O188     1.0000 0.73035  0.48410  0.97199  Biso   1.000  O
  O189     1.0000 0.54675  0.28914  0.00272  Biso   1.000  O
  O190     1.0000 0.02681  0.45519  0.72588  Biso   1.000  O
  O191     1.0000 0.23087  0.48429  0.55766  Biso   1.000  O
  O192     1.0000 0.07525  0.28280  0.54008  Biso   1.000  O
