data_image0
_cell_length_a       47.3384
_cell_length_b       46.634
_cell_length_c       46.5908
_cell_angle_alpha    90
_cell_angle_beta     90
_cell_angle_gamma    90

_symmetry_space_group_name_H-M    "P 1"
_symmetry_int_tables_number       1

loop_
  _symmetry_equiv_pos_as_xyz
  'x, y, z'

loop_
  _atom_site_label
  _atom_site_occupancy
  _atom_site_fract_x
  _atom_site_fract_y
  _atom_site_fract_z
  _atom_site_thermal_displace_type
  _atom_site_B_iso_or_equiv
  _atom_site_type_symbol
  C1       1.0000 0.53394  0.97798  0.33440  Biso   1.000  C
  C2       1.0000 0.31812  0.54096  0.03146  Biso   1.000  C
  C3       1.0000 0.00795  0.29461  0.56817  Biso   1.000  C
  C4       1.0000 0.03660  0.98039  0.20529  Biso   1.000  C
  C5       1.0000 0.81502  0.52042  0.49669  Biso   1.000  C
  C6       1.0000 0.49588  0.29412  0.96116  Biso   1.000  C
  C7       1.0000 0.95056  0.48410  0.32630  Biso   1.000  C
  C8       1.0000 0.17350  0.04059  0.02154  Biso   1.000  C
  C9       1.0000 0.48395  0.79292  0.57046  Biso   1.000  C
  C10      1.0000 0.45459  0.47206  0.19368  Biso   1.000  C
  C11      1.0000 0.67296  0.02251  0.49673  Biso   1.000  C
  C12      1.0000 0.00662  0.79123  0.96010  Biso   1.000  C
  C13      1.0000 0.46138  0.97407  0.69757  Biso   1.000  C
  C14      1.0000 0.67438  0.41085  0.00748  Biso   1.000  C
  C15      1.0000 0.99215  0.65254  0.45755  Biso   1.000  C
  C16      1.0000 0.95682  0.96699  0.83254  Biso   1.000  C
  C17      1.0000 0.17504  0.43066  0.53033  Biso   1.000  C
  C18      1.0000 0.51033  0.66608  0.07139  Biso   1.000  C
  C19      1.0000 0.04447  0.46997  0.70014  Biso   1.000  C
  C20      1.0000 0.81972  0.91242  0.00162  Biso   1.000  C
  C21      1.0000 0.48609  0.16085  0.46063  Biso   1.000  C
  C22      1.0000 0.54222  0.46146  0.83204  Biso   1.000  C
  C23      1.0000 0.32227  0.92737  0.52554  Biso   1.000  C
  C24      1.0000 0.98770  0.15418  0.06465  Biso   1.000  C
  C25      1.0000 0.31599  0.03455  0.53586  Biso   1.000  C
  C26      1.0000 0.48134  0.29939  0.07055  Biso   1.000  C
  C27      1.0000 0.05956  0.48108  0.33187  Biso   1.000  C
  C28      1.0000 0.81122  0.01961  0.99991  Biso   1.000  C
  C29      1.0000 0.00680  0.29843  0.45674  Biso   1.000  C
  C30      1.0000 0.56122  0.49025  0.19462  Biso   1.000  C
  C31      1.0000 0.17398  0.53905  0.52004  Biso   1.000  C
  C32      1.0000 0.00889  0.79962  0.06718  Biso   1.000  C
  C33      1.0000 0.42484  0.97890  0.34015  Biso   1.000  C
  C34      1.0000 0.67968  0.52103  0.00298  Biso   1.000  C
  C35      1.0000 0.50103  0.80122  0.46258  Biso   1.000  C
  C36      1.0000 0.92706  0.97851  0.19573  Biso   1.000  C
  C37      1.0000 0.67800  0.91664  0.50419  Biso   1.000  C
  C38      1.0000 0.50142  0.65313  0.96310  Biso   1.000  C
  C39      1.0000 0.93769  0.47182  0.69291  Biso   1.000  C
  C40      1.0000 0.18065  0.93168  0.02945  Biso   1.000  C
  C41      1.0000 0.98989  0.65235  0.56703  Biso   1.000  C
  C42      1.0000 0.43298  0.47608  0.84058  Biso   1.000  C
  C43      1.0000 0.82689  0.41154  0.49879  Biso   1.000  C
  C44      1.0000 0.98279  0.15566  0.95652  Biso   1.000  C
  C45      1.0000 0.57051  0.96569  0.69314  Biso   1.000  C
  C46      1.0000 0.31282  0.43335  0.02123  Biso   1.000  C
  C47      1.0000 0.51546  0.15273  0.56843  Biso   1.000  C
  C48      1.0000 0.06532  0.97390  0.83762  Biso   1.000  C
  C49      1.0000 0.01000  0.02739  0.83609  Biso   1.000  C
  C50      1.0000 0.81166  0.96907  0.05738  Biso   1.000  C
  C51      1.0000 0.06195  0.79688  0.01018  Biso   1.000  C
  C52      1.0000 0.51982  0.02404  0.69576  Biso   1.000  C
  C53      1.0000 0.30996  0.98485  0.47735  Biso   1.000  C
  C54      1.0000 0.54616  0.79298  0.52025  Biso   1.000  C
  C55      1.0000 0.49651  0.52360  0.83859  Biso   1.000  C
  C56      1.0000 0.67700  0.46904  0.05942  Biso   1.000  C
  C57      1.0000 0.43322  0.29969  0.00929  Biso   1.000  C
  C58      1.0000 0.99218  0.52505  0.69811  Biso   1.000  C
  C59      1.0000 0.17215  0.48308  0.46860  Biso   1.000  C
  C60      1.0000 0.95103  0.29281  0.51519  Biso   1.000  C
  C61      1.0000 0.98495  0.92282  0.20120  Biso   1.000  C
  C62      1.0000 0.18214  0.98317  0.96953  Biso   1.000  C
  C63      1.0000 0.92861  0.15139  0.01273  Biso   1.000  C
  C64      1.0000 0.47853  0.92437  0.33099  Biso   1.000  C
  C65      1.0000 0.67982  0.96759  0.55583  Biso   1.000  C
  C66      1.0000 0.44795  0.15870  0.52947  Biso   1.000  C
  C67      1.0000 0.51409  0.42736  0.19433  Biso   1.000  C
  C68      1.0000 0.31092  0.48948  0.97073  Biso   1.000  C
  C69      1.0000 0.55774  0.65210  0.01070  Biso   1.000  C
  C70      1.0000 0.00427  0.42809  0.33255  Biso   1.000  C
  C71      1.0000 0.82058  0.46713  0.55631  Biso   1.000  C
  C72      1.0000 0.04230  0.65452  0.50762  Biso   1.000  C
  C73      1.0000 0.01290  0.53635  0.32358  Biso   1.000  C
  C74      1.0000 0.32363  0.97722  0.58575  Biso   1.000  C
  C75      1.0000 0.53979  0.29252  0.02262  Biso   1.000  C
  C76      1.0000 0.50099  0.53604  0.19203  Biso   1.000  C
  C77      1.0000 0.82113  0.96462  0.94794  Biso   1.000  C
  C78      1.0000 0.06048  0.29839  0.51070  Biso   1.000  C
  C79      1.0000 0.48193  0.03418  0.33569  Biso   1.000  C
  C80      1.0000 0.17655  0.48588  0.57860  Biso   1.000  C
  C81      1.0000 0.95118  0.79102  0.01340  Biso   1.000  C
  C82      1.0000 0.98278  0.03189  0.19695  Biso   1.000  C
  C83      1.0000 0.67233  0.46569  0.95091  Biso   1.000  C
  C84      1.0000 0.43778  0.79651  0.50562  Biso   1.000  C
  C85      1.0000 0.98978  0.41534  0.69689  Biso   1.000  C
  C86      1.0000 0.67265  0.96920  0.44671  Biso   1.000  C
  C87      1.0000 0.44938  0.66185  0.02423  Biso   1.000  C
  C88      1.0000 0.48228  0.41680  0.83764  Biso   1.000  C
  C89      1.0000 0.17309  0.98592  0.07990  Biso   1.000  C
  C90      1.0000 0.93498  0.65177  0.51406  Biso   1.000  C
  C91      1.0000 0.51498  0.91482  0.69267  Biso   1.000  C
  C92      1.0000 0.81742  0.46457  0.44707  Biso   1.000  C
  C93      1.0000 0.03811  0.15600  0.00600  Biso   1.000  C
  C94      1.0000 0.01505  0.91743  0.83770  Biso   1.000  C
  C95      1.0000 0.31794  0.48219  0.07927  Biso   1.000  C
  C96      1.0000 0.55083  0.15367  0.50240  Biso   1.000  C
  C97      1.0000 0.67219  0.05414  0.49807  Biso   1.000  C
  C98      1.0000 0.51950  0.66561  0.10214  Biso   1.000  C
  C99      1.0000 0.07703  0.46764  0.70160  Biso   1.000  C
  C100     1.0000 0.17068  0.07207  0.02104  Biso   1.000  C
  C101     1.0000 0.00016  0.65507  0.42588  Biso   1.000  C
  C102     1.0000 0.57307  0.46105  0.82826  Biso   1.000  C
  C103     1.0000 0.81385  0.55311  0.49705  Biso   1.000  C
  C104     1.0000 0.98816  0.15436  0.09703  Biso   1.000  C
  C105     1.0000 0.42899  0.97785  0.69989  Biso   1.000  C
  C106     1.0000 0.31921  0.57287  0.03432  Biso   1.000  C
  C107     1.0000 0.48208  0.16111  0.42882  Biso   1.000  C
  C108     1.0000 0.92473  0.96135  0.83014  Biso   1.000  C
  C109     1.0000 0.31984  0.89505  0.52467  Biso   1.000  C
  C110     1.0000 0.50013  0.29212  0.92919  Biso   1.000  C
  C111     1.0000 0.91830  0.48378  0.32497  Biso   1.000  C
  C112     1.0000 0.82115  0.88107  0.00390  Biso   1.000  C
  C113     1.0000 0.00934  0.29482  0.60004  Biso   1.000  C
  C114     1.0000 0.42286  0.46302  0.19510  Biso   1.000  C
  C115     1.0000 0.17764  0.39971  0.53419  Biso   1.000  C
  C116     1.0000 0.00576  0.78985  0.92879  Biso   1.000  C
  C117     1.0000 0.56655  0.97703  0.33148  Biso   1.000  C
  C118     1.0000 0.67315  0.37819  0.01065  Biso   1.000  C
  C119     1.0000 0.48867  0.78952  0.60228  Biso   1.000  C
  C120     1.0000 0.07000  0.98169  0.20530  Biso   1.000  C
  C121     1.0000 0.80996  0.97723  0.08810  Biso   1.000  C
  C122     1.0000 0.09558  0.79653  0.00727  Biso   1.000  C
  C123     1.0000 0.00507  0.05952  0.83449  Biso   1.000  C
  C124     1.0000 0.30888  0.98245  0.44479  Biso   1.000  C
  C125     1.0000 0.57896  0.79166  0.51627  Biso   1.000  C
  C126     1.0000 0.52231  0.05643  0.69610  Biso   1.000  C
  C127     1.0000 0.67935  0.46887  0.09188  Biso   1.000  C
  C128     1.0000 0.40215  0.30150  0.00778  Biso   1.000  C
  C129     1.0000 0.49800  0.55567  0.83642  Biso   1.000  C
  C130     1.0000 0.17457  0.48304  0.43657  Biso   1.000  C
  C131     1.0000 0.91932  0.28985  0.51841  Biso   1.000  C
  C132     1.0000 0.99289  0.55639  0.69424  Biso   1.000  C
  C133     1.0000 0.18645  0.97708  0.93869  Biso   1.000  C
  C134     1.0000 0.89707  0.15143  0.01775  Biso   1.000  C
  C135     1.0000 0.98703  0.89156  0.20033  Biso   1.000  C
  C136     1.0000 0.68598  0.96122  0.58592  Biso   1.000  C
  C137     1.0000 0.41643  0.15875  0.53459  Biso   1.000  C
  C138     1.0000 0.48327  0.89268  0.33089  Biso   1.000  C
  C139     1.0000 0.30945  0.48240  0.93916  Biso   1.000  C
  C140     1.0000 0.59030  0.65107  0.01296  Biso   1.000  C
  C141     1.0000 0.51291  0.39531  0.19218  Biso   1.000  C
  C142     1.0000 0.81880  0.46741  0.58912  Biso   1.000  C
  C143     1.0000 0.07500  0.65692  0.50481  Biso   1.000  C
  C144     1.0000 0.00539  0.39540  0.33197  Biso   1.000  C
  C145     1.0000 0.32096  0.47398  0.10945  Biso   1.000  C
  C146     1.0000 0.09386  0.29945  0.51044  Biso   1.000  C
  C147     1.0000 0.48341  0.06692  0.33632  Biso   1.000  C
  C148     1.0000 0.81881  0.46658  0.41531  Biso   1.000  C
  C149     1.0000 0.57246  0.28746  0.01920  Biso   1.000  C
  C150     1.0000 0.97777  0.06347  0.19743  Biso   1.000  C
  C151     1.0000 0.17040  0.98755  0.11208  Biso   1.000  C
  C152     1.0000 0.40612  0.79714  0.50070  Biso   1.000  C
  C153     1.0000 0.01681  0.56754  0.32521  Biso   1.000  C
  C154     1.0000 0.66965  0.97110  0.41375  Biso   1.000  C
  C155     1.0000 0.92011  0.79104  0.00787  Biso   1.000  C
  C156     1.0000 0.50165  0.56808  0.19279  Biso   1.000  C
  C157     1.0000 0.67153  0.46225  0.91946  Biso   1.000  C
  C158     1.0000 0.90241  0.64999  0.51460  Biso   1.000  C
  C159     1.0000 0.51725  0.88243  0.69095  Biso   1.000  C
  C160     1.0000 0.17615  0.48195  0.61072  Biso   1.000  C
  C161     1.0000 0.41712  0.66464  0.02917  Biso   1.000  C
  C162     1.0000 0.01162  0.88498  0.83672  Biso   1.000  C
  C163     1.0000 0.82258  0.96449  0.91641  Biso   1.000  C
  C164     1.0000 0.58290  0.15411  0.50173  Biso   1.000  C
  C165     1.0000 0.99148  0.38319  0.69720  Biso   1.000  C
  C166     1.0000 0.32577  0.97476  0.61702  Biso   1.000  C
  C167     1.0000 0.07042  0.15865  0.00267  Biso   1.000  C
  C168     1.0000 0.48530  0.38456  0.83591  Biso   1.000  C
  C169     1.0000 0.01210  0.80101  0.09895  Biso   1.000  C
  C170     1.0000 0.09772  0.97059  0.83828  Biso   1.000  C
  C171     1.0000 0.80844  0.05157  0.00217  Biso   1.000  C
  C172     1.0000 0.50631  0.80394  0.43097  Biso   1.000  C
  C173     1.0000 0.60209  0.96276  0.69031  Biso   1.000  C
  C174     1.0000 0.31586  0.06669  0.53513  Biso   1.000  C
  C175     1.0000 0.48115  0.30013  0.10272  Biso   1.000  C
  C176     1.0000 0.40144  0.47656  0.84301  Biso   1.000  C
  C177     1.0000 0.68301  0.55251  0.00046  Biso   1.000  C
  C178     1.0000 0.00905  0.29706  0.42405  Biso   1.000  C
  C179     1.0000 0.90673  0.47300  0.69026  Biso   1.000  C
  C180     1.0000 0.17167  0.57062  0.52104  Biso   1.000  C
  C181     1.0000 0.98578  0.15565  0.92392  Biso   1.000  C
  C182     1.0000 0.89500  0.97766  0.19180  Biso   1.000  C
  C183     1.0000 0.18023  0.89884  0.03203  Biso   1.000  C
  C184     1.0000 0.51808  0.15268  0.60045  Biso   1.000  C
  C185     1.0000 0.39238  0.97673  0.34144  Biso   1.000  C
  C186     1.0000 0.67715  0.88469  0.50924  Biso   1.000  C
  C187     1.0000 0.50052  0.65195  0.93080  Biso   1.000  C
  C188     1.0000 0.59383  0.49195  0.19153  Biso   1.000  C
  C189     1.0000 0.31174  0.40171  0.02377  Biso   1.000  C
  C190     1.0000 0.98746  0.65283  0.59921  Biso   1.000  C
  C191     1.0000 0.09102  0.47943  0.33146  Biso   1.000  C
  C192     1.0000 0.82565  0.37990  0.49757  Biso   1.000  C
  C193     1.0000 0.85019  0.96213  0.90285  Biso   1.000  C
  C194     1.0000 0.90222  0.81735  0.00652  Biso   1.000  C
  C195     1.0000 0.01348  0.86766  0.86266  Biso   1.000  C
  C196     1.0000 0.35353  0.97775  0.62976  Biso   1.000  C
  C197     1.0000 0.39069  0.82461  0.50173  Biso   1.000  C
  C198     1.0000 0.50982  0.86543  0.66553  Biso   1.000  C
  C199     1.0000 0.64545  0.45852  0.90446  Biso   1.000  C
  C200     1.0000 0.59113  0.31371  0.02067  Biso   1.000  C
  C201     1.0000 0.49011  0.36918  0.86189  Biso   1.000  C
  C202     1.0000 0.14967  0.47465  0.62590  Biso   1.000  C
  C203     1.0000 0.10744  0.32671  0.51606  Biso   1.000  C
  C204     1.0000 0.99568  0.37003  0.66864  Biso   1.000  C
  C205     1.0000 0.14240  0.98670  0.12702  Biso   1.000  C
  C206     1.0000 0.08945  0.13299  0.00501  Biso   1.000  C
  C207     1.0000 0.97823  0.07870  0.16999  Biso   1.000  C
  C208     1.0000 0.64168  0.97495  0.40029  Biso   1.000  C
  C209     1.0000 0.59723  0.12693  0.50481  Biso   1.000  C
  C210     1.0000 0.48437  0.08302  0.36259  Biso   1.000  C
  C211     1.0000 0.34890  0.46976  0.12314  Biso   1.000  C
  C212     1.0000 0.40087  0.63826  0.03166  Biso   1.000  C
  C213     1.0000 0.50899  0.58478  0.16845  Biso   1.000  C
  C214     1.0000 0.84618  0.47103  0.40056  Biso   1.000  C
  C215     1.0000 0.88722  0.62313  0.50850  Biso   1.000  C
  C216     1.0000 0.01636  0.58249  0.35267  Biso   1.000  C
  C217     1.0000 0.11185  0.97050  0.86723  Biso   1.000  C
  C218     1.0000 0.83522  0.06933  0.00672  Biso   1.000  C
  C219     1.0000 0.00771  0.82896  0.11666  Biso   1.000  C
  C220     1.0000 0.61618  0.96305  0.66248  Biso   1.000  C
  C221     1.0000 0.34396  0.08278  0.53337  Biso   1.000  C
  C222     1.0000 0.49732  0.82938  0.41291  Biso   1.000  C
  C223     1.0000 0.38589  0.47741  0.87068  Biso   1.000  C
  C224     1.0000 0.65599  0.57076  0.00474  Biso   1.000  C
  C225     1.0000 0.49186  0.32506  0.11833  Biso   1.000  C
  C226     1.0000 0.89187  0.47209  0.66228  Biso   1.000  C
  C227     1.0000 0.14476  0.58525  0.51454  Biso   1.000  C
  C228     1.0000 0.01325  0.32341  0.40826  Biso   1.000  C
  C229     1.0000 0.88251  0.97523  0.16398  Biso   1.000  C
  C230     1.0000 0.15519  0.88047  0.02377  Biso   1.000  C
  C231     1.0000 0.98576  0.12896  0.90757  Biso   1.000  C
  C232     1.0000 0.37856  0.97380  0.36959  Biso   1.000  C
  C233     1.0000 0.64913  0.87003  0.51198  Biso   1.000  C
  C234     1.0000 0.52260  0.12611  0.61673  Biso   1.000  C
  C235     1.0000 0.60663  0.48322  0.16392  Biso   1.000  C
  C236     1.0000 0.33916  0.38536  0.01965  Biso   1.000  C
  C237     1.0000 0.50034  0.62458  0.91489  Biso   1.000  C
  C238     1.0000 0.10569  0.47918  0.35876  Biso   1.000  C
  C239     1.0000 0.85290  0.36421  0.50109  Biso   1.000  C
  C240     1.0000 0.98683  0.62572  0.61488  Biso   1.000  C
  C241     1.0000 0.59177  0.45940  0.85481  Biso   1.000  C
  C242     1.0000 0.83953  0.56969  0.50053  Biso   1.000  C
  C243     1.0000 0.49724  0.81485  0.61730  Biso   1.000  C
  C244     1.0000 0.09516  0.46979  0.67627  Biso   1.000  C
  C245     1.0000 0.34671  0.58853  0.03625  Biso   1.000  C
  C246     1.0000 0.00991  0.81680  0.91252  Biso   1.000  C
  C247     1.0000 0.90637  0.96281  0.85509  Biso   1.000  C
  C248     1.0000 0.64559  0.07223  0.50145  Biso   1.000  C
  C249     1.0000 0.00667  0.32228  0.61532  Biso   1.000  C
  C250     1.0000 0.41055  0.97710  0.67452  Biso   1.000  C
  C251     1.0000 0.14312  0.08692  0.01905  Biso   1.000  C
  C252     1.0000 0.49892  0.31924  0.91289  Biso   1.000  C
  C253     1.0000 0.40472  0.46317  0.16935  Biso   1.000  C
  C254     1.0000 0.15254  0.38064  0.53005  Biso   1.000  C
  C255     1.0000 0.48323  0.13439  0.41352  Biso   1.000  C
  C256     1.0000 0.90107  0.48218  0.35113  Biso   1.000  C
  C257     1.0000 0.64520  0.36339  0.01544  Biso   1.000  C
  C258     1.0000 0.98394  0.12786  0.11490  Biso   1.000  C
  C259     1.0000 0.08614  0.98057  0.17788  Biso   1.000  C
  C260     1.0000 0.34483  0.87809  0.51645  Biso   1.000  C
  C261     1.0000 0.00693  0.62842  0.40993  Biso   1.000  C
  C262     1.0000 0.58466  0.97312  0.35756  Biso   1.000  C
  C263     1.0000 0.84871  0.86676  0.00632  Biso   1.000  C
  C264     1.0000 0.52024  0.63660  0.11722  Biso   1.000  C
  C265     1.0000 0.99636  0.07586  0.85953  Biso   1.000  C
  C266     1.0000 0.83474  0.97817  0.10666  Biso   1.000  C
  C267     1.0000 0.10891  0.82445  0.00712  Biso   1.000  C
  C268     1.0000 0.52180  0.07226  0.66915  Biso   1.000  C
  C269     1.0000 0.33315  0.97579  0.42602  Biso   1.000  C
  C270     1.0000 0.59583  0.81839  0.51395  Biso   1.000  C
  C271     1.0000 0.49923  0.57262  0.86272  Biso   1.000  C
  C272     1.0000 0.65359  0.47131  0.11003  Biso   1.000  C
  C273     1.0000 0.38829  0.32863  0.01263  Biso   1.000  C
  C274     1.0000 0.99424  0.57108  0.66517  Biso   1.000  C
  C275     1.0000 0.14961  0.48171  0.41763  Biso   1.000  C
  C276     1.0000 0.90276  0.31544  0.51089  Biso   1.000  C
  C277     1.0000 0.99195  0.87752  0.17310  Biso   1.000  C
  C278     1.0000 0.15924  0.97540  0.92184  Biso   1.000  C
  C279     1.0000 0.88297  0.12299  0.01801  Biso   1.000  C
  C280     1.0000 0.48646  0.87806  0.35907  Biso   1.000  C
  C281     1.0000 0.66188  0.95959  0.60534  Biso   1.000  C
  C282     1.0000 0.39984  0.13135  0.53155  Biso   1.000  C
  C283     1.0000 0.50450  0.37658  0.16700  Biso   1.000  C
  C284     1.0000 0.33609  0.47833  0.92334  Biso   1.000  C
  C285     1.0000 0.60551  0.62458  0.00988  Biso   1.000  C
  C286     1.0000 0.00480  0.37761  0.35782  Biso   1.000  C
  C287     1.0000 0.84391  0.46947  0.60683  Biso   1.000  C
  C288     1.0000 0.09292  0.63294  0.50974  Biso   1.000  C
  C289     1.0000 0.34140  0.84740  0.51319  Biso   1.000  C
  C290     1.0000 0.49824  0.31722  0.88083  Biso   1.000  C
  C291     1.0000 0.87002  0.47807  0.34964  Biso   1.000  C
  C292     1.0000 0.85072  0.83523  0.00326  Biso   1.000  C
  C293     1.0000 0.00302  0.32016  0.64684  Biso   1.000  C
  C294     1.0000 0.37276  0.46131  0.17477  Biso   1.000  C
  C295     1.0000 0.15794  0.34948  0.52875  Biso   1.000  C
  C296     1.0000 0.00994  0.81599  0.88171  Biso   1.000  C
  C297     1.0000 0.61543  0.97191  0.35206  Biso   1.000  C
  C298     1.0000 0.64558  0.33243  0.01394  Biso   1.000  C
  C299     1.0000 0.50169  0.81286  0.64839  Biso   1.000  C
  C300     1.0000 0.11767  0.97891  0.17805  Biso   1.000  C
  C301     1.0000 0.64807  0.10354  0.50283  Biso   1.000  C
  C302     1.0000 0.51933  0.63749  0.14947  Biso   1.000  C
  C303     1.0000 0.12702  0.47087  0.67814  Biso   1.000  C
  C304     1.0000 0.14305  0.11815  0.01472  Biso   1.000  C
  C305     1.0000 0.00892  0.63080  0.37816  Biso   1.000  C
  C306     1.0000 0.62251  0.46004  0.85152  Biso   1.000  C
  C307     1.0000 0.83583  0.60001  0.50480  Biso   1.000  C
  C308     1.0000 0.98372  0.12969  0.14583  Biso   1.000  C
  C309     1.0000 0.37794  0.97715  0.67961  Biso   1.000  C
  C310     1.0000 0.34881  0.61907  0.03787  Biso   1.000  C
  C311     1.0000 0.48135  0.13513  0.38197  Biso   1.000  C
  C312     1.0000 0.87433  0.96397  0.85157  Biso   1.000  C
  C313     1.0000 0.15546  0.47918  0.38566  Biso   1.000  C
  C314     1.0000 0.36794  0.13472  0.53254  Biso   1.000  C
  C315     1.0000 0.50016  0.34585  0.17001  Biso   1.000  C
  C316     1.0000 0.65690  0.47484  0.14085  Biso   1.000  C
  C317     1.0000 0.85223  0.12199  0.01255  Biso   1.000  C
  C318     1.0000 0.00590  0.34584  0.35654  Biso   1.000  C
  C319     1.0000 0.32971  0.97809  0.39526  Biso   1.000  C
  C320     1.0000 0.12317  0.63690  0.51165  Biso   1.000  C
  C321     1.0000 0.99824  0.84751  0.17096  Biso   1.000  C
  C322     1.0000 0.83241  0.98010  0.13852  Biso   1.000  C
  C323     1.0000 0.63794  0.62472  0.00777  Biso   1.000  C
  C324     1.0000 0.49448  0.84710  0.36019  Biso   1.000  C
  C325     1.0000 0.83985  0.46938  0.63835  Biso   1.000  C
  C326     1.0000 0.62790  0.81733  0.51565  Biso   1.000  C
  C327     1.0000 0.50038  0.60435  0.86192  Biso   1.000  C
  C328     1.0000 0.33293  0.47606  0.89249  Biso   1.000  C
  C329     1.0000 0.13874  0.82723  0.01791  Biso   1.000  C
  C330     1.0000 0.99224  0.60292  0.66668  Biso   1.000  C
  C331     1.0000 0.66678  0.96254  0.63648  Biso   1.000  C
  C332     1.0000 0.87183  0.31227  0.50792  Biso   1.000  C
  C333     1.0000 0.99383  0.10584  0.85697  Biso   1.000  C
  C334     1.0000 0.16317  0.97246  0.89068  Biso   1.000  C
  C335     1.0000 0.35602  0.33177  0.01518  Biso   1.000  C
  C336     1.0000 0.52170  0.10305  0.66975  Biso   1.000  C
  C337     1.0000 0.64431  0.45834  0.87182  Biso   1.000  C
  C338     1.0000 0.85539  0.62285  0.50792  Biso   1.000  C
  C339     1.0000 0.50854  0.83427  0.66770  Biso   1.000  C
  C340     1.0000 0.14953  0.47475  0.65736  Biso   1.000  C
  C341     1.0000 0.37062  0.64092  0.03535  Biso   1.000  C
  C342     1.0000 0.01244  0.83649  0.86026  Biso   1.000  C
  C343     1.0000 0.85105  0.96399  0.87116  Biso   1.000  C
  C344     1.0000 0.62904  0.12652  0.50390  Biso   1.000  C
  C345     1.0000 0.99979  0.33923  0.66894  Biso   1.000  C
  C346     1.0000 0.35487  0.97687  0.66137  Biso   1.000  C
  C347     1.0000 0.12009  0.13764  0.00886  Biso   1.000  C
  C348     1.0000 0.49367  0.33830  0.85906  Biso   1.000  C
  C349     1.0000 0.35004  0.46530  0.15464  Biso   1.000  C
  C350     1.0000 0.13826  0.32781  0.52080  Biso   1.000  C
  C351     1.0000 0.48046  0.11429  0.36091  Biso   1.000  C
  C352     1.0000 0.84692  0.47402  0.36960  Biso   1.000  C
  C353     1.0000 0.62216  0.31150  0.01381  Biso   1.000  C
  C354     1.0000 0.98104  0.11010  0.16863  Biso   1.000  C
  C355     1.0000 0.14142  0.98297  0.15767  Biso   1.000  C
  C356     1.0000 0.36056  0.82455  0.50554  Biso   1.000  C
  C357     1.0000 0.01295  0.61263  0.35511  Biso   1.000  C
  C358     1.0000 0.63974  0.97209  0.36980  Biso   1.000  C
  C359     1.0000 0.87239  0.81517  0.00499  Biso   1.000  C
  C360     1.0000 0.51274  0.61612  0.16999  Biso   1.000  C
  C361     1.0000 0.99019  0.12830  0.87704  Biso   1.000  C
  C362     1.0000 0.85185  0.97931  0.16231  Biso   1.000  C
  C363     1.0000 0.15778  0.84990  0.02516  Biso   1.000  C
  C364     1.0000 0.51983  0.12633  0.64827  Biso   1.000  C
  C365     1.0000 0.34787  0.97682  0.37122  Biso   1.000  C
  C366     1.0000 0.64975  0.83838  0.51500  Biso   1.000  C
  C367     1.0000 0.50109  0.62653  0.88371  Biso   1.000  C
  C368     1.0000 0.63784  0.48084  0.16381  Biso   1.000  C
  C369     1.0000 0.33600  0.35451  0.01727  Biso   1.000  C
  C370     1.0000 0.99061  0.62493  0.64566  Biso   1.000  C
  C371     1.0000 0.13708  0.47869  0.36128  Biso   1.000  C
  C372     1.0000 0.85078  0.33340  0.50464  Biso   1.000  C
  C373     1.0000 0.00417  0.82815  0.14763  Biso   1.000  C
  C374     1.0000 0.14311  0.97064  0.86873  Biso   1.000  C
  C375     1.0000 0.83133  0.09968  0.00777  Biso   1.000  C
  C376     1.0000 0.49825  0.82761  0.38229  Biso   1.000  C
  C377     1.0000 0.64708  0.96260  0.65999  Biso   1.000  C
  C378     1.0000 0.34554  0.11377  0.53462  Biso   1.000  C
  C379     1.0000 0.49413  0.32367  0.15007  Biso   1.000  C
  C380     1.0000 0.35396  0.47554  0.87009  Biso   1.000  C
  C381     1.0000 0.65965  0.60230  0.00566  Biso   1.000  C
  C382     1.0000 0.00810  0.32336  0.37725  Biso   1.000  C
  C383     1.0000 0.86056  0.46919  0.66128  Biso   1.000  C
  C384     1.0000 0.14520  0.61739  0.51342  Biso   1.000  C
  C385     1.0000 0.16876  0.13622  0.01391  Biso   1.000  C
  C386     1.0000 0.98611  0.15706  0.16011  Biso   1.000  C
  C387     1.0000 0.13219  0.97352  0.20520  Biso   1.000  C
  C388     1.0000 0.67555  0.11790  0.50279  Biso   1.000  C
  C389     1.0000 0.47798  0.16164  0.36612  Biso   1.000  C
  C390     1.0000 0.62749  0.97059  0.32298  Biso   1.000  C
  C391     1.0000 0.32245  0.63565  0.03787  Biso   1.000  C
  C392     1.0000 0.52051  0.66437  0.16701  Biso   1.000  C
  C393     1.0000 0.35816  0.45957  0.20238  Biso   1.000  C
  C394     1.0000 0.80835  0.61406  0.50764  Biso   1.000  C
  C395     1.0000 0.00478  0.65753  0.36367  Biso   1.000  C
  C396     1.0000 0.85556  0.48156  0.32285  Biso   1.000  C
  C397     1.0000 0.82439  0.81750  0.00073  Biso   1.000  C
  C398     1.0000 0.00548  0.78917  0.86669  Biso   1.000  C
  C399     1.0000 0.86088  0.96459  0.82333  Biso   1.000  C
  C400     1.0000 0.31389  0.83335  0.51737  Biso   1.000  C
  C401     1.0000 0.49931  0.78652  0.66444  Biso   1.000  C
  C402     1.0000 0.36357  0.97559  0.70780  Biso   1.000  C
  C403     1.0000 0.67248  0.31623  0.00822  Biso   1.000  C
  C404     1.0000 0.50059  0.29067  0.86621  Biso   1.000  C
  C405     1.0000 0.63829  0.46192  0.82454  Biso   1.000  C
  C406     1.0000 0.18590  0.33627  0.53167  Biso   1.000  C
  C407     1.0000 0.00694  0.29294  0.66061  Biso   1.000  C
  C408     1.0000 0.14084  0.46911  0.70600  Biso   1.000  C
  C409     1.0000 0.16068  0.97218  0.84244  Biso   1.000  C
  C410     1.0000 0.80464  0.11542  0.00596  Biso   1.000  C
  C411     1.0000 0.00886  0.80026  0.16166  Biso   1.000  C
  C412     1.0000 0.66485  0.96122  0.68526  Biso   1.000  C
  C413     1.0000 0.31891  0.12997  0.53468  Biso   1.000  C
  C414     1.0000 0.50585  0.80084  0.36850  Biso   1.000  C
  C415     1.0000 0.33747  0.47459  0.84439  Biso   1.000  C
  C416     1.0000 0.68729  0.61664  0.00624  Biso   1.000  C
  C417     1.0000 0.49136  0.29854  0.16593  Biso   1.000  C
  C418     1.0000 0.84309  0.46823  0.68751  Biso   1.000  C
  C419     1.0000 0.17192  0.63430  0.51363  Biso   1.000  C
  C420     1.0000 0.00797  0.29765  0.36042  Biso   1.000  C
  C421     1.0000 0.83369  0.98306  0.18782  Biso   1.000  C
  C422     1.0000 0.18449  0.83667  0.03467  Biso   1.000  C
  C423     1.0000 0.99274  0.15500  0.86074  Biso   1.000  C
  C424     1.0000 0.32977  0.98202  0.34669  Biso   1.000  C
  C425     1.0000 0.67568  0.82189  0.51573  Biso   1.000  C
  C426     1.0000 0.51509  0.15227  0.66390  Biso   1.000  C
  C427     1.0000 0.65514  0.48191  0.18922  Biso   1.000  C
  C428     1.0000 0.30759  0.34093  0.01876  Biso   1.000  C
  C429     1.0000 0.50202  0.65321  0.86744  Biso   1.000  C
  C430     1.0000 0.15514  0.47418  0.33638  Biso   1.000  C
  C431     1.0000 0.82410  0.31773  0.50196  Biso   1.000  C
  C432     1.0000 0.99084  0.65145  0.66266  Biso   1.000  C
  C433     1.0000 0.99704  0.12210  0.82936  Biso   1.000  C
  C434     1.0000 0.80369  0.98343  0.15170  Biso   1.000  C
  C435     1.0000 0.15530  0.80145  0.02384  Biso   1.000  C
  C436     1.0000 0.51922  0.11729  0.69694  Biso   1.000  C
  C437     1.0000 0.30242  0.98469  0.38386  Biso   1.000  C
  C438     1.0000 0.64171  0.78955  0.51777  Biso   1.000  C
  C439     1.0000 0.49926  0.61885  0.83475  Biso   1.000  C
  C440     1.0000 0.68406  0.47358  0.15439  Biso   1.000  C
  C441     1.0000 0.33759  0.30531  0.01294  Biso   1.000  C
  C442     1.0000 0.99127  0.61758  0.69445  Biso   1.000  C
  C443     1.0000 0.18459  0.47602  0.37336  Biso   1.000  C
  C444     1.0000 0.85549  0.28589  0.51038  Biso   1.000  C
  C445     1.0000 0.99811  0.83010  0.19694  Biso   1.000  C
  C446     1.0000 0.19176  0.97387  0.87657  Biso   1.000  C
  C447     1.0000 0.83516  0.14804  0.01098  Biso   1.000  C
  C448     1.0000 0.49897  0.83135  0.33383  Biso   1.000  C
  C449     1.0000 0.69591  0.96139  0.64889  Biso   1.000  C
  C450     1.0000 0.35430  0.16183  0.53456  Biso   1.000  C
  C451     1.0000 0.50043  0.33137  0.19741  Biso   1.000  C
  C452     1.0000 0.30648  0.47450  0.87714  Biso   1.000  C
  C453     1.0000 0.65524  0.65103  0.00966  Biso   1.000  C
  C454     1.0000 0.00579  0.33169  0.32921  Biso   1.000  C
  C455     1.0000 0.81194  0.46453  0.65273  Biso   1.000  C
  C456     1.0000 0.13779  0.66486  0.50916  Biso   1.000  C
  C457     1.0000 0.01085  0.62807  0.32851  Biso   1.000  C
  C458     1.0000 0.32928  0.97493  0.67970  Biso   1.000  C
  C459     1.0000 0.63546  0.28415  0.01044  Biso   1.000  C
  C460     1.0000 0.51082  0.62989  0.19804  Biso   1.000  C
  C461     1.0000 0.82474  0.96576  0.85368  Biso   1.000  C
  C462     1.0000 0.15621  0.30091  0.51930  Biso   1.000  C
  C463     1.0000 0.47859  0.12990  0.33380  Biso   1.000  C
  C464     1.0000 0.17554  0.47664  0.67445  Biso   1.000  C
  C465     1.0000 0.85923  0.78722  0.00477  Biso   1.000  C
  C466     1.0000 0.98345  0.12559  0.19429  Biso   1.000  C
  C467     1.0000 0.67220  0.45902  0.85699  Biso   1.000  C
  C468     1.0000 0.34343  0.79871  0.50659  Biso   1.000  C
  C469     1.0000 0.00177  0.32312  0.69471  Biso   1.000  C
  C470     1.0000 0.66391  0.96808  0.35071  Biso   1.000  C
  C471     1.0000 0.35566  0.66816  0.03513  Biso   1.000  C
  C472     1.0000 0.49376  0.32246  0.83258  Biso   1.000  C
  C473     1.0000 0.16702  0.98160  0.17512  Biso   1.000  C
  C474     1.0000 0.83881  0.64811  0.51365  Biso   1.000  C
  C475     1.0000 0.51206  0.81945  0.69424  Biso   1.000  C
  C476     1.0000 0.82030  0.47484  0.35308  Biso   1.000  C
  C477     1.0000 0.13379  0.16621  0.00715  Biso   1.000  C
  C478     1.0000 0.00688  0.82060  0.83302  Biso   1.000  C
  C479     1.0000 0.32347  0.46361  0.17277  Biso   1.000  C
  C480     1.0000 0.64571  0.15254  0.50345  Biso   1.000  C
  C481     1.0000 0.35743  0.77132  0.50101  Biso   1.000  C
  C482     1.0000 0.48855  0.33777  0.80525  Biso   1.000  C
  C483     1.0000 0.79317  0.47303  0.36848  Biso   1.000  C
  C484     1.0000 0.87516  0.76075  0.00422  Biso   1.000  C
  C485     1.0000 0.99889  0.33720  0.72316  Biso   1.000  C
  C486     1.0000 0.29570  0.46584  0.15917  Biso   1.000  C
  C487     1.0000 0.14152  0.27300  0.51364  Biso   1.000  C
  C488     1.0000 0.00322  0.83758  0.80849  Biso   1.000  C
  C489     1.0000 0.69287  0.96878  0.36368  Biso   1.000  C
  C490     1.0000 0.61686  0.25783  0.01146  Biso   1.000  C
  C491     1.0000 0.51822  0.83586  0.72081  Biso   1.000  C
  C492     1.0000 0.19568  0.98218  0.16103  Biso   1.000  C
  C493     1.0000 0.62943  0.17981  0.50363  Biso   1.000  C
  C494     1.0000 0.50609  0.61214  0.22370  Biso   1.000  C
  C495     1.0000 0.20266  0.48235  0.65855  Biso   1.000  C
  C496     1.0000 0.11651  0.19213  0.00329  Biso   1.000  C
  C497     1.0000 0.01288  0.61514  0.29993  Biso   1.000  C
  C498     1.0000 0.70010  0.45960  0.87263  Biso   1.000  C
  C499     1.0000 0.85339  0.67500  0.52209  Biso   1.000  C
  C500     1.0000 0.97564  0.11129  0.22170  Biso   1.000  C
  C501     1.0000 0.30116  0.96881  0.66629  Biso   1.000  C
  C502     1.0000 0.37373  0.69486  0.03242  Biso   1.000  C
  C503     1.0000 0.47729  0.11350  0.30742  Biso   1.000  C
  C504     1.0000 0.79739  0.97037  0.86812  Biso   1.000  C
  C505     1.0000 0.62070  0.46145  0.79807  Biso   1.000  C
  C506     1.0000 0.78341  0.59569  0.50482  Biso   1.000  C
  C507     1.0000 0.49008  0.76118  0.64875  Biso   1.000  C
  C508     1.0000 0.12279  0.46303  0.73011  Biso   1.000  C
  C509     1.0000 0.29400  0.62167  0.03838  Biso   1.000  C
  C510     1.0000 0.99774  0.76157  0.88354  Biso   1.000  C
  C511     1.0000 0.87879  0.95783  0.79779  Biso   1.000  C
  C512     1.0000 0.70347  0.09871  0.50115  Biso   1.000  C
  C513     1.0000 0.01180  0.26684  0.64498  Biso   1.000  C
  C514     1.0000 0.38258  0.97786  0.73281  Biso   1.000  C
  C515     1.0000 0.19561  0.12214  0.01940  Biso   1.000  C
  C516     1.0000 0.50551  0.26534  0.88365  Biso   1.000  C
  C517     1.0000 0.37775  0.45660  0.22699  Biso   1.000  C
  C518     1.0000 0.21076  0.35600  0.53379  Biso   1.000  C
  C519     1.0000 0.47708  0.18940  0.38279  Biso   1.000  C
  C520     1.0000 0.87310  0.48768  0.29616  Biso   1.000  C
  C521     1.0000 0.69951  0.33076  0.00262  Biso   1.000  C
  C522     1.0000 0.99196  0.18313  0.14284  Biso   1.000  C
  C523     1.0000 0.11481  0.97267  0.23328  Biso   1.000  C
  C524     1.0000 0.28850  0.84948  0.52679  Biso   1.000  C
  C525     1.0000 0.00140  0.68524  0.38050  Biso   1.000  C
  C526     1.0000 0.60918  0.97273  0.29781  Biso   1.000  C
  C527     1.0000 0.79477  0.83102  0.99992  Biso   1.000  C
  C528     1.0000 0.52072  0.69191  0.15105  Biso   1.000  C
  C529     1.0000 0.77882  0.09713  0.00106  Biso   1.000  C
  C530     1.0000 0.01582  0.77385  0.14552  Biso   1.000  C
  C531     1.0000 0.14825  0.97089  0.81365  Biso   1.000  C
  C532     1.0000 0.29088  0.11552  0.53814  Biso   1.000  C
  C533     1.0000 0.51771  0.77655  0.38554  Biso   1.000  C
  C534     1.0000 0.65168  0.95947  0.71370  Biso   1.000  C
  C535     1.0000 0.71378  0.59860  0.00109  Biso   1.000  C
  C536     1.0000 0.48019  0.27286  0.15098  Biso   1.000  C
  C537     1.0000 0.35245  0.47193  0.81762  Biso   1.000  C
  C538     1.0000 0.19995  0.61934  0.51611  Biso   1.000  C
  C539     1.0000 0.00586  0.27044  0.37730  Biso   1.000  C
  C540     1.0000 0.85622  0.47180  0.71568  Biso   1.000  C
  C541     1.0000 0.20808  0.85482  0.04441  Biso   1.000  C
  C542     1.0000 0.99282  0.18212  0.87627  Biso   1.000  C
  C543     1.0000 0.84632  0.98271  0.21691  Biso   1.000  C
  C544     1.0000 0.70364  0.83633  0.51284  Biso   1.000  C
  C545     1.0000 0.51015  0.17890  0.64880  Biso   1.000  C
  C546     1.0000 0.34337  0.97990  0.31841  Biso   1.000  C
  C547     1.0000 0.28142  0.35592  0.02489  Biso   1.000  C
  C548     1.0000 0.50294  0.68084  0.88358  Biso   1.000  C
  C549     1.0000 0.64130  0.48925  0.21687  Biso   1.000  C
  C550     1.0000 0.79686  0.33341  0.49627  Biso   1.000  C
  C551     1.0000 0.99033  0.67885  0.64767  Biso   1.000  C
  C552     1.0000 0.14141  0.47265  0.30673  Biso   1.000  C
  C553     1.0000 0.00261  0.10562  0.80382  Biso   1.000  C
  C554     1.0000 0.77779  0.98481  0.13423  Biso   1.000  C
  C555     1.0000 0.14161  0.77225  0.01926  Biso   1.000  C
  C556     1.0000 0.52065  0.10316  0.72634  Biso   1.000  C
  C557     1.0000 0.27682  0.98881  0.40204  Biso   1.000  C
  C558     1.0000 0.62349  0.76330  0.51904  Biso   1.000  C
  C559     1.0000 0.49595  0.60240  0.80750  Biso   1.000  C
  C560     1.0000 0.70990  0.46738  0.13644  Biso   1.000  C
  C561     1.0000 0.35175  0.27671  0.00906  Biso   1.000  C
  C562     1.0000 0.98941  0.60291  0.72200  Biso   1.000  C
  C563     1.0000 0.21006  0.47838  0.39234  Biso   1.000  C
  C564     1.0000 0.87366  0.26105  0.51798  Biso   1.000  C
  C565     1.0000 0.98911  0.84372  0.22512  Biso   1.000  C
  C566     1.0000 0.21785  0.97227  0.89540  Biso   1.000  C
  C567     1.0000 0.84977  0.17560  0.01122  Biso   1.000  C
  C568     1.0000 0.49625  0.84767  0.30640  Biso   1.000  C
  C569     1.0000 0.72130  0.96124  0.62878  Biso   1.000  C
  C570     1.0000 0.37070  0.18910  0.53393  Biso   1.000  C
  C571     1.0000 0.50842  0.34891  0.22327  Biso   1.000  C
  C572     1.0000 0.27903  0.47588  0.89367  Biso   1.000  C
  C573     1.0000 0.63939  0.67755  0.01642  Biso   1.000  C
  C574     1.0000 0.01005  0.34828  0.30256  Biso   1.000  C
  C575     1.0000 0.78806  0.45971  0.63446  Biso   1.000  C
  C576     1.0000 0.12104  0.68995  0.50425  Biso   1.000  C
  C577     1.0000 0.29358  0.47037  0.12808  Biso   1.000  C
  C578     1.0000 0.11018  0.27344  0.50923  Biso   1.000  C
  C579     1.0000 0.48014  0.08243  0.30850  Biso   1.000  C
  C580     1.0000 0.79158  0.46868  0.39908  Biso   1.000  C
  C581     1.0000 0.58566  0.25909  0.01413  Biso   1.000  C
  C582     1.0000 0.97482  0.08074  0.22419  Biso   1.000  C
  C583     1.0000 0.19687  0.98549  0.12909  Biso   1.000  C
  C584     1.0000 0.38977  0.77088  0.49841  Biso   1.000  C
  C585     1.0000 0.01426  0.58380  0.29781  Biso   1.000  C
  C586     1.0000 0.69538  0.96798  0.39566  Biso   1.000  C
  C587     1.0000 0.90597  0.76367  0.00634  Biso   1.000  C
  C588     1.0000 0.50039  0.58149  0.22057  Biso   1.000  C
  C589     1.0000 0.69946  0.46132  0.90384  Biso   1.000  C
  C590     1.0000 0.88489  0.67550  0.52211  Biso   1.000  C
  C591     1.0000 0.52309  0.86809  0.71928  Biso   1.000  C
  C592     1.0000 0.20278  0.48421  0.62723  Biso   1.000  C
  C593     1.0000 0.40493  0.69300  0.02907  Biso   1.000  C
  C594     1.0000 0.00689  0.86974  0.80942  Biso   1.000  C
  C595     1.0000 0.79599  0.96949  0.90001  Biso   1.000  C
  C596     1.0000 0.59892  0.18030  0.50173  Biso   1.000  C
  C597     1.0000 0.99384  0.36730  0.72343  Biso   1.000  C
  C598     1.0000 0.30099  0.96826  0.63451  Biso   1.000  C
  C599     1.0000 0.08412  0.18751  0.00216  Biso   1.000  C
  C600     1.0000 0.48511  0.36877  0.80811  Biso   1.000  C
  C601     1.0000 0.21612  0.97447  0.92678  Biso   1.000  C
  C602     1.0000 0.88039  0.17732  0.01669  Biso   1.000  C
  C603     1.0000 0.98492  0.87587  0.22653  Biso   1.000  C
  C604     1.0000 0.71515  0.96086  0.59730  Biso   1.000  C
  C605     1.0000 0.40177  0.18717  0.53603  Biso   1.000  C
  C606     1.0000 0.48993  0.87769  0.30433  Biso   1.000  C
  C607     1.0000 0.28060  0.47911  0.92564  Biso   1.000  C
  C608     1.0000 0.60698  0.67746  0.01814  Biso   1.000  C
  C609     1.0000 0.51587  0.37943  0.21956  Biso   1.000  C
  C610     1.0000 0.79109  0.46368  0.60362  Biso   1.000  C
  C611     1.0000 0.08898  0.68584  0.50258  Biso   1.000  C
  C612     1.0000 0.00853  0.37948  0.30407  Biso   1.000  C
  C613     1.0000 0.78076  0.98044  0.10163  Biso   1.000  C
  C614     1.0000 0.11103  0.76927  0.01179  Biso   1.000  C
  C615     1.0000 0.00709  0.07540  0.80714  Biso   1.000  C
  C616     1.0000 0.28076  0.98595  0.43298  Biso   1.000  C
  C617     1.0000 0.59230  0.76490  0.51940  Biso   1.000  C
  C618     1.0000 0.52229  0.07157  0.72539  Biso   1.000  C
  C619     1.0000 0.70848  0.46531  0.10564  Biso   1.000  C
  C620     1.0000 0.38406  0.27555  0.00536  Biso   1.000  C
  C621     1.0000 0.49479  0.57109  0.80870  Biso   1.000  C
  C622     1.0000 0.20422  0.48181  0.42349  Biso   1.000  C
  C623     1.0000 0.90460  0.26265  0.52375  Biso   1.000  C
  C624     1.0000 0.99156  0.57316  0.72179  Biso   1.000  C
  C625     1.0000 0.99089  0.18274  0.90760  Biso   1.000  C
  C626     1.0000 0.87739  0.98188  0.21793  Biso   1.000  C
  C627     1.0000 0.20686  0.88635  0.04369  Biso   1.000  C
  C628     1.0000 0.51205  0.17911  0.61683  Biso   1.000  C
  C629     1.0000 0.37502  0.97842  0.31558  Biso   1.000  C
  C630     1.0000 0.70440  0.86724  0.50862  Biso   1.000  C
  C631     1.0000 0.50281  0.67925  0.91416  Biso   1.000  C
  C632     1.0000 0.61142  0.49562  0.21684  Biso   1.000  C
  C633     1.0000 0.28453  0.38754  0.02787  Biso   1.000  C
  C634     1.0000 0.98940  0.67894  0.61547  Biso   1.000  C
  C635     1.0000 0.10911  0.47470  0.30487  Biso   1.000  C
  C636     1.0000 0.79820  0.36467  0.49409  Biso   1.000  C
  C637     1.0000 0.01717  0.77471  0.11416  Biso   1.000  C
  C638     1.0000 0.11620  0.97069  0.81186  Biso   1.000  C
  C639     1.0000 0.78231  0.06632  0.99983  Biso   1.000  C
  C640     1.0000 0.51922  0.77829  0.41717  Biso   1.000  C
  C641     1.0000 0.61945  0.95943  0.71565  Biso   1.000  C
  C642     1.0000 0.28892  0.08280  0.53773  Biso   1.000  C
  C643     1.0000 0.47545  0.27319  0.12011  Biso   1.000  C
  C644     1.0000 0.38427  0.47242  0.81672  Biso   1.000  C
  C645     1.0000 0.71150  0.56695  0.00113  Biso   1.000  C
  C646     1.0000 0.00631  0.26973  0.40812  Biso   1.000  C
  C647     1.0000 0.88862  0.47412  0.71682  Biso   1.000  C
  C648     1.0000 0.19894  0.58806  0.52111  Biso   1.000  C
  C649     1.0000 0.00147  0.68307  0.41203  Biso   1.000  C
  C650     1.0000 0.41459  0.97951  0.72878  Biso   1.000  C
  C651     1.0000 0.70026  0.36125  0.00548  Biso   1.000  C
  C652     1.0000 0.51925  0.69269  0.11878  Biso   1.000  C
  C653     1.0000 0.91088  0.95837  0.80189  Biso   1.000  C
  C654     1.0000 0.20728  0.38780  0.53529  Biso   1.000  C
  C655     1.0000 0.47755  0.18913  0.41414  Biso   1.000  C
  C656     1.0000 0.09178  0.46387  0.73057  Biso   1.000  C
  C657     1.0000 0.79538  0.86282  0.00189  Biso   1.000  C
  C658     1.0000 0.99285  0.18143  0.11238  Biso   1.000  C
  C659     1.0000 0.58946  0.46195  0.79935  Biso   1.000  C
  C660     1.0000 0.29189  0.88147  0.52973  Biso   1.000  C
  C661     1.0000 0.01246  0.26738  0.61452  Biso   1.000  C
  C662     1.0000 0.57880  0.97835  0.30113  Biso   1.000  C
  C663     1.0000 0.29285  0.59038  0.03614  Biso   1.000  C
  C664     1.0000 0.50624  0.26421  0.91444  Biso   1.000  C
  C665     1.0000 0.08357  0.97778  0.23373  Biso   1.000  C
  C666     1.0000 0.78601  0.56565  0.49614  Biso   1.000  C
  C667     1.0000 0.48377  0.76308  0.61713  Biso   1.000  C
  C668     1.0000 0.90479  0.48554  0.29660  Biso   1.000  C
  C669     1.0000 0.19624  0.09098  0.02051  Biso   1.000  C
  C670     1.0000 0.99936  0.76280  0.91424  Biso   1.000  C
  C671     1.0000 0.40944  0.46001  0.22363  Biso   1.000  C
  C672     1.0000 0.70165  0.06791  0.49737  Biso   1.000  C
  C673     1.0000 0.21012  0.97449  0.83319  Biso   1.000  C
  C674     1.0000 0.78732  0.16051  0.00742  Biso   1.000  C
  C675     1.0000 0.00675  0.78454  0.20763  Biso   1.000  C
  C676     1.0000 0.71308  0.96502  0.69488  Biso   1.000  C
  C677     1.0000 0.30687  0.17537  0.53417  Biso   1.000  C
  C678     1.0000 0.51103  0.78435  0.32357  Biso   1.000  C
  C679     1.0000 0.28980  0.47318  0.83200  Biso   1.000  C
  C680     1.0000 0.70220  0.66227  0.00713  Biso   1.000  C
  C681     1.0000 0.49422  0.28522  0.21257  Biso   1.000  C
  C682     1.0000 0.79504  0.46161  0.69880  Biso   1.000  C
  C683     1.0000 0.18660  0.68037  0.50864  Biso   1.000  C
  C684     1.0000 0.00306  0.28496  0.31370  Biso   1.000  C
  C685     1.0000 0.78629  0.98120  0.19792  Biso   1.000  C
  C686     1.0000 0.20188  0.79088  0.03376  Biso   1.000  C
  C687     1.0000 0.00240  0.16836  0.81400  Biso   1.000  C
  C688     1.0000 0.28421  0.98955  0.33718  Biso   1.000  C
  C689     1.0000 0.68837  0.77496  0.52019  Biso   1.000  C
  C690     1.0000 0.51243  0.16525  0.71106  Biso   1.000  C
  C691     1.0000 0.70061  0.47704  0.19925  Biso   1.000  C
  C692     1.0000 0.28832  0.29685  0.01680  Biso   1.000  C
  C693     1.0000 0.50081  0.66490  0.82042  Biso   1.000  C
  C694     1.0000 0.20226  0.46963  0.32790  Biso   1.000  C
  C695     1.0000 0.80900  0.27127  0.50338  Biso   1.000  C
  C696     1.0000 0.99192  0.66270  0.71101  Biso   1.000  C
  C697     1.0000 0.67289  0.96860  0.30351  Biso   1.000  C
  C698     1.0000 0.30889  0.68291  0.03410  Biso   1.000  C
  C699     1.0000 0.00729  0.27715  0.70820  Biso   1.000  C
  C700     1.0000 0.17604  0.97941  0.22394  Biso   1.000  C
  C701     1.0000 0.79314  0.66122  0.51385  Biso   1.000  C
  C702     1.0000 0.49801  0.27456  0.81898  Biso   1.000  C
  C703     1.0000 0.80872  0.47816  0.30566  Biso   1.000  C
  C704     1.0000 0.17734  0.18483  0.00876  Biso   1.000  C
  C705     1.0000 0.50333  0.77250  0.70943  Biso   1.000  C
  C706     1.0000 0.31191  0.45701  0.22147  Biso   1.000  C
  C707     1.0000 0.69442  0.16303  0.50696  Biso   1.000  C
  C708     1.0000 0.00044  0.77163  0.82200  Biso   1.000  C
  C709     1.0000 0.31589  0.97865  0.72492  Biso   1.000  C
  C710     1.0000 0.68257  0.26930  0.00531  Biso   1.000  C
  C711     1.0000 0.00797  0.67504  0.31759  Biso   1.000  C
  C712     1.0000 0.81590  0.96693  0.80706  Biso   1.000  C
  C713     1.0000 0.20266  0.29159  0.52703  Biso   1.000  C
  C714     1.0000 0.51736  0.67648  0.21269  Biso   1.000  C
  C715     1.0000 0.18436  0.47282  0.72307  Biso   1.000  C
  C716     1.0000 0.81228  0.77123  0.00376  Biso   1.000  C
  C717     1.0000 0.47574  0.17468  0.31790  Biso   1.000  C
  C718     1.0000 0.68431  0.45730  0.80837  Biso   1.000  C
  C719     1.0000 0.29702  0.78835  0.51469  Biso   1.000  C
  C720     1.0000 0.98555  0.17220  0.20739  Biso   1.000  C
  C721     1.0000 0.52400  0.79030  0.29543  Biso   1.000  C
  C722     1.0000 0.29197  0.49092  0.80634  Biso   1.000  C
  C723     1.0000 0.77969  0.27852  0.51423  Biso   1.000  C
  C724     1.0000 0.99055  0.75720  0.20596  Biso   1.000  C
  C725     1.0000 0.76803  0.47566  0.69408  Biso   1.000  C
  C726     1.0000 0.26015  0.30285  0.00312  Biso   1.000  C
  C727     1.0000 0.98548  0.28905  0.28803  Biso   1.000  C
  C728     1.0000 0.23204  0.99630  0.83646  Biso   1.000  C
  C729     1.0000 0.71595  0.77889  0.53485  Biso   1.000  C
  C730     1.0000 0.48100  0.29072  0.24099  Biso   1.000  C
  C731     1.0000 0.74000  0.95026  0.69092  Biso   1.000  C
  C732     1.0000 0.23209  0.79920  0.02563  Biso   1.000  C
  C733     1.0000 0.49518  0.16064  0.73741  Biso   1.000  C
  C734     1.0000 0.69701  0.46175  0.22645  Biso   1.000  C
  C735     1.0000 0.18153  0.70695  0.52440  Biso   1.000  C
  C736     1.0000 0.98985  0.19714  0.81669  Biso   1.000  C
  C737     1.0000 0.22473  0.45089  0.33425  Biso   1.000  C
  C738     1.0000 0.73052  0.65663  0.02052  Biso   1.000  C
  C739     1.0000 0.01094  0.65811  0.73577  Biso   1.000  C
  C740     1.0000 0.76250  0.96007  0.19127  Biso   1.000  C
  C741     1.0000 0.27981  0.17494  0.51893  Biso   1.000  C
  C742     1.0000 0.51205  0.65834  0.79158  Biso   1.000  C
  C743     1.0000 0.25676  0.97436  0.34115  Biso   1.000  C
  C744     1.0000 0.78446  0.17880  0.03210  Biso   1.000  C
  C745     1.0000 0.02592  0.70072  0.32095  Biso   1.000  C
  C746     1.0000 0.28826  0.99361  0.72040  Biso   1.000  C
  C747     1.0000 0.70843  0.27262  0.02081  Biso   1.000  C
  C748     1.0000 0.53925  0.69935  0.21279  Biso   1.000  C
  C749     1.0000 0.78872  0.95201  0.80851  Biso   1.000  C
  C750     1.0000 0.22863  0.29439  0.54424  Biso   1.000  C
  C751     1.0000 0.49359  0.17174  0.29125  Biso   1.000  C
  C752     1.0000 0.21220  0.45563  0.72186  Biso   1.000  C
  C753     1.0000 0.78600  0.77303  0.98516  Biso   1.000  C
  C754     1.0000 0.00087  0.16801  0.23492  Biso   1.000  C
  C755     1.0000 0.68115  0.47449  0.78309  Biso   1.000  C
  C756     1.0000 0.26699  0.79487  0.50457  Biso   1.000  C
  C757     1.0000 0.99271  0.24851  0.70397  Biso   1.000  C
  C758     1.0000 0.66883  0.98312  0.27444  Biso   1.000  C
  C759     1.0000 0.28326  0.68094  0.05379  Biso   1.000  C
  C760     1.0000 0.51052  0.27996  0.78961  Biso   1.000  C
  C761     1.0000 0.19797  0.00246  0.22445  Biso   1.000  C
  C762     1.0000 0.79793  0.68937  0.50121  Biso   1.000  C
  C763     1.0000 0.49023  0.77677  0.73918  Biso   1.000  C
  C764     1.0000 0.78409  0.45870  0.30689  Biso   1.000  C
  C765     1.0000 0.20057  0.18514  0.02897  Biso   1.000  C
  C766     1.0000 0.98614  0.77633  0.79504  Biso   1.000  C
  C767     1.0000 0.31735  0.46937  0.24982  Biso   1.000  C
  C768     1.0000 0.69380  0.19176  0.49303  Biso   1.000  C
  C769     1.0000 0.48641  0.69294  0.82605  Biso   1.000  C
  C770     1.0000 0.79895  0.44363  0.72479  Biso   1.000  C
  C771     1.0000 0.68435  0.74870  0.50335  Biso   1.000  C
  C772     1.0000 0.97431  0.68856  0.71127  Biso   1.000  C
  C773     1.0000 0.26315  0.45541  0.83614  Biso   1.000  C
  C774     1.0000 0.19722  0.76140  0.04452  Biso   1.000  C
  C775     1.0000 0.01903  0.16479  0.78820  Biso   1.000  C
  C776     1.0000 0.70923  0.98106  0.72164  Biso   1.000  C
  C777     1.0000 0.81485  0.24193  0.49468  Biso   1.000  C
  C778     1.0000 0.52720  0.19317  0.70764  Biso   1.000  C
  C779     1.0000 0.21134  0.95376  0.80831  Biso   1.000  C
  C780     1.0000 0.29006  0.26860  0.03070  Biso   1.000  C
  C781     1.0000 0.50653  0.25693  0.20731  Biso   1.000  C
  C782     1.0000 0.20206  0.48505  0.29988  Biso   1.000  C
  C783     1.0000 0.31103  0.20149  0.55117  Biso   1.000  C
  C784     1.0000 0.01686  0.25816  0.31595  Biso   1.000  C
  C785     1.0000 0.72774  0.49247  0.19279  Biso   1.000  C
  C786     1.0000 0.76388  0.15750  0.98573  Biso   1.000  C
  C787     1.0000 0.02538  0.78838  0.23255  Biso   1.000  C
  C788     1.0000 0.28748  0.00534  0.30951  Biso   1.000  C
  C789     1.0000 0.21379  0.67776  0.49293  Biso   1.000  C
  C790     1.0000 0.50469  0.75428  0.32916  Biso   1.000  C
  C791     1.0000 0.78549  0.99350  0.22768  Biso   1.000  C
  C792     1.0000 0.69973  0.68946  0.99167  Biso   1.000  C
  C793     1.0000 0.45947  0.20146  0.32018  Biso   1.000  C
  C794     1.0000 0.28418  0.44235  0.21658  Biso   1.000  C
  C795     1.0000 0.20216  0.26722  0.50679  Biso   1.000  C
  C796     1.0000 0.97318  0.20079  0.20286  Biso   1.000  C
  C797     1.0000 0.81148  0.49790  0.28106  Biso   1.000  C
  C798     1.0000 0.67710  0.24307  0.99028  Biso   1.000  C
  C799     1.0000 0.98863  0.67383  0.29439  Biso   1.000  C
  C800     1.0000 0.17832  0.95885  0.24833  Biso   1.000  C
  C801     1.0000 0.29964  0.75967  0.52912  Biso   1.000  C
  C802     1.0000 0.49947  0.67452  0.23860  Biso   1.000  C
  C803     1.0000 0.69942  0.95190  0.30552  Biso   1.000  C
  C804     1.0000 0.81280  0.74701  0.02408  Biso   1.000  C
  C805     1.0000 0.51838  0.74547  0.70592  Biso   1.000  C
  C806     1.0000 0.70862  0.43812  0.80798  Biso   1.000  C
  C807     1.0000 0.76598  0.65788  0.53051  Biso   1.000  C
  C808     1.0000 0.01105  0.74324  0.82729  Biso   1.000  C
  C809     1.0000 0.17894  0.48949  0.74930  Biso   1.000  C
  C810     1.0000 0.31227  0.70605  0.01327  Biso   1.000  C
  C811     1.0000 0.02360  0.28140  0.73507  Biso   1.000  C
  C812     1.0000 0.82278  0.98326  0.77944  Biso   1.000  C
  C813     1.0000 0.72176  0.15752  0.52050  Biso   1.000  C
  C814     1.0000 0.48597  0.24590  0.82474  Biso   1.000  C
  C815     1.0000 0.32248  0.96903  0.75339  Biso   1.000  C
  C816     1.0000 0.17911  0.20871  0.98753  Biso   1.000  C
  C817     1.0000 0.99515  0.21914  0.79772  Biso   1.000  C
  C818     1.0000 0.74155  0.95517  0.21308  Biso   1.000  C
  C819     1.0000 0.25337  0.77888  0.02562  Biso   1.000  C
  C820     1.0000 0.49450  0.18188  0.75806  Biso   1.000  C
  C821     1.0000 0.23365  0.97416  0.32256  Biso   1.000  C
  C822     1.0000 0.73701  0.75672  0.53399  Biso   1.000  C
  C823     1.0000 0.51192  0.67949  0.76989  Biso   1.000  C
  C824     1.0000 0.71929  0.46051  0.24536  Biso   1.000  C
  C825     1.0000 0.23856  0.28021  0.00302  Biso   1.000  C
  C826     1.0000 0.01325  0.67946  0.75738  Biso   1.000  C
  C827     1.0000 0.24651  0.44650  0.31282  Biso   1.000  C
  C828     1.0000 0.75940  0.25605  0.51644  Biso   1.000  C
  C829     1.0000 0.99331  0.73745  0.22897  Biso   1.000  C
  C830     1.0000 0.25293  0.99822  0.81493  Biso   1.000  C
  C831     1.0000 0.76056  0.19747  0.03185  Biso   1.000  C
  C832     1.0000 0.52828  0.77014  0.27409  Biso   1.000  C
  C833     1.0000 0.76218  0.95314  0.71050  Biso   1.000  C
  C834     1.0000 0.26047  0.19688  0.51900  Biso   1.000  C
  C835     1.0000 0.47714  0.26905  0.26082  Biso   1.000  C
  C836     1.0000 0.27015  0.49140  0.78609  Biso   1.000  C
  C837     1.0000 0.75186  0.67687  0.01788  Biso   1.000  C
  C838     1.0000 0.98306  0.26698  0.26684  Biso   1.000  C
  C839     1.0000 0.74565  0.47372  0.71444  Biso   1.000  C
  C840     1.0000 0.20227  0.72986  0.52617  Biso   1.000  C
  C841     1.0000 0.23261  0.95692  0.78698  Biso   1.000  C
  C842     1.0000 0.74201  0.17792  0.98725  Biso   1.000  C
  C843     1.0000 0.02621  0.77018  0.25610  Biso   1.000  C
  C844     1.0000 0.73023  0.98144  0.74239  Biso   1.000  C
  C845     1.0000 0.29241  0.22567  0.54768  Biso   1.000  C
  C846     1.0000 0.51149  0.73397  0.30869  Biso   1.000  C
  C847     1.0000 0.24019  0.45936  0.81739  Biso   1.000  C
  C848     1.0000 0.71996  0.71085  0.99304  Biso   1.000  C
  C849     1.0000 0.50036  0.23559  0.22714  Biso   1.000  C
  C850     1.0000 0.77587  0.44353  0.74480  Biso   1.000  C
  C851     1.0000 0.23416  0.70059  0.49550  Biso   1.000  C
  C852     1.0000 0.01403  0.23655  0.29523  Biso   1.000  C
  C853     1.0000 0.76240  0.98844  0.24614  Biso   1.000  C
  C854     1.0000 0.21935  0.74152  0.04160  Biso   1.000  C
  C855     1.0000 0.02314  0.18709  0.76888  Biso   1.000  C
  C856     1.0000 0.26564  0.00191  0.28780  Biso   1.000  C
  C857     1.0000 0.70521  0.72721  0.50431  Biso   1.000  C
  C858     1.0000 0.52515  0.21434  0.72849  Biso   1.000  C
  C859     1.0000 0.74994  0.49198  0.21313  Biso   1.000  C
  C860     1.0000 0.26914  0.24725  0.02871  Biso   1.000  C
  C861     1.0000 0.48666  0.71176  0.80311  Biso   1.000  C
  C862     1.0000 0.22483  0.48108  0.28101  Biso   1.000  C
  C863     1.0000 0.79258  0.22100  0.49817  Biso   1.000  C
  C864     1.0000 0.97593  0.70785  0.73434  Biso   1.000  C
  C865     1.0000 0.70163  0.47546  0.76043  Biso   1.000  C
  C866     1.0000 0.77774  0.71169  0.50386  Biso   1.000  C
  C867     1.0000 0.48796  0.75470  0.75843  Biso   1.000  C
  C868     1.0000 0.23035  0.45780  0.74499  Biso   1.000  C
  C869     1.0000 0.26400  0.70268  0.05074  Biso   1.000  C
  C870     1.0000 0.98343  0.75302  0.77638  Biso   1.000  C
  C871     1.0000 0.76856  0.95206  0.78634  Biso   1.000  C
  C872     1.0000 0.71737  0.21173  0.49422  Biso   1.000  C
  C873     1.0000 0.99386  0.22972  0.72836  Biso   1.000  C
  C874     1.0000 0.26770  0.99366  0.74303  Biso   1.000  C
  C875     1.0000 0.22220  0.20624  0.02811  Biso   1.000  C
  C876     1.0000 0.51190  0.25749  0.76974  Biso   1.000  C
  C877     1.0000 0.29507  0.47028  0.27047  Biso   1.000  C
  C878     1.0000 0.24826  0.27235  0.54481  Biso   1.000  C
  C879     1.0000 0.49655  0.19253  0.26985  Biso   1.000  C
  C880     1.0000 0.76640  0.45630  0.28381  Biso   1.000  C
  C881     1.0000 0.72875  0.24981  0.02046  Biso   1.000  C
  C882     1.0000 0.00030  0.18967  0.25525  Biso   1.000  C
  C883     1.0000 0.21813  0.00498  0.24602  Biso   1.000  C
  C884     1.0000 0.24402  0.77501  0.50748  Biso   1.000  C
  C885     1.0000 0.02579  0.72250  0.30017  Biso   1.000  C
  C886     1.0000 0.69029  0.98081  0.25205  Biso   1.000  C
  C887     1.0000 0.76677  0.74927  0.98574  Biso   1.000  C
  C888     1.0000 0.54079  0.71828  0.23732  Biso   1.000  C
  C889     1.0000 0.71963  0.95202  0.28405  Biso   1.000  C
  C890     1.0000 0.29080  0.72792  0.01151  Biso   1.000  C
  C891     1.0000 0.02387  0.26079  0.75606  Biso   1.000  C
  C892     1.0000 0.19684  0.96167  0.27091  Biso   1.000  C
  C893     1.0000 0.74634  0.68022  0.53344  Biso   1.000  C
  C894     1.0000 0.48550  0.22519  0.80255  Biso   1.000  C
  C895     1.0000 0.79197  0.49604  0.25875  Biso   1.000  C
  C896     1.0000 0.20012  0.23016  0.98738  Biso   1.000  C
  C897     1.0000 0.51718  0.72414  0.72714  Biso   1.000  C
  C898     1.0000 0.26259  0.44342  0.23853  Biso   1.000  C
  C899     1.0000 0.74596  0.17809  0.52235  Biso   1.000  C
  C900     1.0000 0.00767  0.72056  0.80760  Biso   1.000  C
  C901     1.0000 0.30173  0.97228  0.77617  Biso   1.000  C
  C902     1.0000 0.69683  0.22004  0.99317  Biso   1.000  C
  C903     1.0000 0.98753  0.69607  0.27398  Biso   1.000  C
  C904     1.0000 0.80475  0.98065  0.75485  Biso   1.000  C
  C905     1.0000 0.22194  0.24566  0.50877  Biso   1.000  C
  C906     1.0000 0.49990  0.69513  0.26042  Biso   1.000  C
  C907     1.0000 0.19782  0.49071  0.77125  Biso   1.000  C
  C908     1.0000 0.79176  0.72556  0.02276  Biso   1.000  C
  C909     1.0000 0.46469  0.22185  0.29813  Biso   1.000  C
  C910     1.0000 0.72858  0.43844  0.78498  Biso   1.000  C
  C911     1.0000 0.27690  0.73934  0.52815  Biso   1.000  C
  C912     1.0000 0.97331  0.22063  0.22469  Biso   1.000  C
  C913     1.0000 0.75112  0.46013  0.74043  Biso   1.000  C
  C914     1.0000 0.73006  0.73024  0.52062  Biso   1.000  C
  C915     1.0000 0.49988  0.70598  0.77561  Biso   1.000  C
  C916     1.0000 0.24399  0.47519  0.79204  Biso   1.000  C
  C917     1.0000 0.24709  0.75039  0.03152  Biso   1.000  C
  C918     1.0000 0.99475  0.70313  0.75853  Biso   1.000  C
  C919     1.0000 0.75660  0.96702  0.73768  Biso   1.000  C
  C920     1.0000 0.76616  0.22740  0.50940  Biso   1.000  C
  C921     1.0000 0.01236  0.21395  0.77405  Biso   1.000  C
  C922     1.0000 0.25137  0.98039  0.78982  Biso   1.000  C
  C923     1.0000 0.24333  0.25260  0.01284  Biso   1.000  C
  C924     1.0000 0.50826  0.20826  0.75398  Biso   1.000  C
  C925     1.0000 0.24632  0.46108  0.28583  Biso   1.000  C
  C926     1.0000 0.26577  0.22255  0.53358  Biso   1.000  C
  C927     1.0000 0.48835  0.24155  0.25399  Biso   1.000  C
  C928     1.0000 0.74518  0.47671  0.23930  Biso   1.000  C
  C929     1.0000 0.74053  0.19803  0.00900  Biso   1.000  C
  C930     1.0000 0.99818  0.24074  0.26973  Biso   1.000  C
  C931     1.0000 0.23957  0.98627  0.29413  Biso   1.000  C
  C932     1.0000 0.22890  0.72488  0.51385  Biso   1.000  C
  C933     1.0000 0.00836  0.74411  0.25416  Biso   1.000  C
  C934     1.0000 0.74134  0.96908  0.23859  Biso   1.000  C
  C935     1.0000 0.74590  0.70338  0.00545  Biso   1.000  C
  C936     1.0000 0.52081  0.74127  0.28084  Biso   1.000  C
  C937     1.0000 0.72236  0.22409  0.00784  Biso   1.000  C
  C938     1.0000 0.00765  0.71974  0.27541  Biso   1.000  C
  C939     1.0000 0.27499  0.98442  0.76968  Biso   1.000  C
  C940     1.0000 0.24540  0.24778  0.52806  Biso   1.000  C
  C941     1.0000 0.52063  0.71742  0.25991  Biso   1.000  C
  C942     1.0000 0.77764  0.96599  0.76022  Biso   1.000  C
  C943     1.0000 0.76860  0.72753  0.00491  Biso   1.000  C
  C944     1.0000 0.48221  0.21802  0.27369  Biso   1.000  C
  C945     1.0000 0.22262  0.47380  0.76886  Biso   1.000  C
  C946     1.0000 0.25042  0.74724  0.51699  Biso   1.000  C
  C947     1.0000 0.98794  0.21627  0.25060  Biso   1.000  C
  C948     1.0000 0.72544  0.45604  0.76129  Biso   1.000  C
  C949     1.0000 0.26822  0.72595  0.03140  Biso   1.000  C
  C950     1.0000 0.01080  0.23490  0.75247  Biso   1.000  C
  C951     1.0000 0.71622  0.96832  0.25883  Biso   1.000  C
  C952     1.0000 0.75187  0.70680  0.52054  Biso   1.000  C
  C953     1.0000 0.49882  0.23084  0.77513  Biso   1.000  C
  C954     1.0000 0.21637  0.98550  0.27033  Biso   1.000  C
  C955     1.0000 0.22132  0.22960  0.00932  Biso   1.000  C
  C956     1.0000 0.50158  0.72768  0.75343  Biso   1.000  C
  C957     1.0000 0.76888  0.47586  0.26014  Biso   1.000  C
  C958     1.0000 0.74213  0.20496  0.50902  Biso   1.000  C
  C959     1.0000 0.99557  0.72653  0.78167  Biso   1.000  C
  C960     1.0000 0.26869  0.45639  0.26485  Biso   1.000  C
  Cu1      1.0000 0.99383  0.46994  0.66977  Biso   1.000  Cu
  Cu2      1.0000 0.64751  0.96769  0.50477  Biso   1.000  Cu
  Cu3      1.0000 0.50111  0.63254  0.01922  Biso   1.000  Cu
  Cu4      1.0000 0.48927  0.46984  0.86348  Biso   1.000  Cu
  Cu5      1.0000 0.15050  0.98420  0.02354  Biso   1.000  Cu
  Cu6      1.0000 0.99068  0.62566  0.51214  Biso   1.000  Cu
  Cu7      1.0000 0.51422  0.96990  0.66590  Biso   1.000  Cu
  Cu8      1.0000 0.84916  0.46730  0.50201  Biso   1.000  Cu
  Cu9      1.0000 0.98437  0.12639  0.00930  Biso   1.000  Cu
  Cu10     1.0000 0.00916  0.97252  0.86349  Biso   1.000  Cu
  Cu11     1.0000 0.34141  0.48581  0.02385  Biso   1.000  Cu
  Cu12     1.0000 0.49815  0.12826  0.51350  Biso   1.000  Cu
  Cu13     1.0000 0.00352  0.48210  0.35700  Biso   1.000  Cu
  Cu14     1.0000 0.34595  0.98214  0.52670  Biso   1.000  Cu
  Cu15     1.0000 0.48953  0.32330  0.01509  Biso   1.000  Cu
  Cu16     1.0000 0.50735  0.48036  0.16612  Biso   1.000  Cu
  Cu17     1.0000 0.84289  0.96842  0.00381  Biso   1.000  Cu
  Cu18     1.0000 0.00626  0.32388  0.51194  Biso   1.000  Cu
  Cu19     1.0000 0.47957  0.98007  0.36256  Biso   1.000  Cu
  Cu20     1.0000 0.14684  0.48561  0.52289  Biso   1.000  Cu
  Cu21     1.0000 0.00610  0.81961  0.01244  Biso   1.000  Cu
  Cu22     1.0000 0.98511  0.97947  0.17268  Biso   1.000  Cu
  Cu23     1.0000 0.64786  0.46751  0.00767  Biso   1.000  Cu
  Cu24     1.0000 0.49280  0.82437  0.51900  Biso   1.000  Cu
  Cu25     1.0000 0.20511  0.98810  0.02614  Biso   1.000  Cu
  Cu26     1.0000 0.98239  0.18134  0.00918  Biso   1.000  Cu
  Cu27     1.0000 0.98121  0.97683  0.22697  Biso   1.000  Cu
  Cu28     1.0000 0.70324  0.97088  0.49659  Biso   1.000  Cu
  Cu29     1.0000 0.50005  0.18252  0.51711  Biso   1.000  Cu
  Cu30     1.0000 0.47995  0.98039  0.30772  Biso   1.000  Cu
  Cu31     1.0000 0.28907  0.48883  0.02684  Biso   1.000  Cu
  Cu32     1.0000 0.50594  0.68441  0.01579  Biso   1.000  Cu
  Cu33     1.0000 0.50887  0.48353  0.21947  Biso   1.000  Cu
  Cu34     1.0000 0.79324  0.46448  0.50224  Biso   1.000  Cu
  Cu35     1.0000 0.98757  0.67786  0.51236  Biso   1.000  Cu
  Cu36     1.0000 0.00718  0.48122  0.30116  Biso   1.000  Cu
  Cu37     1.0000 0.79052  0.96403  0.00178  Biso   1.000  Cu
  Cu38     1.0000 0.00906  0.76598  0.01449  Biso   1.000  Cu
  Cu39     1.0000 0.01338  0.97177  0.80923  Biso   1.000  Cu
  Cu40     1.0000 0.29214  0.97987  0.53447  Biso   1.000  Cu
  Cu41     1.0000 0.48905  0.76834  0.51242  Biso   1.000  Cu
  Cu42     1.0000 0.51616  0.96904  0.71937  Biso   1.000  Cu
  Cu43     1.0000 0.70230  0.46464  0.00200  Biso   1.000  Cu
  Cu44     1.0000 0.48332  0.27066  0.01616  Biso   1.000  Cu
  Cu45     1.0000 0.48444  0.46918  0.80954  Biso   1.000  Cu
  Cu46     1.0000 0.20009  0.48467  0.52314  Biso   1.000  Cu
  Cu47     1.0000 0.00694  0.27087  0.51187  Biso   1.000  Cu
  Cu48     1.0000 0.98920  0.47009  0.72311  Biso   1.000  Cu
  H1       1.0000 0.22237  0.78315  0.50134  Biso   1.000  H
  H2       1.0000 0.52174  0.26464  0.74948  Biso   1.000  H
  H3       1.0000 0.75131  0.43857  0.28306  Biso   1.000  H
  H4       1.0000 0.75028  0.74965  0.96988  Biso   1.000  H
  H5       1.0000 0.98330  0.20795  0.72503  Biso   1.000  H
  H6       1.0000 0.29579  0.48328  0.29083  Biso   1.000  H
  H7       1.0000 0.26438  0.27267  0.56273  Biso   1.000  H
  H8       1.0000 0.96793  0.75537  0.75905  Biso   1.000  H
  H9       1.0000 0.68580  0.99036  0.23146  Biso   1.000  H
  H10      1.0000 0.75145  0.25223  0.02913  Biso   1.000  H
  H11      1.0000 0.47392  0.75838  0.77669  Biso   1.000  H
  H12      1.0000 0.23538  0.02224  0.24405  Biso   1.000  H
  H13      1.0000 0.71857  0.23230  0.48333  Biso   1.000  H
  H14      1.0000 0.55791  0.73465  0.23827  Biso   1.000  H
  H15      1.0000 0.25004  0.44411  0.74542  Biso   1.000  H
  H16      1.0000 0.23810  0.20521  0.04506  Biso   1.000  H
  H17      1.0000 0.03922  0.74057  0.30600  Biso   1.000  H
  H18      1.0000 0.69546  0.48857  0.74231  Biso   1.000  H
  H19      1.0000 0.77909  0.73280  0.49418  Biso   1.000  H
  H20      1.0000 0.00981  0.18310  0.27627  Biso   1.000  H
  H21      1.0000 0.24683  0.00445  0.73958  Biso   1.000  H
  H22      1.0000 0.24412  0.70227  0.06534  Biso   1.000  H
  H23      1.0000 0.51079  0.18695  0.25107  Biso   1.000  H
  H24      1.0000 0.74976  0.93759  0.78955  Biso   1.000  H
  H25      1.0000 0.26888  0.01633  0.81491  Biso   1.000  H
  H26      1.0000 0.75849  0.21324  0.04977  Biso   1.000  H
  H27      1.0000 0.98160  0.71580  0.22572  Biso   1.000  H
  H28      1.0000 0.78288  0.94154  0.70794  Biso   1.000  H
  H29      1.0000 0.23950  0.19246  0.50709  Biso   1.000  H
  H30      1.0000 0.53705  0.77594  0.25279  Biso   1.000  H
  H31      1.0000 0.27276  0.50017  0.76403  Biso   1.000  H
  H32      1.0000 0.77423  0.66976  0.02477  Biso   1.000  H
  H33      1.0000 0.46811  0.27406  0.28233  Biso   1.000  H
  H34      1.0000 0.72455  0.48391  0.71147  Biso   1.000  H
  H35      1.0000 0.19566  0.75074  0.53528  Biso   1.000  H
  H36      1.0000 0.97180  0.27327  0.24810  Biso   1.000  H
  H37      1.0000 0.72627  0.93783  0.20757  Biso   1.000  H
  H38      1.0000 0.27651  0.78420  0.02169  Biso   1.000  H
  H39      1.0000 0.98684  0.24143  0.79846  Biso   1.000  H
  H40      1.0000 0.21413  0.96257  0.32864  Biso   1.000  H
  H41      1.0000 0.75720  0.75882  0.54531  Biso   1.000  H
  H42      1.0000 0.48048  0.17603  0.77668  Biso   1.000  H
  H43      1.0000 0.71653  0.44849  0.26495  Biso   1.000  H
  H44      1.0000 0.21899  0.28356  0.99128  Biso   1.000  H
  H45      1.0000 0.52268  0.67479  0.74839  Biso   1.000  H
  H46      1.0000 0.26226  0.43044  0.31654  Biso   1.000  H
  H47      1.0000 0.73913  0.25983  0.52726  Biso   1.000  H
  H48      1.0000 0.03484  0.67938  0.76871  Biso   1.000  H
  H49      1.0000 0.22198  0.49315  0.26090  Biso   1.000  H
  H50      1.0000 0.29862  0.24619  0.55831  Biso   1.000  H
  H51      1.0000 0.50584  0.21456  0.21873  Biso   1.000  H
  H52      1.0000 0.76994  0.50404  0.21159  Biso   1.000  H
  H53      1.0000 0.72657  0.17558  0.97017  Biso   1.000  H
  H54      1.0000 0.02469  0.21667  0.29687  Biso   1.000  H
  H55      1.0000 0.27050  0.01112  0.26657  Biso   1.000  H
  H56      1.0000 0.25395  0.69903  0.47999  Biso   1.000  H
  H57      1.0000 0.03827  0.77715  0.27630  Biso   1.000  H
  H58      1.0000 0.76329  0.99964  0.26700  Biso   1.000  H
  H59      1.0000 0.71649  0.73262  0.98405  Biso   1.000  H
  H60      1.0000 0.50696  0.71226  0.31420  Biso   1.000  H
  H61      1.0000 0.77723  0.43207  0.76500  Biso   1.000  H
  H62      1.0000 0.70164  0.70655  0.49315  Biso   1.000  H
  H63      1.0000 0.47717  0.73270  0.81058  Biso   1.000  H
  H64      1.0000 0.21992  0.44671  0.81767  Biso   1.000  H
  H65      1.0000 0.21192  0.71879  0.04454  Biso   1.000  H
  H66      1.0000 0.96358  0.72617  0.73377  Biso   1.000  H
  H67      1.0000 0.72823  0.99522  0.76168  Biso   1.000  H
  H68      1.0000 0.79774  0.19806  0.49290  Biso   1.000  H
  H69      1.0000 0.03798  0.18320  0.75014  Biso   1.000  H
  H70      1.0000 0.23401  0.94295  0.76791  Biso   1.000  H
  H71      1.0000 0.27358  0.22475  0.03759  Biso   1.000  H
  H72      1.0000 0.53658  0.23506  0.72542  Biso   1.000  H
  H73      1.0000 0.74531  0.42318  0.78574  Biso   1.000  H
  H74      1.0000 0.72672  0.67788  0.54588  Biso   1.000  H
  H75      1.0000 0.53067  0.70461  0.72276  Biso   1.000  H
  H76      1.0000 0.19040  0.49962  0.79112  Biso   1.000  H
  H77      1.0000 0.29261  0.74662  0.99706  Biso   1.000  H
  H78      1.0000 0.01585  0.69961  0.81112  Biso   1.000  H
  H79      1.0000 0.80850  0.99208  0.73402  Biso   1.000  H
  H80      1.0000 0.76326  0.17324  0.53646  Biso   1.000  H
  H81      1.0000 0.03841  0.26215  0.77433  Biso   1.000  H
  H82      1.0000 0.30475  0.96413  0.79859  Biso   1.000  H
  H83      1.0000 0.20198  0.24491  0.96919  Biso   1.000  H
  H84      1.0000 0.48113  0.20295  0.80638  Biso   1.000  H
  H85      1.0000 0.24149  0.43284  0.23297  Biso   1.000  H
  H86      1.0000 0.21874  0.22627  0.49658  Biso   1.000  H
  H87      1.0000 0.45056  0.24062  0.30047  Biso   1.000  H
  H88      1.0000 0.79191  0.51125  0.24132  Biso   1.000  H
  H89      1.0000 0.69072  0.19915  0.98185  Biso   1.000  H
  H90      1.0000 0.95991  0.23908  0.22150  Biso   1.000  H
  H91      1.0000 0.19907  0.94565  0.28924  Biso   1.000  H
  H92      1.0000 0.27771  0.71850  0.53737  Biso   1.000  H
  H93      1.0000 0.96881  0.69292  0.26015  Biso   1.000  H
  H94      1.0000 0.74045  0.93921  0.28996  Biso   1.000  H
  H95      1.0000 0.79417  0.70718  0.03928  Biso   1.000  H
  H96      1.0000 0.48429  0.69402  0.27737  Biso   1.000  H
  H97      1.0000 0.87032  0.96016  0.91488  Biso   1.000  H
  H98      1.0000 0.91215  0.83867  0.00726  Biso   1.000  H
  H99      1.0000 0.01337  0.87743  0.88421  Biso   1.000  H
  H100     1.0000 0.37569  0.97877  0.61969  Biso   1.000  H
  H101     1.0000 0.40488  0.84410  0.50338  Biso   1.000  H
  H102     1.0000 0.50152  0.87430  0.64582  Biso   1.000  H
  H103     1.0000 0.62436  0.46041  0.91557  Biso   1.000  H
  H104     1.0000 0.57938  0.33218  0.02673  Biso   1.000  H
  H105     1.0000 0.49370  0.37965  0.88350  Biso   1.000  H
  H106     1.0000 0.13022  0.46898  0.61363  Biso   1.000  H
  H107     1.0000 0.09512  0.34744  0.51752  Biso   1.000  H
  H108     1.0000 0.99099  0.37908  0.64705  Biso   1.000  H
  H109     1.0000 0.12252  0.98846  0.11540  Biso   1.000  H
  H110     1.0000 0.07927  0.11186  0.00411  Biso   1.000  H
  H111     1.0000 0.97618  0.06679  0.14905  Biso   1.000  H
  H112     1.0000 0.62227  0.97909  0.41326  Biso   1.000  H
  H113     1.0000 0.58385  0.10736  0.50786  Biso   1.000  H
  H114     1.0000 0.48630  0.07017  0.38345  Biso   1.000  H
  H115     1.0000 0.36760  0.46550  0.10919  Biso   1.000  H
  H116     1.0000 0.41036  0.61721  0.02567  Biso   1.000  H
  H117     1.0000 0.50781  0.57646  0.14598  Biso   1.000  H
  H118     1.0000 0.86821  0.46971  0.41086  Biso   1.000  H
  H119     1.0000 0.90159  0.60468  0.50656  Biso   1.000  H
  H120     1.0000 0.01684  0.56986  0.37306  Biso   1.000  H
  H121     1.0000 0.09951  0.96805  0.88755  Biso   1.000  H
  H122     1.0000 0.85612  0.05955  0.01061  Biso   1.000  H
  H123     1.0000 0.00300  0.84928  0.10588  Biso   1.000  H
  H124     1.0000 0.60107  0.96330  0.64365  Biso   1.000  H
  H125     1.0000 0.36520  0.07270  0.53179  Biso   1.000  H
  H126     1.0000 0.48858  0.84904  0.42309  Biso   1.000  H
  H127     1.0000 0.39827  0.47877  0.89189  Biso   1.000  H
  H128     1.0000 0.63475  0.56073  0.00113  Biso   1.000  H
  H129     1.0000 0.49732  0.34606  0.10850  Biso   1.000  H
  H130     1.0000 0.90508  0.47105  0.64230  Biso   1.000  H
  H131     1.0000 0.12555  0.57158  0.51617  Biso   1.000  H
  H132     1.0000 0.01507  0.34358  0.42068  Biso   1.000  H
  H133     1.0000 0.89461  0.97018  0.14337  Biso   1.000  H
  H134     1.0000 0.13485  0.89033  0.01549  Biso   1.000  H
  H135     1.0000 0.98111  0.10910  0.91953  Biso   1.000  H
  H136     1.0000 0.38990  0.97007  0.38903  Biso   1.000  H
  H137     1.0000 0.62919  0.88240  0.51119  Biso   1.000  H
  H138     1.0000 0.52923  0.10805  0.60405  Biso   1.000  H
  H139     1.0000 0.59638  0.47839  0.14394  Biso   1.000  H
  H140     1.0000 0.35921  0.39557  0.01681  Biso   1.000  H
  H141     1.0000 0.49613  0.60701  0.92925  Biso   1.000  H
  H142     1.0000 0.09357  0.48133  0.37880  Biso   1.000  H
  H143     1.0000 0.87339  0.37589  0.50032  Biso   1.000  H
  H144     1.0000 0.98378  0.60612  0.60215  Biso   1.000  H
  H145     1.0000 0.58388  0.45798  0.87642  Biso   1.000  H
  H146     1.0000 0.86150  0.56118  0.49830  Biso   1.000  H
  H147     1.0000 0.49690  0.83610  0.60744  Biso   1.000  H
  H148     1.0000 0.08611  0.46742  0.65507  Biso   1.000  H
  H149     1.0000 0.36574  0.57787  0.03850  Biso   1.000  H
  H150     1.0000 0.01485  0.83704  0.92339  Biso   1.000  H
  H151     1.0000 0.91531  0.96263  0.87696  Biso   1.000  H
  H152     1.0000 0.62350  0.06443  0.50223  Biso   1.000  H
  H153     1.0000 0.00380  0.34394  0.60601  Biso   1.000  H
  H154     1.0000 0.42049  0.97355  0.65365  Biso   1.000  H
  H155     1.0000 0.12295  0.07487  0.02001  Biso   1.000  H
  H156     1.0000 0.49619  0.34017  0.92333  Biso   1.000  H
  H157     1.0000 0.41335  0.46823  0.14735  Biso   1.000  H
  H158     1.0000 0.13174  0.39211  0.52683  Biso   1.000  H
  H159     1.0000 0.48452  0.11490  0.42740  Biso   1.000  H
  H160     1.0000 0.91307  0.48199  0.37113  Biso   1.000  H
  H161     1.0000 0.62385  0.37232  0.01784  Biso   1.000  H
  H162     1.0000 0.97937  0.10546  0.10738  Biso   1.000  H
  H163     1.0000 0.07520  0.98368  0.15612  Biso   1.000  H
  H164     1.0000 0.36548  0.88941  0.51358  Biso   1.000  H
  H165     1.0000 0.00798  0.60673  0.42156  Biso   1.000  H
  H166     1.0000 0.57771  0.97251  0.38029  Biso   1.000  H
  H167     1.0000 0.86838  0.88094  0.00884  Biso   1.000  H
  H168     1.0000 0.51675  0.61598  0.10596  Biso   1.000  H
  H169     1.0000 0.99202  0.06481  0.87974  Biso   1.000  H
  H170     1.0000 0.85589  0.97774  0.09775  Biso   1.000  H
  H171     1.0000 0.09546  0.84252  0.00012  Biso   1.000  H
  H172     1.0000 0.52219  0.06067  0.64844  Biso   1.000  H
  H173     1.0000 0.35411  0.96961  0.43345  Biso   1.000  H
  H174     1.0000 0.58697  0.83969  0.51234  Biso   1.000  H
  H175     1.0000 0.50059  0.56202  0.88410  Biso   1.000  H
  H176     1.0000 0.63049  0.47315  0.10194  Biso   1.000  H
  H177     1.0000 0.40343  0.34681  0.01568  Biso   1.000  H
  H178     1.0000 0.99274  0.55873  0.64453  Biso   1.000  H
  H179     1.0000 0.12889  0.48219  0.42881  Biso   1.000  H
  H180     1.0000 0.91209  0.33694  0.50923  Biso   1.000  H
  H181     1.0000 0.99089  0.88950  0.15460  Biso   1.000  H
  H182     1.0000 0.13752  0.97693  0.92975  Biso   1.000  H
  H183     1.0000 0.89599  0.10441  0.02201  Biso   1.000  H
  H184     1.0000 0.48346  0.88757  0.37957  Biso   1.000  H
  H185     1.0000 0.64018  0.95896  0.59575  Biso   1.000  H
  H186     1.0000 0.41073  0.10843  0.53197  Biso   1.000  H
  H187     1.0000 0.50436  0.38716  0.14572  Biso   1.000  H
  H188     1.0000 0.35770  0.47666  0.93366  Biso   1.000  H
  H189     1.0000 0.59399  0.60477  0.00864  Biso   1.000  H
  H190     1.0000 0.99859  0.38729  0.37869  Biso   1.000  H
  H191     1.0000 0.86709  0.47264  0.59913  Biso   1.000  H
  H192     1.0000 0.08188  0.61147  0.51313  Biso   1.000  H
  H193     1.0000 0.26760  0.83972  0.52966  Biso   1.000  H
  H194     1.0000 0.51071  0.24574  0.87217  Biso   1.000  H
  H195     1.0000 0.86490  0.49017  0.27494  Biso   1.000  H
  H196     1.0000 0.77386  0.81936  0.99949  Biso   1.000  H
  H197     1.0000 0.01271  0.24624  0.65585  Biso   1.000  H
  H198     1.0000 0.36942  0.45251  0.24955  Biso   1.000  H
  H199     1.0000 0.23340  0.34741  0.53250  Biso   1.000  H
  H200     1.0000 0.99095  0.74083  0.87432  Biso   1.000  H
  H201     1.0000 0.61911  0.97172  0.27620  Biso   1.000  H
  H202     1.0000 0.72037  0.32010  0.99840  Biso   1.000  H
  H203     1.0000 0.48456  0.73841  0.65799  Biso   1.000  H
  H204     1.0000 0.12219  0.96900  0.25579  Biso   1.000  H
  H205     1.0000 0.72468  0.10880  0.50069  Biso   1.000  H
  H206     1.0000 0.52012  0.71364  0.16079  Biso   1.000  H
  H207     1.0000 0.13341  0.46000  0.75225  Biso   1.000  H
  H208     1.0000 0.21648  0.13515  0.01891  Biso   1.000  H
  H209     1.0000 0.00009  0.70548  0.36935  Biso   1.000  H
  H210     1.0000 0.63124  0.46300  0.77623  Biso   1.000  H
  H211     1.0000 0.76230  0.60593  0.50630  Biso   1.000  H
  H212     1.0000 0.99764  0.20533  0.15093  Biso   1.000  H
  H213     1.0000 0.37546  0.97985  0.75533  Biso   1.000  H
  H214     1.0000 0.27324  0.63094  0.03981  Biso   1.000  H
  H215     1.0000 0.46967  0.21011  0.37468  Biso   1.000  H
  H216     1.0000 0.87080  0.95614  0.77624  Biso   1.000  H
  H217     1.0000 0.23107  0.47709  0.38462  Biso   1.000  H
  H218     1.0000 0.35943  0.20963  0.53466  Biso   1.000  H
  H219     1.0000 0.51024  0.33975  0.24455  Biso   1.000  H
  H220     1.0000 0.73000  0.46376  0.14737  Biso   1.000  H
  H221     1.0000 0.83849  0.19517  0.00803  Biso   1.000  H
  H222     1.0000 0.00845  0.33748  0.28115  Biso   1.000  H
  H223     1.0000 0.25604  0.99405  0.39238  Biso   1.000  H
  H224     1.0000 0.12774  0.71320  0.50357  Biso   1.000  H
  H225     1.0000 0.99055  0.83170  0.24640  Biso   1.000  H
  H226     1.0000 0.75631  0.98978  0.14323  Biso   1.000  H
  H227     1.0000 0.65095  0.69747  0.02229  Biso   1.000  H
  H228     1.0000 0.50128  0.83906  0.28500  Biso   1.000  H
  H229     1.0000 0.76641  0.45303  0.64327  Biso   1.000  H
  H230     1.0000 0.63065  0.74148  0.52140  Biso   1.000  H
  H231     1.0000 0.49375  0.61308  0.78734  Biso   1.000  H
  H232     1.0000 0.25804  0.47620  0.88360  Biso   1.000  H
  H233     1.0000 0.15435  0.75446  0.02350  Biso   1.000  H
  H234     1.0000 0.98916  0.61302  0.74369  Biso   1.000  H
  H235     1.0000 0.74269  0.96252  0.63679  Biso   1.000  H
  H236     1.0000 0.86490  0.23993  0.52235  Biso   1.000  H
  H237     1.0000 0.00078  0.11645  0.78275  Biso   1.000  H
  H238     1.0000 0.23799  0.97090  0.88360  Biso   1.000  H
  H239     1.0000 0.33866  0.25589  0.00955  Biso   1.000  H
  H240     1.0000 0.52503  0.11579  0.74543  Biso   1.000  H
  H241     1.0000 0.71994  0.45991  0.85905  Biso   1.000  H
  H242     1.0000 0.84407  0.69462  0.52923  Biso   1.000  H
  H243     1.0000 0.52165  0.82390  0.74196  Biso   1.000  H
  H244     1.0000 0.22468  0.48520  0.66783  Biso   1.000  H
  H245     1.0000 0.36482  0.71609  0.03498  Biso   1.000  H
  H246     1.0000 0.99934  0.82693  0.78879  Biso   1.000  H
  H247     1.0000 0.77895  0.97516  0.85516  Biso   1.000  H
  H248     1.0000 0.63990  0.20119  0.50970  Biso   1.000  H
  H249     1.0000 0.99795  0.32368  0.74163  Biso   1.000  H
  H250     1.0000 0.28085  0.96428  0.67892  Biso   1.000  H
  H251     1.0000 0.12303  0.21412  0.99801  Biso   1.000  H
  H252     1.0000 0.48850  0.32732  0.78384  Biso   1.000  H
  H253     1.0000 0.27647  0.46574  0.17233  Biso   1.000  H
  H254     1.0000 0.15297  0.25251  0.51279  Biso   1.000  H
  H255     1.0000 0.47433  0.12355  0.28607  Biso   1.000  H
  H256     1.0000 0.77396  0.47328  0.35596  Biso   1.000  H
  H257     1.0000 0.62298  0.23551  0.00863  Biso   1.000  H
  H258     1.0000 0.96951  0.12581  0.24025  Biso   1.000  H
  H259     1.0000 0.21406  0.98122  0.17352  Biso   1.000  H
  H260     1.0000 0.34642  0.75103  0.49764  Biso   1.000  H
  H261     1.0000 0.01272  0.63007  0.28105  Biso   1.000  H
  H262     1.0000 0.71118  0.96712  0.35096  Biso   1.000  H
  H263     1.0000 0.86425  0.73966  0.00343  Biso   1.000  H
  H264     1.0000 0.50748  0.62083  0.24610  Biso   1.000  H
  H265     1.0000 0.99884  0.20244  0.86715  Biso   1.000  H
  H266     1.0000 0.83443  0.97862  0.23742  Biso   1.000  H
  H267     1.0000 0.22757  0.84256  0.04815  Biso   1.000  H
  H268     1.0000 0.50145  0.19773  0.66146  Biso   1.000  H
  H269     1.0000 0.33249  0.97874  0.29857  Biso   1.000  H
  H270     1.0000 0.72512  0.82671  0.51409  Biso   1.000  H
  H271     1.0000 0.50443  0.70309  0.87485  Biso   1.000  H
  H272     1.0000 0.65406  0.49378  0.23588  Biso   1.000  H
  H273     1.0000 0.25997  0.34759  0.02612  Biso   1.000  H
  H274     1.0000 0.99163  0.69879  0.66030  Biso   1.000  H
  H275     1.0000 0.15472  0.47049  0.28688  Biso   1.000  H
  H276     1.0000 0.77489  0.32437  0.49869  Biso   1.000  H
  H277     1.0000 0.01855  0.75400  0.15669  Biso   1.000  H
  H278     1.0000 0.16306  0.96962  0.79470  Biso   1.000  H
  H279     1.0000 0.75741  0.10583  0.99755  Biso   1.000  H
  H280     1.0000 0.52740  0.75600  0.37598  Biso   1.000  H
  H281     1.0000 0.66462  0.95872  0.73347  Biso   1.000  H
  H282     1.0000 0.27100  0.12799  0.54016  Biso   1.000  H
  H283     1.0000 0.47221  0.25490  0.16291  Biso   1.000  H
  H284     1.0000 0.34043  0.46922  0.79861  Biso   1.000  H
  H285     1.0000 0.73551  0.60825  0.99811  Biso   1.000  H
  H286     1.0000 0.00129  0.24847  0.36853  Biso   1.000  H
  H287     1.0000 0.84190  0.47000  0.73380  Biso   1.000  H
  H288     1.0000 0.22039  0.63072  0.51865  Biso   1.000  H
  H289     1.0000 0.07126  0.20798  0.00172  Biso   1.000  H
  H290     1.0000 0.97033  0.07194  0.24570  Biso   1.000  H
  H291     1.0000 0.21750  0.98127  0.11935  Biso   1.000  H
  H292     1.0000 0.58731  0.20031  0.49938  Biso   1.000  H
  H293     1.0000 0.48141  0.07020  0.28914  Biso   1.000  H
  H294     1.0000 0.71582  0.96894  0.40501  Biso   1.000  H
  H295     1.0000 0.41837  0.71193  0.02961  Biso   1.000  H
  H296     1.0000 0.49521  0.56895  0.24040  Biso   1.000  H
  H297     1.0000 0.27262  0.47219  0.11854  Biso   1.000  H
  H298     1.0000 0.89531  0.69505  0.52973  Biso   1.000  H
  H299     1.0000 0.01377  0.57619  0.27568  Biso   1.000  H
  H300     1.0000 0.77065  0.46850  0.40944  Biso   1.000  H
  H301     1.0000 0.91829  0.74426  0.00848  Biso   1.000  H
  H302     1.0000 0.00346  0.88336  0.79092  Biso   1.000  H
  H303     1.0000 0.77428  0.97132  0.90986  Biso   1.000  H
  H304     1.0000 0.39972  0.75079  0.49544  Biso   1.000  H
  H305     1.0000 0.52529  0.88364  0.73868  Biso   1.000  H
  H306     1.0000 0.27841  0.96502  0.62507  Biso   1.000  H
  H307     1.0000 0.57218  0.23963  0.01277  Biso   1.000  H
  H308     1.0000 0.48495  0.37959  0.78802  Biso   1.000  H
  H309     1.0000 0.71980  0.46434  0.91659  Biso   1.000  H
  H310     1.0000 0.10084  0.25120  0.50193  Biso   1.000  H
  H311     1.0000 0.98647  0.37762  0.74413  Biso   1.000  H
  H312     1.0000 0.22348  0.49064  0.61603  Biso   1.000  H
  H313     1.0000 0.23472  0.97080  0.94010  Biso   1.000  H
  H314     1.0000 0.89078  0.19743  0.01740  Biso   1.000  H
  H315     1.0000 0.98015  0.88727  0.24688  Biso   1.000  H
  H316     1.0000 0.73354  0.96242  0.58241  Biso   1.000  H
  H317     1.0000 0.41429  0.20632  0.53928  Biso   1.000  H
  H318     1.0000 0.48961  0.88955  0.28342  Biso   1.000  H
  H319     1.0000 0.26057  0.47767  0.93984  Biso   1.000  H
  H320     1.0000 0.59697  0.69807  0.02438  Biso   1.000  H
  H321     1.0000 0.52374  0.39026  0.23920  Biso   1.000  H
  H322     1.0000 0.77077  0.45837  0.59323  Biso   1.000  H
  H323     1.0000 0.07714  0.70599  0.50136  Biso   1.000  H
  H324     1.0000 0.00620  0.39137  0.28361  Biso   1.000  H
  H325     1.0000 0.76207  0.97840  0.08849  Biso   1.000  H
  H326     1.0000 0.10133  0.74776  0.00958  Biso   1.000  H
  H327     1.0000 0.01295  0.06101  0.78867  Biso   1.000  H
  H328     1.0000 0.26061  0.98916  0.44738  Biso   1.000  H
  H329     1.0000 0.57911  0.74495  0.52036  Biso   1.000  H
  H330     1.0000 0.52249  0.05727  0.74476  Biso   1.000  H
  H331     1.0000 0.72643  0.45838  0.09213  Biso   1.000  H
  H332     1.0000 0.39403  0.25501  0.00533  Biso   1.000  H
  H333     1.0000 0.49026  0.55963  0.78953  Biso   1.000  H
  H334     1.0000 0.22426  0.48145  0.43563  Biso   1.000  H
  H335     1.0000 0.91576  0.24265  0.53013  Biso   1.000  H
  H336     1.0000 0.99119  0.56277  0.74350  Biso   1.000  H
  H337     1.0000 0.99164  0.20284  0.91868  Biso   1.000  H
  H338     1.0000 0.88950  0.98079  0.23840  Biso   1.000  H
  H339     1.0000 0.22528  0.89834  0.05162  Biso   1.000  H
  H340     1.0000 0.50910  0.19988  0.60581  Biso   1.000  H
  H341     1.0000 0.38704  0.97729  0.29474  Biso   1.000  H
  H342     1.0000 0.72650  0.87691  0.50499  Biso   1.000  H
  H343     1.0000 0.50250  0.70022  0.92648  Biso   1.000  H
  H344     1.0000 0.60257  0.50302  0.23764  Biso   1.000  H
  H345     1.0000 0.26406  0.39941  0.02794  Biso   1.000  H
  H346     1.0000 0.98871  0.69888  0.60284  Biso   1.000  H
  H347     1.0000 0.10153  0.47423  0.28313  Biso   1.000  H
  H348     1.0000 0.77890  0.37716  0.49026  Biso   1.000  H
  H349     1.0000 0.02356  0.75490  0.10314  Biso   1.000  H
  H350     1.0000 0.10699  0.97108  0.78988  Biso   1.000  H
  H351     1.0000 0.76289  0.05303  0.99726  Biso   1.000  H
  H352     1.0000 0.53132  0.76210  0.42968  Biso   1.000  H
  H353     1.0000 0.60894  0.95857  0.73822  Biso   1.000  H
  H354     1.0000 0.26642  0.07283  0.53639  Biso   1.000  H
  H355     1.0000 0.46538  0.25631  0.10779  Biso   1.000  H
  H356     1.0000 0.39741  0.47073  0.79585  Biso   1.000  H
  H357     1.0000 0.73177  0.55527  0.99727  Biso   1.000  H
  H358     1.0000 0.00457  0.24967  0.41893  Biso   1.000  H
  H359     1.0000 0.89706  0.47462  0.73864  Biso   1.000  H
  H360     1.0000 0.21873  0.57662  0.52397  Biso   1.000  H
  H361     1.0000 0.99942  0.70301  0.42651  Biso   1.000  H
  H362     1.0000 0.42975  0.98130  0.74603  Biso   1.000  H
  H363     1.0000 0.71958  0.37460  0.00571  Biso   1.000  H
  H364     1.0000 0.51848  0.71269  0.10636  Biso   1.000  H
  H365     1.0000 0.92484  0.95338  0.78383  Biso   1.000  H
  H366     1.0000 0.22606  0.40084  0.54003  Biso   1.000  H
  H367     1.0000 0.47622  0.20925  0.42585  Biso   1.000  H
  H368     1.0000 0.07887  0.46087  0.74968  Biso   1.000  H
  H369     1.0000 0.77397  0.87299  0.00131  Biso   1.000  H
  H370     1.0000 0.99747  0.20267  0.10112  Biso   1.000  H
  H371     1.0000 0.57920  0.46362  0.77852  Biso   1.000  H
  H372     1.0000 0.27237  0.89400  0.53464  Biso   1.000  H
  H373     1.0000 0.01143  0.24791  0.60249  Biso   1.000  H
  H374     1.0000 0.56553  0.98140  0.28092  Biso   1.000  H
  H375     1.0000 0.27104  0.57946  0.03594  Biso   1.000  H
  H376     1.0000 0.50816  0.24423  0.92628  Biso   1.000  H
  H377     1.0000 0.07401  0.97759  0.25629  Biso   1.000  H
  H378     1.0000 0.76461  0.55506  0.48977  Biso   1.000  H
  H379     1.0000 0.47838  0.74431  0.60408  Biso   1.000  H
  H380     1.0000 0.91663  0.48551  0.27594  Biso   1.000  H
  H381     1.0000 0.21868  0.08322  0.02447  Biso   1.000  H
  H382     1.0000 0.99185  0.74307  0.92482  Biso   1.000  H
  H383     1.0000 0.42332  0.45567  0.24173  Biso   1.000  H
  H384     1.0000 0.72062  0.05414  0.49713  Biso   1.000  H
  H385     1.0000 0.22514  0.43702  0.35297  Biso   1.000  H
  H386     1.0000 0.27529  0.15600  0.50401  Biso   1.000  H
  H387     1.0000 0.47186  0.31182  0.24523  Biso   1.000  H
  H388     1.0000 0.67737  0.44918  0.23364  Biso   1.000  H
  H389     1.0000 0.79968  0.18001  0.04957  Biso   1.000  H
  H390     1.0000 0.97237  0.30846  0.28468  Biso   1.000  H
  H391     1.0000 0.24920  0.96086  0.36021  Biso   1.000  H
  H392     1.0000 0.16017  0.70972  0.53504  Biso   1.000  H
  H393     1.0000 0.97475  0.75098  0.18834  Biso   1.000  H
  H394     1.0000 0.76476  0.94596  0.17193  Biso   1.000  H
  H395     1.0000 0.73518  0.63758  0.03306  Biso   1.000  H
  H396     1.0000 0.53398  0.81121  0.29259  Biso   1.000  H
  H397     1.0000 0.76387  0.48889  0.67522  Biso   1.000  H
  H398     1.0000 0.71925  0.79658  0.55052  Biso   1.000  H
  H399     1.0000 0.52443  0.63867  0.79022  Biso   1.000  H
  H400     1.0000 0.31140  0.50406  0.80469  Biso   1.000  H
  H401     1.0000 0.23740  0.81951  0.01265  Biso   1.000  H
  H402     1.0000 0.02543  0.64143  0.73739  Biso   1.000  H
  H403     1.0000 0.74378  0.93482  0.67339  Biso   1.000  H
  H404     1.0000 0.77509  0.29819  0.52661  Biso   1.000  H
  H405     1.0000 0.97328  0.20199  0.83408  Biso   1.000  H
  H406     1.0000 0.22981  0.01107  0.85457  Biso   1.000  H
  H407     1.0000 0.25877  0.32365  0.99202  Biso   1.000  H
  H408     1.0000 0.48328  0.14012  0.73987  Biso   1.000  H
  H409     1.0000 0.27918  0.43157  0.19648  Biso   1.000  H
  H410     1.0000 0.18886  0.26549  0.48769  Biso   1.000  H
  H411     1.0000 0.44231  0.20621  0.33526  Biso   1.000  H
  H412     1.0000 0.82772  0.51512  0.28447  Biso   1.000  H
  H413     1.0000 0.65796  0.23737  0.97830  Biso   1.000  H
  H414     1.0000 0.96170  0.20709  0.18322  Biso   1.000  H
  H415     1.0000 0.16351  0.93911  0.24893  Biso   1.000  H
  H416     1.0000 0.31930  0.75089  0.53919  Biso   1.000  H
  H417     1.0000 0.97460  0.65487  0.29320  Biso   1.000  H
  H418     1.0000 0.70288  0.93552  0.32322  Biso   1.000  H
  H419     1.0000 0.83120  0.74321  0.03968  Biso   1.000  H
  H420     1.0000 0.48410  0.65665  0.24182  Biso   1.000  H
  H421     1.0000 0.71199  0.42422  0.82581  Biso   1.000  H
  H422     1.0000 0.76022  0.63807  0.54064  Biso   1.000  H
  H423     1.0000 0.52964  0.74330  0.68493  Biso   1.000  H
  H424     1.0000 0.15858  0.50135  0.74940  Biso   1.000  H
  H425     1.0000 0.32837  0.70480  0.99647  Biso   1.000  H
  H426     1.0000 0.02401  0.73963  0.84594  Biso   1.000  H
  H427     1.0000 0.84361  0.99470  0.77580  Biso   1.000  H
  H428     1.0000 0.72332  0.13643  0.53118  Biso   1.000  H
  H429     1.0000 0.03736  0.30254  0.73662  Biso   1.000  H
  H430     1.0000 0.34192  0.95837  0.75919  Biso   1.000  H
  H431     1.0000 0.16048  0.21077  0.97267  Biso   1.000  H
  H432     1.0000 0.47827  0.23940  0.84669  Biso   1.000  H
  H433     1.0000 0.28572  0.00822  0.70101  Biso   1.000  H
  H434     1.0000 0.71220  0.29305  0.03402  Biso   1.000  H
  H435     1.0000 0.04035  0.70360  0.33990  Biso   1.000  H
  H436     1.0000 0.78059  0.94123  0.82846  Biso   1.000  H
  H437     1.0000 0.23303  0.31376  0.55858  Biso   1.000  H
  H438     1.0000 0.55516  0.70222  0.19444  Biso   1.000  H
  H439     1.0000 0.21719  0.44027  0.70388  Biso   1.000  H
  H440     1.0000 0.78268  0.79038  0.96989  Biso   1.000  H
  H441     1.0000 0.50717  0.15334  0.28688  Biso   1.000  H
  H442     1.0000 0.66400  0.49034  0.78240  Biso   1.000  H
  H443     1.0000 0.26109  0.81619  0.49692  Biso   1.000  H
  H444     1.0000 0.00960  0.14685  0.23878  Biso   1.000  H
  H445     1.0000 0.64912  0.99455  0.27241  Biso   1.000  H
  H446     1.0000 0.28203  0.66541  0.07192  Biso   1.000  H
  H447     1.0000 0.98233  0.24207  0.68352  Biso   1.000  H
  H448     1.0000 0.19787  0.01938  0.20790  Biso   1.000  H
  H449     1.0000 0.81806  0.69378  0.48824  Biso   1.000  H
  H450     1.0000 0.51880  0.30096  0.78364  Biso   1.000  H
  H451     1.0000 0.78240  0.44127  0.32377  Biso   1.000  H
  H452     1.0000 0.20274  0.17030  0.04735  Biso   1.000  H
  H453     1.0000 0.47881  0.79599  0.74324  Biso   1.000  H
  H454     1.0000 0.33712  0.48183  0.25512  Biso   1.000  H
  H455     1.0000 0.67578  0.19821  0.47900  Biso   1.000  H
  H456     1.0000 0.97616  0.79638  0.78637  Biso   1.000  H
  H457     1.0000 0.66652  0.74729  0.48674  Biso   1.000  H
  H458     1.0000 0.47166  0.69893  0.84312  Biso   1.000  H
  H459     1.0000 0.81850  0.43191  0.72816  Biso   1.000  H
  H460     1.0000 0.17691  0.75375  0.05441  Biso   1.000  H
  H461     1.0000 0.96132  0.69228  0.69188  Biso   1.000  H
  H462     1.0000 0.26425  0.44317  0.85625  Biso   1.000  H
  H463     1.0000 0.83574  0.23596  0.48750  Biso   1.000  H
  H464     1.0000 0.02935  0.14453  0.78294  Biso   1.000  H
  H465     1.0000 0.68998  0.99395  0.72239  Biso   1.000  H
  H466     1.0000 0.30942  0.26230  0.04255  Biso   1.000  H
  H467     1.0000 0.54190  0.19705  0.68859  Biso   1.000  H
  H468     1.0000 0.19416  0.93783  0.80628  Biso   1.000  H
  H469     1.0000 0.32872  0.20232  0.56815  Biso   1.000  H
  H470     1.0000 0.51912  0.25065  0.18945  Biso   1.000  H
  H471     1.0000 0.18498  0.50136  0.29758  Biso   1.000  H
  H472     1.0000 0.76397  0.13959  0.96983  Biso   1.000  H
  H473     1.0000 0.03082  0.25526  0.33326  Biso   1.000  H
  H474     1.0000 0.73148  0.50591  0.17486  Biso   1.000  H
  H475     1.0000 0.21983  0.66172  0.47805  Biso   1.000  H
  H476     1.0000 0.03979  0.80772  0.23426  Biso   1.000  H
  H477     1.0000 0.30762  0.01661  0.30434  Biso   1.000  H
  H478     1.0000 0.67856  0.69510  0.98001  Biso   1.000  H
  H479     1.0000 0.49301  0.74589  0.34774  Biso   1.000  H
  H480     1.0000 0.80199  0.00938  0.23363  Biso   1.000  H
  N1       1.0000 0.67309  0.14551  0.50499  Biso   1.000  N
  N2       1.0000 0.51620  0.65784  0.19315  Biso   1.000  N
  N3       1.0000 0.16800  0.47297  0.70098  Biso   1.000  N
  N4       1.0000 0.16108  0.16249  0.00908  Biso   1.000  N
  N5       1.0000 0.00717  0.65455  0.33601  Biso   1.000  N
  N6       1.0000 0.66578  0.45861  0.82980  Biso   1.000  N
  N7       1.0000 0.81206  0.64155  0.51219  Biso   1.000  N
  N8       1.0000 0.98456  0.15347  0.18765  Biso   1.000  N
  N9       1.0000 0.33641  0.97586  0.70582  Biso   1.000  N
  N10      1.0000 0.32808  0.66326  0.03667  Biso   1.000  N
  N11      1.0000 0.47773  0.15611  0.33816  Biso   1.000  N
  N12      1.0000 0.83340  0.96563  0.82690  Biso   1.000  N
  N13      1.0000 0.31762  0.80611  0.51255  Biso   1.000  N
  N14      1.0000 0.49852  0.29474  0.83828  Biso   1.000  N
  N15      1.0000 0.82741  0.47971  0.32673  Biso   1.000  N
  N16      1.0000 0.83187  0.79123  0.00262  Biso   1.000  N
  N17      1.0000 0.00609  0.29646  0.68830  Biso   1.000  N
  N18      1.0000 0.33013  0.45944  0.19972  Biso   1.000  N
  N19      1.0000 0.18194  0.30936  0.52563  Biso   1.000  N
  N20      1.0000 0.00425  0.79306  0.83916  Biso   1.000  N
  N21      1.0000 0.65490  0.96827  0.32452  Biso   1.000  N
  N22      1.0000 0.66380  0.28908  0.00880  Biso   1.000  N
  N23      1.0000 0.50600  0.79240  0.69036  Biso   1.000  N
  N24      1.0000 0.15946  0.97767  0.20180  Biso   1.000  N
  N25      1.0000 0.81565  0.46328  0.68039  Biso   1.000  N
  N26      1.0000 0.66972  0.79468  0.51794  Biso   1.000  N
  N27      1.0000 0.50083  0.64646  0.84037  Biso   1.000  N
  N28      1.0000 0.31020  0.47504  0.84989  Biso   1.000  N
  N29      1.0000 0.18134  0.80904  0.03101  Biso   1.000  N
  N30      1.0000 0.98916  0.64456  0.68938  Biso   1.000  N
  N31      1.0000 0.69184  0.96211  0.67668  Biso   1.000  N
  N32      1.0000 0.82809  0.29061  0.50614  Biso   1.000  N
  N33      1.0000 0.99815  0.14915  0.83317  Biso   1.000  N
  N34      1.0000 0.18781  0.97491  0.85037  Biso   1.000  N
  N35      1.0000 0.31119  0.31313  0.01634  Biso   1.000  N
  N36      1.0000 0.51483  0.14561  0.69096  Biso   1.000  N
  N37      1.0000 0.18105  0.47353  0.34537  Biso   1.000  N
  N38      1.0000 0.32644  0.15668  0.53388  Biso   1.000  N
  N39      1.0000 0.49593  0.30443  0.19273  Biso   1.000  N
  N40      1.0000 0.68054  0.47671  0.18134  Biso   1.000  N
  N41      1.0000 0.80796  0.14208  0.00780  Biso   1.000  N
  N42      1.0000 0.00416  0.30446  0.33360  Biso   1.000  N
  N43      1.0000 0.30322  0.98663  0.35621  Biso   1.000  N
  N44      1.0000 0.16601  0.66074  0.50973  Biso   1.000  N
  N45      1.0000 0.00428  0.80422  0.18914  Biso   1.000  N
  N46      1.0000 0.80682  0.98336  0.17980  Biso   1.000  N
  N47      1.0000 0.68219  0.64330  0.00697  Biso   1.000  N
  N48      1.0000 0.50466  0.80495  0.34072  Biso   1.000  N
  O1       1.0000 0.34183  0.52718  0.02925  Biso   1.000  O
  O2       1.0000 0.00127  0.31775  0.55451  Biso   1.000  O
  O3       1.0000 0.52213  0.97788  0.35910  Biso   1.000  O
  O4       1.0000 0.83965  0.50779  0.49753  Biso   1.000  O
  O5       1.0000 0.49764  0.31799  0.97422  Biso   1.000  O
  O6       1.0000 0.02686  0.98144  0.17995  Biso   1.000  O
  O7       1.0000 0.15067  0.02570  0.01915  Biso   1.000  O
  O8       1.0000 0.48427  0.81847  0.55966  Biso   1.000  O
  O9       1.0000 0.96067  0.48438  0.35122  Biso   1.000  O
  O10      1.0000 0.64932  0.01019  0.50369  Biso   1.000  O
  O11      1.0000 0.00414  0.81644  0.97012  Biso   1.000  O
  O12      1.0000 0.46665  0.47409  0.16813  Biso   1.000  O
  O13      1.0000 0.64996  0.42424  0.00835  Biso   1.000  O
  O14      1.0000 0.99483  0.62805  0.46911  Biso   1.000  O
  O15      1.0000 0.47168  0.97242  0.67170  Biso   1.000  O
  O16      1.0000 0.15030  0.44289  0.52635  Biso   1.000  O
  O17      1.0000 0.50714  0.64142  0.05954  Biso   1.000  O
  O18      1.0000 0.96856  0.96936  0.85734  Biso   1.000  O
  O19      1.0000 0.84312  0.92742  0.00169  Biso   1.000  O
  O20      1.0000 0.48745  0.13581  0.47247  Biso   1.000  O
  O21      1.0000 0.03478  0.47217  0.67479  Biso   1.000  O
  O22      1.0000 0.34694  0.93886  0.52230  Biso   1.000  O
  O23      1.0000 0.98911  0.13040  0.05084  Biso   1.000  O
  O24      1.0000 0.53141  0.46674  0.85722  Biso   1.000  O
  O25      1.0000 0.94231  0.97850  0.17146  Biso   1.000  O
  O26      1.0000 0.15606  0.94210  0.02462  Biso   1.000  O
  O27      1.0000 0.98026  0.13144  0.96884  Biso   1.000  O
  O28      1.0000 0.43924  0.98091  0.36279  Biso   1.000  O
  O29      1.0000 0.65298  0.92670  0.50448  Biso   1.000  O
  O30      1.0000 0.51339  0.12898  0.55565  Biso   1.000  O
  O31      1.0000 0.54801  0.48583  0.17172  Biso   1.000  O
  O32      1.0000 0.33738  0.44486  0.01697  Biso   1.000  O
  O33      1.0000 0.50047  0.62975  0.97696  Biso   1.000  O
  O34      1.0000 0.04547  0.48156  0.35574  Biso   1.000  O
  O35      1.0000 0.85065  0.42381  0.49815  Biso   1.000  O
  O36      1.0000 0.98886  0.62728  0.55497  Biso   1.000  O
  O37      1.0000 0.05221  0.97556  0.86165  Biso   1.000  O
  O38      1.0000 0.83602  0.00854  0.00468  Biso   1.000  O
  O39      1.0000 0.00804  0.82365  0.05433  Biso   1.000  O
  O40      1.0000 0.55675  0.96769  0.66907  Biso   1.000  O
  O41      1.0000 0.33961  0.02201  0.53464  Biso   1.000  O
  O42      1.0000 0.49697  0.82374  0.47762  Biso   1.000  O
  O43      1.0000 0.44706  0.47266  0.86340  Biso   1.000  O
  O44      1.0000 0.65354  0.50993  0.00533  Biso   1.000  O
  O45      1.0000 0.48364  0.32300  0.05645  Biso   1.000  O
  O46      1.0000 0.95190  0.47313  0.66956  Biso   1.000  O
  O47      1.0000 0.14977  0.52731  0.51956  Biso   1.000  O
  O48      1.0000 0.01139  0.32277  0.46886  Biso   1.000  O
  O49      1.0000 0.98725  0.93638  0.17774  Biso   1.000  O
  O50      1.0000 0.15554  0.98283  0.97934  Biso   1.000  O
  O51      1.0000 0.94231  0.12784  0.01067  Biso   1.000  O
  O52      1.0000 0.47478  0.93718  0.35663  Biso   1.000  O
  O53      1.0000 0.65372  0.96665  0.54811  Biso   1.000  O
  O54      1.0000 0.45869  0.13564  0.52221  Biso   1.000  O
  O55      1.0000 0.50716  0.43944  0.17019  Biso   1.000  O
  O56      1.0000 0.33527  0.49220  0.98255  Biso   1.000  O
  O57      1.0000 0.54341  0.62874  0.01291  Biso   1.000  O
  O58      1.0000 0.00349  0.44037  0.35692  Biso   1.000  O
  O59      1.0000 0.84526  0.46879  0.54371  Biso   1.000  O
  O60      1.0000 0.03164  0.62846  0.51136  Biso   1.000  O
  O61      1.0000 0.00712  0.01466  0.86015  Biso   1.000  O
  O62      1.0000 0.83744  0.96841  0.04694  Biso   1.000  O
  O63      1.0000 0.04998  0.82101  0.01098  Biso   1.000  O
  O64      1.0000 0.51561  0.01178  0.67246  Biso   1.000  O
  O65      1.0000 0.33479  0.98633  0.48713  Biso   1.000  O
  O66      1.0000 0.53412  0.81826  0.51989  Biso   1.000  O
  O67      1.0000 0.49669  0.51295  0.86390  Biso   1.000  O
  O68      1.0000 0.65265  0.47154  0.04891  Biso   1.000  O
  O69      1.0000 0.44808  0.32217  0.00803  Biso   1.000  O
  O70      1.0000 0.99565  0.51095  0.67524  Biso   1.000  O
  O71      1.0000 0.14776  0.48306  0.48180  Biso   1.000  O
  O72      1.0000 0.96264  0.31764  0.50983  Biso   1.000  O
  O73      1.0000 0.99322  0.42869  0.67280  Biso   1.000  O
  O74      1.0000 0.65029  0.96842  0.46281  Biso   1.000  O
  O75      1.0000 0.45923  0.63637  0.02565  Biso   1.000  O
  O76      1.0000 0.48547  0.42950  0.86140  Biso   1.000  O
  O77      1.0000 0.14946  0.98580  0.06582  Biso   1.000  O
  O78      1.0000 0.94906  0.62872  0.51232  Biso   1.000  O
  O79      1.0000 0.51386  0.92818  0.66807  Biso   1.000  O
  O80      1.0000 0.84201  0.46609  0.45943  Biso   1.000  O
  O81      1.0000 0.02828  0.13068  0.00618  Biso   1.000  O
  O82      1.0000 0.01103  0.93104  0.86034  Biso   1.000  O
  O83      1.0000 0.34108  0.48151  0.06442  Biso   1.000  O
  O84      1.0000 0.53788  0.12962  0.50295  Biso   1.000  O
  O85      1.0000 0.00894  0.52413  0.34812  Biso   1.000  O
  O86      1.0000 0.34785  0.97859  0.57188  Biso   1.000  O
  O87      1.0000 0.53121  0.31750  0.02221  Biso   1.000  O
  O88      1.0000 0.50339  0.52367  0.16775  Biso   1.000  O
  O89      1.0000 0.84507  0.96773  0.96101  Biso   1.000  O
  O90      1.0000 0.04787  0.32195  0.51246  Biso   1.000  O
  O91      1.0000 0.48143  0.02146  0.35992  Biso   1.000  O
  O92      1.0000 0.15187  0.48773  0.56675  Biso   1.000  O
  O93      1.0000 0.96435  0.81515  0.01532  Biso   1.000  O
  O94      1.0000 0.98673  0.01908  0.17287  Biso   1.000  O
  O95      1.0000 0.64924  0.46768  0.96571  Biso   1.000  O
  O96      1.0000 0.45206  0.82003  0.50894  Biso   1.000  O
  O97      1.0000 0.46108  0.18297  0.53304  Biso   1.000  O
  O98      1.0000 0.51759  0.44060  0.21790  Biso   1.000  O
  O99      1.0000 0.19625  0.48326  0.48122  Biso   1.000  O
  O100     1.0000 0.94169  0.17578  0.01146  Biso   1.000  O
  O101     1.0000 0.00504  0.43975  0.30834  Biso   1.000  O
  O102     1.0000 0.70041  0.46490  0.04464  Biso   1.000  O
  O103     1.0000 0.02840  0.67818  0.50725  Biso   1.000  O
  O104     1.0000 0.98183  0.93456  0.22566  Biso   1.000  O
  O105     1.0000 0.28684  0.98327  0.49277  Biso   1.000  O
  O106     1.0000 0.54662  0.67739  0.00969  Biso   1.000  O
  O107     1.0000 0.47827  0.93856  0.30723  Biso   1.000  O
  O108     1.0000 0.78760  0.96489  0.04343  Biso   1.000  O
  O109     1.0000 0.53195  0.76953  0.52000  Biso   1.000  O
  O110     1.0000 0.49407  0.50926  0.81549  Biso   1.000  O
  O111     1.0000 0.79613  0.46755  0.54283  Biso   1.000  O
  O112     1.0000 0.04861  0.77242  0.01314  Biso   1.000  O
  O113     1.0000 0.99142  0.51342  0.72298  Biso   1.000  O
  O114     1.0000 0.28732  0.49273  0.98454  Biso   1.000  O
  O115     1.0000 0.96519  0.27002  0.52083  Biso   1.000  O
  O116     1.0000 0.01442  0.01340  0.81154  Biso   1.000  O
  O117     1.0000 0.70322  0.97354  0.54063  Biso   1.000  O
  O118     1.0000 0.44212  0.27488  0.01502  Biso   1.000  O
  O119     1.0000 0.52147  0.01054  0.71981  Biso   1.000  O
  O120     1.0000 0.20515  0.98737  0.98354  Biso   1.000  O
  O121     1.0000 0.02977  0.46850  0.72332  Biso   1.000  O
  O122     1.0000 0.69640  0.01025  0.49339  Biso   1.000  O
  O123     1.0000 0.50881  0.69012  0.05746  Biso   1.000  O
  O124     1.0000 0.52650  0.45745  0.80989  Biso   1.000  O
  O125     1.0000 0.19859  0.03096  0.02789  Biso   1.000  O
  O126     1.0000 0.98221  0.67473  0.47151  Biso   1.000  O
  O127     1.0000 0.47529  0.97149  0.72003  Biso   1.000  O
  O128     1.0000 0.79064  0.50569  0.49687  Biso   1.000  O
  O129     1.0000 0.98463  0.17802  0.05243  Biso   1.000  O
  O130     1.0000 0.97158  0.96916  0.80988  Biso   1.000  O
  O131     1.0000 0.29312  0.52904  0.03197  Biso   1.000  O
  O132     1.0000 0.48783  0.18340  0.47501  Biso   1.000  O
  O133     1.0000 0.96445  0.48432  0.30138  Biso   1.000  O
  O134     1.0000 0.29921  0.94167  0.52789  Biso   1.000  O
  O135     1.0000 0.49119  0.27111  0.97342  Biso   1.000  O
  O136     1.0000 0.46753  0.47676  0.21744  Biso   1.000  O
  O137     1.0000 0.79550  0.92405  0.99942  Biso   1.000  O
  O138     1.0000 0.01175  0.27128  0.55479  Biso   1.000  O
  O139     1.0000 0.52040  0.97700  0.31146  Biso   1.000  O
  O140     1.0000 0.20064  0.44153  0.52516  Biso   1.000  O
  O141     1.0000 0.01133  0.76755  0.97299  Biso   1.000  O
  O142     1.0000 0.02150  0.97968  0.22789  Biso   1.000  O
  O143     1.0000 0.69871  0.42202  0.00680  Biso   1.000  O
  O144     1.0000 0.48095  0.76909  0.55641  Biso   1.000  O
  O145     1.0000 0.54795  0.49205  0.21909  Biso   1.000  O
  O146     1.0000 0.19886  0.52568  0.51920  Biso   1.000  O
  O147     1.0000 0.51351  0.17772  0.55688  Biso   1.000  O
  O148     1.0000 0.04841  0.47938  0.30669  Biso   1.000  O
  O149     1.0000 0.70280  0.50657  0.00151  Biso   1.000  O
  O150     1.0000 0.98198  0.18112  0.96803  Biso   1.000  O
  O151     1.0000 0.93720  0.97860  0.22161  Biso   1.000  O
  O152     1.0000 0.29274  0.02101  0.53823  Biso   1.000  O
  O153     1.0000 0.99400  0.67658  0.55502  Biso   1.000  O
  O154     1.0000 0.43730  0.97952  0.31506  Biso   1.000  O
  O155     1.0000 0.78707  0.00670  0.99931  Biso   1.000  O
  O156     1.0000 0.50268  0.67821  0.97441  Biso   1.000  O
  O157     1.0000 0.44264  0.47861  0.81515  Biso   1.000  O
  O158     1.0000 0.80199  0.42394  0.50326  Biso   1.000  O
  O159     1.0000 0.49973  0.77622  0.47224  Biso   1.000  O
  O160     1.0000 0.94727  0.47111  0.71812  Biso   1.000  O
  O161     1.0000 0.28970  0.44733  0.02602  Biso   1.000  O
  O162     1.0000 0.00928  0.77506  0.05616  Biso   1.000  O
  O163     1.0000 0.05334  0.97300  0.81276  Biso   1.000  O
  O164     1.0000 0.70208  0.93006  0.50177  Biso   1.000  O
  O165     1.0000 0.00072  0.27609  0.47121  Biso   1.000  O
  O166     1.0000 0.55909  0.96506  0.71746  Biso   1.000  O
  O167     1.0000 0.20343  0.94757  0.03094  Biso   1.000  O
  O168     1.0000 0.47659  0.27537  0.05834  Biso   1.000  O
  O169     1.0000 0.98077  0.01953  0.22222  Biso   1.000  O
  O170     1.0000 0.19818  0.98475  0.06962  Biso   1.000  O
  O171     1.0000 0.02419  0.17835  0.00833  Biso   1.000  O
  O172     1.0000 0.48112  0.02212  0.31131  Biso   1.000  O
  O173     1.0000 0.69791  0.96763  0.45526  Biso   1.000  O
  O174     1.0000 0.53992  0.17804  0.50461  Biso   1.000  O
  O175     1.0000 0.50069  0.52320  0.21648  Biso   1.000  O
  O176     1.0000 0.29324  0.48792  0.07033  Biso   1.000  O
  O177     1.0000 0.46358  0.68483  0.01999  Biso   1.000  O
  O178     1.0000 0.01538  0.52321  0.29884  Biso   1.000  O
  O179     1.0000 0.79310  0.46030  0.46019  Biso   1.000  O
  O180     1.0000 0.94559  0.67625  0.51606  Biso   1.000  O
  O181     1.0000 0.01735  0.92964  0.81320  Biso   1.000  O
  O182     1.0000 0.79704  0.96486  0.96030  Biso   1.000  O
  O183     1.0000 0.96271  0.76649  0.01673  Biso   1.000  O
  O184     1.0000 0.51389  0.92803  0.71653  Biso   1.000  O
  O185     1.0000 0.29739  0.97809  0.57698  Biso   1.000  O
  O186     1.0000 0.44736  0.77211  0.50818  Biso   1.000  O
  O187     1.0000 0.47733  0.42898  0.81406  Biso   1.000  O
  O188     1.0000 0.69727  0.46697  0.96222  Biso   1.000  O
  O189     1.0000 0.52344  0.27025  0.02116  Biso   1.000  O
  O190     1.0000 0.98760  0.42642  0.72176  Biso   1.000  O
  O191     1.0000 0.20071  0.48476  0.56508  Biso   1.000  O
  O192     1.0000 0.04911  0.27332  0.50836  Biso   1.000  O
