data_image0
_cell_length_a       47.4317
_cell_length_b       46.5671
_cell_length_c       46.5645
_cell_angle_alpha    90
_cell_angle_beta     90
_cell_angle_gamma    90

_symmetry_space_group_name_H-M    "P 1"
_symmetry_int_tables_number       1

loop_
  _symmetry_equiv_pos_as_xyz
  'x, y, z'

loop_
  _atom_site_label
  _atom_site_occupancy
  _atom_site_fract_x
  _atom_site_fract_y
  _atom_site_fract_z
  _atom_site_thermal_displace_type
  _atom_site_B_iso_or_equiv
  _atom_site_type_symbol
  C1       1.0000 0.56204  0.93330  0.33337  Biso   1.000  C
  C2       1.0000 0.31976  0.50745  0.99327  Biso   1.000  C
  C3       1.0000 0.01516  0.28019  0.55644  Biso   1.000  C
  C4       1.0000 0.06316  0.97573  0.18780  Biso   1.000  C
  C5       1.0000 0.81997  0.50290  0.51077  Biso   1.000  C
  C6       1.0000 0.51226  0.28430  0.94393  Biso   1.000  C
  C7       1.0000 0.94596  0.46256  0.32794  Biso   1.000  C
  C8       1.0000 0.19085  0.01216  0.01010  Biso   1.000  C
  C9       1.0000 0.48864  0.77829  0.58019  Biso   1.000  C
  C10      1.0000 0.44700  0.44569  0.18984  Biso   1.000  C
  C11      1.0000 0.69389  0.00491  0.50773  Biso   1.000  C
  C12      1.0000 0.00131  0.77569  0.96588  Biso   1.000  C
  C13      1.0000 0.45466  0.97065  0.68908  Biso   1.000  C
  C14      1.0000 0.69421  0.42113  0.00294  Biso   1.000  C
  C15      1.0000 0.98554  0.64941  0.46271  Biso   1.000  C
  C16      1.0000 0.95468  0.94810  0.83282  Biso   1.000  C
  C17      1.0000 0.19271  0.42401  0.49569  Biso   1.000  C
  C18      1.0000 0.49542  0.64040  0.07456  Biso   1.000  C
  C19      1.0000 0.07142  0.45316  0.68821  Biso   1.000  C
  C20      1.0000 0.82837  0.91663  0.01118  Biso   1.000  C
  C21      1.0000 0.51531  0.14122  0.44004  Biso   1.000  C
  C22      1.0000 0.56579  0.47558  0.82604  Biso   1.000  C
  C23      1.0000 0.32070  0.92061  0.51359  Biso   1.000  C
  C24      1.0000 0.00906  0.15131  0.05417  Biso   1.000  C
  C25      1.0000 0.32835  0.03001  0.50961  Biso   1.000  C
  C26      1.0000 0.51937  0.27632  0.05171  Biso   1.000  C
  C27      1.0000 0.05455  0.47556  0.32503  Biso   1.000  C
  C28      1.0000 0.82970  0.02611  0.01024  Biso   1.000  C
  C29      1.0000 0.02966  0.28862  0.44709  Biso   1.000  C
  C30      1.0000 0.55711  0.45504  0.18940  Biso   1.000  C
  C31      1.0000 0.18061  0.53211  0.50430  Biso   1.000  C
  C32      1.0000 0.01407  0.78992  0.07597  Biso   1.000  C
  C33      1.0000 0.45651  0.96042  0.32504  Biso   1.000  C
  C34      1.0000 0.68640  0.53074  0.01054  Biso   1.000  C
  C35      1.0000 0.49351  0.77510  0.47032  Biso   1.000  C
  C36      1.0000 0.95147  0.96723  0.19194  Biso   1.000  C
  C37      1.0000 0.68309  0.89446  0.51563  Biso   1.000  C
  C38      1.0000 0.50474  0.64058  0.96631  Biso   1.000  C
  C39      1.0000 0.96266  0.45317  0.69104  Biso   1.000  C
  C40      1.0000 0.18876  0.90314  0.01112  Biso   1.000  C
  C41      1.0000 0.98832  0.64101  0.57020  Biso   1.000  C
  C42      1.0000 0.45956  0.46578  0.82617  Biso   1.000  C
  C43      1.0000 0.83412  0.39342  0.51423  Biso   1.000  C
  C44      1.0000 0.02112  0.13956  0.94734  Biso   1.000  C
  C45      1.0000 0.56325  0.96584  0.69040  Biso   1.000  C
  C46      1.0000 0.33234  0.40364  0.01120  Biso   1.000  C
  C47      1.0000 0.51565  0.14123  0.54907  Biso   1.000  C
  C48      1.0000 0.06332  0.94555  0.83058  Biso   1.000  C
  C49      1.0000 0.01022  0.00262  0.82898  Biso   1.000  C
  C50      1.0000 0.82797  0.97053  0.06231  Biso   1.000  C
  C51      1.0000 0.05969  0.77616  0.01509  Biso   1.000  C
  C52      1.0000 0.51413  0.02137  0.68051  Biso   1.000  C
  C53      1.0000 0.32744  0.97371  0.45869  Biso   1.000  C
  C54      1.0000 0.54622  0.77563  0.52514  Biso   1.000  C
  C55      1.0000 0.50593  0.52326  0.83001  Biso   1.000  C
  C56      1.0000 0.68723  0.47179  0.06285  Biso   1.000  C
  C57      1.0000 0.46301  0.27967  0.00238  Biso   1.000  C
  C58      1.0000 0.01691  0.50794  0.68918  Biso   1.000  C
  C59      1.0000 0.18590  0.48336  0.44520  Biso   1.000  C
  C60      1.0000 0.96887  0.28058  0.49344  Biso   1.000  C
  C61      1.0000 0.01216  0.91901  0.20117  Biso   1.000  C
  C62      1.0000 0.18899  0.95211  0.95642  Biso   1.000  C
  C63      1.0000 0.96118  0.15076  0.99234  Biso   1.000  C
  C64      1.0000 0.49711  0.89527  0.33557  Biso   1.000  C
  C65      1.0000 0.69229  0.95468  0.56505  Biso   1.000  C
  C66      1.0000 0.46184  0.14605  0.49750  Biso   1.000  C
  C67      1.0000 0.50258  0.39621  0.18849  Biso   1.000  C
  C68      1.0000 0.32770  0.44812  0.94832  Biso   1.000  C
  C69      1.0000 0.55300  0.64639  0.01949  Biso   1.000  C
  C70      1.0000 0.00455  0.41674  0.32642  Biso   1.000  C
  C71      1.0000 0.83144  0.45399  0.56896  Biso   1.000  C
  C72      1.0000 0.04233  0.64419  0.51572  Biso   1.000  C
  C73      1.0000 0.99346  0.52485  0.33033  Biso   1.000  C
  C74      1.0000 0.32516  0.97489  0.56465  Biso   1.000  C
  C75      1.0000 0.57225  0.28469  0.99550  Biso   1.000  C
  C76      1.0000 0.49700  0.50558  0.19287  Biso   1.000  C
  C77      1.0000 0.82754  0.96509  0.95557  Biso   1.000  C
  C78      1.0000 0.07511  0.28778  0.50913  Biso   1.000  C
  C79      1.0000 0.52207  0.00219  0.32810  Biso   1.000  C
  C80      1.0000 0.19140  0.47317  0.55815  Biso   1.000  C
  C81      1.0000 0.95023  0.78752  0.02824  Biso   1.000  C
  C82      1.0000 0.00503  0.02875  0.18635  Biso   1.000  C
  C83      1.0000 0.68986  0.47881  0.95245  Biso   1.000  C
  C84      1.0000 0.43677  0.78365  0.52679  Biso   1.000  C
  C85      1.0000 0.01405  0.39703  0.69062  Biso   1.000  C
  C86      1.0000 0.68701  0.95034  0.45592  Biso   1.000  C
  C87      1.0000 0.44445  0.63494  0.01945  Biso   1.000  C
  C88      1.0000 0.51775  0.41431  0.82614  Biso   1.000  C
  C89      1.0000 0.19192  0.96186  0.06530  Biso   1.000  C
  C90      1.0000 0.93452  0.63859  0.52008  Biso   1.000  C
  C91      1.0000 0.50567  0.91493  0.69851  Biso   1.000  C
  C92      1.0000 0.82258  0.44504  0.45891  Biso   1.000  C
  C93      1.0000 0.07015  0.14381  0.00958  Biso   1.000  C
  C94      1.0000 0.00425  0.89386  0.83321  Biso   1.000  C
  C95      1.0000 0.32732  0.46803  0.05670  Biso   1.000  C
  C96      1.0000 0.57039  0.13906  0.49553  Biso   1.000  C
  C97      1.0000 0.69439  0.03683  0.50246  Biso   1.000  C
  C98      1.0000 0.49246  0.63864  0.10666  Biso   1.000  C
  C99      1.0000 0.10446  0.45272  0.68764  Biso   1.000  C
  C100     1.0000 0.19123  0.04417  0.00974  Biso   1.000  C
  C101     1.0000 0.98537  0.65031  0.43138  Biso   1.000  C
  C102     1.0000 0.59771  0.47779  0.82373  Biso   1.000  C
  C103     1.0000 0.81464  0.53410  0.51077  Biso   1.000  C
  C104     1.0000 0.00522  0.15197  0.08650  Biso   1.000  C
  C105     1.0000 0.42227  0.96964  0.69036  Biso   1.000  C
  C106     1.0000 0.32002  0.53961  0.99258  Biso   1.000  C
  C107     1.0000 0.52065  0.14002  0.40851  Biso   1.000  C
  C108     1.0000 0.92302  0.93881  0.83411  Biso   1.000  C
  C109     1.0000 0.31906  0.88881  0.51432  Biso   1.000  C
  C110     1.0000 0.50980  0.28481  0.91183  Biso   1.000  C
  C111     1.0000 0.91327  0.46060  0.32826  Biso   1.000  C
  C112     1.0000 0.82631  0.88445  0.01798  Biso   1.000  C
  C113     1.0000 0.01551  0.27641  0.58878  Biso   1.000  C
  C114     1.0000 0.41427  0.44455  0.18877  Biso   1.000  C
  C115     1.0000 0.19794  0.39255  0.49930  Biso   1.000  C
  C116     1.0000 0.99504  0.77468  0.93564  Biso   1.000  C
  C117     1.0000 0.59312  0.93390  0.33231  Biso   1.000  C
  C118     1.0000 0.69470  0.38738  0.00006  Biso   1.000  C
  C119     1.0000 0.48551  0.77923  0.61196  Biso   1.000  C
  C120     1.0000 0.09617  0.97601  0.18790  Biso   1.000  C
  C121     1.0000 0.82811  0.96925  0.09527  Biso   1.000  C
  C122     1.0000 0.09096  0.77574  0.01495  Biso   1.000  C
  C123     1.0000 0.00661  0.03545  0.82913  Biso   1.000  C
  C124     1.0000 0.33005  0.97437  0.42568  Biso   1.000  C
  C125     1.0000 0.57887  0.77514  0.52330  Biso   1.000  C
  C126     1.0000 0.51171  0.05301  0.67714  Biso   1.000  C
  C127     1.0000 0.68771  0.47172  0.09425  Biso   1.000  C
  C128     1.0000 0.43080  0.27801  0.00498  Biso   1.000  C
  C129     1.0000 0.50600  0.55461  0.83229  Biso   1.000  C
  C130     1.0000 0.18483  0.49165  0.41414  Biso   1.000  C
  C131     1.0000 0.93723  0.27791  0.49099  Biso   1.000  C
  C132     1.0000 0.00984  0.53908  0.69079  Biso   1.000  C
  C133     1.0000 0.18872  0.94296  0.92512  Biso   1.000  C
  C134     1.0000 0.92870  0.15140  0.98444  Biso   1.000  C
  C135     1.0000 0.01885  0.88731  0.20305  Biso   1.000  C
  C136     1.0000 0.69373  0.95869  0.59775  Biso   1.000  C
  C137     1.0000 0.42963  0.14846  0.50085  Biso   1.000  C
  C138     1.0000 0.49824  0.86288  0.33672  Biso   1.000  C
  C139     1.0000 0.33083  0.45258  0.91695  Biso   1.000  C
  C140     1.0000 0.58453  0.65136  0.01398  Biso   1.000  C
  C141     1.0000 0.50516  0.36435  0.18503  Biso   1.000  C
  C142     1.0000 0.83366  0.45561  0.60132  Biso   1.000  C
  C143     1.0000 0.07599  0.64639  0.51913  Biso   1.000  C
  C144     1.0000 0.01131  0.38533  0.32570  Biso   1.000  C
  C145     1.0000 0.32692  0.47342  0.08870  Biso   1.000  C
  C146     1.0000 0.10792  0.29188  0.50623  Biso   1.000  C
  C147     1.0000 0.52606  0.03312  0.32575  Biso   1.000  C
  C148     1.0000 0.81988  0.44931  0.42651  Biso   1.000  C
  C149     1.0000 0.60361  0.28559  0.99340  Biso   1.000  C
  C150     1.0000 0.00929  0.06120  0.18524  Biso   1.000  C
  C151     1.0000 0.19396  0.96183  0.09750  Biso   1.000  C
  C152     1.0000 0.40480  0.78865  0.52718  Biso   1.000  C
  C153     1.0000 0.99430  0.55634  0.33261  Biso   1.000  C
  C154     1.0000 0.68722  0.95240  0.42480  Biso   1.000  C
  C155     1.0000 0.91739  0.78857  0.03244  Biso   1.000  C
  C156     1.0000 0.49371  0.53651  0.19413  Biso   1.000  C
  C157     1.0000 0.68885  0.48468  0.92121  Biso   1.000  C
  C158     1.0000 0.90334  0.63666  0.52097  Biso   1.000  C
  C159     1.0000 0.50228  0.88261  0.69935  Biso   1.000  C
  C160     1.0000 0.19237  0.47421  0.59082  Biso   1.000  C
  C161     1.0000 0.41176  0.63401  0.01849  Biso   1.000  C
  C162     1.0000 0.00106  0.86235  0.83505  Biso   1.000  C
  C163     1.0000 0.82735  0.95926  0.92375  Biso   1.000  C
  C164     1.0000 0.60286  0.13695  0.49761  Biso   1.000  C
  C165     1.0000 0.01304  0.36450  0.68975  Biso   1.000  C
  C166     1.0000 0.32463  0.97119  0.59710  Biso   1.000  C
  C167     1.0000 0.10173  0.14427  0.01429  Biso   1.000  C
  C168     1.0000 0.51612  0.38217  0.82294  Biso   1.000  C
  C169     1.0000 0.01705  0.79260  0.10837  Biso   1.000  C
  C170     1.0000 0.09455  0.94456  0.83020  Biso   1.000  C
  C171     1.0000 0.83184  0.05843  0.00947  Biso   1.000  C
  C172     1.0000 0.49297  0.77327  0.43870  Biso   1.000  C
  C173     1.0000 0.59550  0.96627  0.69169  Biso   1.000  C
  C174     1.0000 0.32997  0.06055  0.50905  Biso   1.000  C
  C175     1.0000 0.51763  0.27536  0.08339  Biso   1.000  C
  C176     1.0000 0.42757  0.46550  0.82470  Biso   1.000  C
  C177     1.0000 0.68332  0.56241  0.01329  Biso   1.000  C
  C178     1.0000 0.03202  0.29034  0.41528  Biso   1.000  C
  C179     1.0000 0.93053  0.45461  0.69189  Biso   1.000  C
  C180     1.0000 0.17785  0.56504  0.50165  Biso   1.000  C
  C181     1.0000 0.02736  0.13629  0.91598  Biso   1.000  C
  C182     1.0000 0.92011  0.96609  0.19003  Biso   1.000  C
  C183     1.0000 0.18797  0.87038  0.01054  Biso   1.000  C
  C184     1.0000 0.51789  0.14524  0.58293  Biso   1.000  C
  C185     1.0000 0.42485  0.96752  0.32414  Biso   1.000  C
  C186     1.0000 0.68043  0.86292  0.51569  Biso   1.000  C
  C187     1.0000 0.50480  0.64207  0.93458  Biso   1.000  C
  C188     1.0000 0.58992  0.46145  0.18921  Biso   1.000  C
  C189     1.0000 0.33468  0.37064  0.00953  Biso   1.000  C
  C190     1.0000 0.98881  0.63725  0.60176  Biso   1.000  C
  C191     1.0000 0.08763  0.47525  0.32331  Biso   1.000  C
  C192     1.0000 0.83578  0.36155  0.50844  Biso   1.000  C
  C193     1.0000 0.85404  0.95522  0.90874  Biso   1.000  C
  C194     1.0000 0.90225  0.81496  0.02799  Biso   1.000  C
  C195     1.0000 0.99847  0.84844  0.86281  Biso   1.000  C
  C196     1.0000 0.35224  0.97374  0.61138  Biso   1.000  C
  C197     1.0000 0.39216  0.81703  0.52668  Biso   1.000  C
  C198     1.0000 0.49839  0.86581  0.67207  Biso   1.000  C
  C199     1.0000 0.66117  0.48477  0.90646  Biso   1.000  C
  C200     1.0000 0.61861  0.31506  0.99455  Biso   1.000  C
  C201     1.0000 0.51489  0.36286  0.84796  Biso   1.000  C
  C202     1.0000 0.16752  0.46617  0.60829  Biso   1.000  C
  C203     1.0000 0.12272  0.32049  0.50304  Biso   1.000  C
  C204     1.0000 0.01460  0.35065  0.66048  Biso   1.000  C
  C205     1.0000 0.16559  0.96070  0.11311  Biso   1.000  C
  C206     1.0000 0.11458  0.11606  0.01529  Biso   1.000  C
  C207     1.0000 0.00927  0.07491  0.15654  Biso   1.000  C
  C208     1.0000 0.66027  0.94946  0.40975  Biso   1.000  C
  C209     1.0000 0.61671  0.10804  0.50061  Biso   1.000  C
  C210     1.0000 0.52217  0.05146  0.35055  Biso   1.000  C
  C211     1.0000 0.35210  0.46711  0.10429  Biso   1.000  C
  C212     1.0000 0.39715  0.60566  0.01145  Biso   1.000  C
  C213     1.0000 0.49059  0.55651  0.16859  Biso   1.000  C
  C214     1.0000 0.84637  0.45284  0.40989  Biso   1.000  C
  C215     1.0000 0.88846  0.60904  0.52039  Biso   1.000  C
  C216     1.0000 0.98951  0.57035  0.36055  Biso   1.000  C
  C217     1.0000 0.10980  0.93984  0.85695  Biso   1.000  C
  C218     1.0000 0.86037  0.07337  0.00284  Biso   1.000  C
  C219     1.0000 0.01686  0.82008  0.12480  Biso   1.000  C
  C220     1.0000 0.61444  0.96860  0.66555  Biso   1.000  C
  C221     1.0000 0.35919  0.07433  0.50531  Biso   1.000  C
  C222     1.0000 0.49719  0.79955  0.42115  Biso   1.000  C
  C223     1.0000 0.41056  0.46410  0.85105  Biso   1.000  C
  C224     1.0000 0.65651  0.57682  0.01030  Biso   1.000  C
  C225     1.0000 0.51442  0.30124  0.10017  Biso   1.000  C
  C226     1.0000 0.91261  0.45659  0.66610  Biso   1.000  C
  C227     1.0000 0.14873  0.57798  0.50578  Biso   1.000  C
  C228     1.0000 0.02598  0.31689  0.40039  Biso   1.000  C
  C229     1.0000 0.90622  0.96666  0.16290  Biso   1.000  C
  C230     1.0000 0.16022  0.85355  0.01324  Biso   1.000  C
  C231     1.0000 0.02374  0.10768  0.90181  Biso   1.000  C
  C232     1.0000 0.41022  0.97128  0.35147  Biso   1.000  C
  C233     1.0000 0.65151  0.84903  0.51697  Biso   1.000  C
  C234     1.0000 0.51981  0.11930  0.59989  Biso   1.000  C
  C235     1.0000 0.60756  0.46405  0.16231  Biso   1.000  C
  C236     1.0000 0.36364  0.35560  0.01134  Biso   1.000  C
  C237     1.0000 0.50562  0.61596  0.91644  Biso   1.000  C
  C238     1.0000 0.10358  0.48074  0.34915  Biso   1.000  C
  C239     1.0000 0.86382  0.34769  0.50442  Biso   1.000  C
  C240     1.0000 0.99445  0.60952  0.61640  Biso   1.000  C
  C241     1.0000 0.61301  0.47938  0.85076  Biso   1.000  C
  C242     1.0000 0.84044  0.55281  0.51255  Biso   1.000  C
  C243     1.0000 0.48528  0.80889  0.62597  Biso   1.000  C
  C244     1.0000 0.11877  0.45415  0.65999  Biso   1.000  C
  C245     1.0000 0.34595  0.55576  0.99971  Biso   1.000  C
  C246     1.0000 0.99648  0.80046  0.91921  Biso   1.000  C
  C247     1.0000 0.90626  0.94177  0.86134  Biso   1.000  C
  C248     1.0000 0.66830  0.05431  0.50402  Biso   1.000  C
  C249     1.0000 0.01437  0.30182  0.60612  Biso   1.000  C
  C250     1.0000 0.40666  0.97029  0.66326  Biso   1.000  C
  C251     1.0000 0.16447  0.05999  0.01207  Biso   1.000  C
  C252     1.0000 0.51173  0.31160  0.89617  Biso   1.000  C
  C253     1.0000 0.40022  0.45239  0.16161  Biso   1.000  C
  C254     1.0000 0.17122  0.37461  0.50294  Biso   1.000  C
  C255     1.0000 0.51883  0.10995  0.39633  Biso   1.000  C
  C256     1.0000 0.89839  0.45816  0.35553  Biso   1.000  C
  C257     1.0000 0.66849  0.37066  0.99666  Biso   1.000  C
  C258     1.0000 0.00566  0.12513  0.10405  Biso   1.000  C
  C259     1.0000 0.11323  0.96962  0.16176  Biso   1.000  C
  C260     1.0000 0.34448  0.87277  0.52075  Biso   1.000  C
  C261     1.0000 0.98608  0.62437  0.41583  Biso   1.000  C
  C262     1.0000 0.60923  0.93775  0.35991  Biso   1.000  C
  C263     1.0000 0.85265  0.86700  0.01698  Biso   1.000  C
  C264     1.0000 0.49377  0.61153  0.12068  Biso   1.000  C
  C265     1.0000 0.01613  0.05270  0.85348  Biso   1.000  C
  C266     1.0000 0.85566  0.96895  0.11121  Biso   1.000  C
  C267     1.0000 0.10755  0.80262  0.01555  Biso   1.000  C
  C268     1.0000 0.51380  0.06829  0.64983  Biso   1.000  C
  C269     1.0000 0.35698  0.97385  0.40719  Biso   1.000  C
  C270     1.0000 0.59647  0.80132  0.51940  Biso   1.000  C
  C271     1.0000 0.50256  0.56747  0.86025  Biso   1.000  C
  C272     1.0000 0.66094  0.47030  0.11064  Biso   1.000  C
  C273     1.0000 0.41518  0.30420  0.00786  Biso   1.000  C
  C274     1.0000 0.00565  0.55700  0.66503  Biso   1.000  C
  C275     1.0000 0.15633  0.49170  0.40034  Biso   1.000  C
  C276     1.0000 0.91852  0.30364  0.49267  Biso   1.000  C
  C277     1.0000 0.02062  0.87068  0.17579  Biso   1.000  C
  C278     1.0000 0.16028  0.94145  0.90894  Biso   1.000  C
  C279     1.0000 0.91269  0.12459  0.99118  Biso   1.000  C
  C280     1.0000 0.49905  0.84763  0.36537  Biso   1.000  C
  C281     1.0000 0.66589  0.96147  0.61507  Biso   1.000  C
  C282     1.0000 0.41158  0.12257  0.50568  Biso   1.000  C
  C283     1.0000 0.50427  0.34969  0.15677  Biso   1.000  C
  C284     1.0000 0.35825  0.45471  0.90263  Biso   1.000  C
  C285     1.0000 0.60156  0.62644  0.00813  Biso   1.000  C
  C286     1.0000 0.01545  0.36980  0.35238  Biso   1.000  C
  C287     1.0000 0.86095  0.45459  0.61683  Biso   1.000  C
  C288     1.0000 0.09387  0.62136  0.51754  Biso   1.000  C
  C289     1.0000 0.34073  0.84076  0.52173  Biso   1.000  C
  C290     1.0000 0.51076  0.31102  0.86512  Biso   1.000  C
  C291     1.0000 0.86708  0.45769  0.35475  Biso   1.000  C
  C292     1.0000 0.85057  0.83775  0.02767  Biso   1.000  C
  C293     1.0000 0.01175  0.29798  0.63727  Biso   1.000  C
  C294     1.0000 0.36888  0.45998  0.16016  Biso   1.000  C
  C295     1.0000 0.17406  0.34307  0.50025  Biso   1.000  C
  C296     1.0000 0.99443  0.79787  0.88754  Biso   1.000  C
  C297     1.0000 0.64039  0.94015  0.35700  Biso   1.000  C
  C298     1.0000 0.67233  0.33971  0.99490  Biso   1.000  C
  C299     1.0000 0.48875  0.81015  0.65707  Biso   1.000  C
  C300     1.0000 0.14481  0.96818  0.16475  Biso   1.000  C
  C301     1.0000 0.67105  0.08623  0.50237  Biso   1.000  C
  C302     1.0000 0.48987  0.60953  0.15221  Biso   1.000  C
  C303     1.0000 0.14976  0.45899  0.66125  Biso   1.000  C
  C304     1.0000 0.16618  0.09212  0.00914  Biso   1.000  C
  C305     1.0000 0.98694  0.62409  0.38443  Biso   1.000  C
  C306     1.0000 0.64421  0.48171  0.85042  Biso   1.000  C
  C307     1.0000 0.83801  0.58404  0.51486  Biso   1.000  C
  C308     1.0000 0.01021  0.12757  0.13447  Biso   1.000  C
  C309     1.0000 0.37401  0.97017  0.66252  Biso   1.000  C
  C310     1.0000 0.34513  0.58747  0.99916  Biso   1.000  C
  C311     1.0000 0.52049  0.10712  0.36536  Biso   1.000  C
  C312     1.0000 0.87576  0.94529  0.85848  Biso   1.000  C
  C313     1.0000 0.15652  0.49039  0.36760  Biso   1.000  C
  C314     1.0000 0.38120  0.12466  0.50675  Biso   1.000  C
  C315     1.0000 0.50527  0.31727  0.15290  Biso   1.000  C
  C316     1.0000 0.65981  0.47495  0.14264  Biso   1.000  C
  C317     1.0000 0.88160  0.12687  0.99185  Biso   1.000  C
  C318     1.0000 0.01797  0.33744  0.35036  Biso   1.000  C
  C319     1.0000 0.35536  0.97444  0.37547  Biso   1.000  C
  C320     1.0000 0.12445  0.62738  0.51589  Biso   1.000  C
  C321     1.0000 0.01888  0.83983  0.17739  Biso   1.000  C
  C322     1.0000 0.85295  0.96696  0.14204  Biso   1.000  C
  C323     1.0000 0.63222  0.62824  0.01298  Biso   1.000  C
  C324     1.0000 0.49820  0.81717  0.36681  Biso   1.000  C
  C325     1.0000 0.86057  0.45672  0.64777  Biso   1.000  C
  C326     1.0000 0.62710  0.79878  0.51966  Biso   1.000  C
  C327     1.0000 0.50047  0.59871  0.86288  Biso   1.000  C
  C328     1.0000 0.35845  0.45658  0.87043  Biso   1.000  C
  C329     1.0000 0.13906  0.79995  0.01422  Biso   1.000  C
  C330     1.0000 0.00386  0.58854  0.66875  Biso   1.000  C
  C331     1.0000 0.66759  0.96189  0.64596  Biso   1.000  C
  C332     1.0000 0.88794  0.29916  0.49360  Biso   1.000  C
  C333     1.0000 0.01584  0.08385  0.85048  Biso   1.000  C
  C334     1.0000 0.16199  0.94363  0.87797  Biso   1.000  C
  C335     1.0000 0.38429  0.30245  0.00545  Biso   1.000  C
  C336     1.0000 0.51366  0.09977  0.65060  Biso   1.000  C
  C337     1.0000 0.66296  0.48497  0.87402  Biso   1.000  C
  C338     1.0000 0.85731  0.60693  0.51659  Biso   1.000  C
  C339     1.0000 0.49386  0.83433  0.67471  Biso   1.000  C
  C340     1.0000 0.16905  0.46392  0.63912  Biso   1.000  C
  C341     1.0000 0.36659  0.60801  0.00384  Biso   1.000  C
  C342     1.0000 0.99736  0.81813  0.86437  Biso   1.000  C
  C343     1.0000 0.85348  0.95032  0.87858  Biso   1.000  C
  C344     1.0000 0.64924  0.10699  0.50093  Biso   1.000  C
  C345     1.0000 0.01191  0.31917  0.65890  Biso   1.000  C
  C346     1.0000 0.35239  0.97020  0.64195  Biso   1.000  C
  C347     1.0000 0.14648  0.11497  0.01101  Biso   1.000  C
  C348     1.0000 0.51431  0.33303  0.84492  Biso   1.000  C
  C349     1.0000 0.35027  0.46731  0.13701  Biso   1.000  C
  C350     1.0000 0.15440  0.32147  0.50103  Biso   1.000  C
  C351     1.0000 0.52088  0.08282  0.34565  Biso   1.000  C
  C352     1.0000 0.84484  0.45564  0.37757  Biso   1.000  C
  C353     1.0000 0.65033  0.31659  0.99208  Biso   1.000  C
  C354     1.0000 0.00977  0.10666  0.15742  Biso   1.000  C
  C355     1.0000 0.16586  0.96442  0.14402  Biso   1.000  C
  C356     1.0000 0.36021  0.81803  0.52526  Biso   1.000  C
  C357     1.0000 0.99004  0.60214  0.36374  Biso   1.000  C
  C358     1.0000 0.66074  0.94488  0.37766  Biso   1.000  C
  C359     1.0000 0.87145  0.81581  0.03202  Biso   1.000  C
  C360     1.0000 0.48905  0.58673  0.17251  Biso   1.000  C
  C361     1.0000 0.01951  0.10652  0.87081  Biso   1.000  C
  C362     1.0000 0.87441  0.96577  0.16364  Biso   1.000  C
  C363     1.0000 0.16059  0.82221  0.01276  Biso   1.000  C
  C364     1.0000 0.51738  0.12214  0.63062  Biso   1.000  C
  C365     1.0000 0.37766  0.97400  0.35306  Biso   1.000  C
  C366     1.0000 0.65042  0.81809  0.51886  Biso   1.000  C
  C367     1.0000 0.50216  0.61821  0.88548  Biso   1.000  C
  C368     1.0000 0.63780  0.46951  0.16407  Biso   1.000  C
  C369     1.0000 0.36127  0.32394  0.00792  Biso   1.000  C
  C370     1.0000 0.99742  0.61027  0.64836  Biso   1.000  C
  C371     1.0000 0.13460  0.48635  0.34729  Biso   1.000  C
  C372     1.0000 0.86510  0.31808  0.49942  Biso   1.000  C
  C373     1.0000 0.01841  0.81749  0.15635  Biso   1.000  C
  C374     1.0000 0.14130  0.94268  0.85590  Biso   1.000  C
  C375     1.0000 0.85980  0.10516  0.99599  Biso   1.000  C
  C376     1.0000 0.49654  0.79684  0.38996  Biso   1.000  C
  C377     1.0000 0.64616  0.96571  0.66812  Biso   1.000  C
  C378     1.0000 0.35851  0.10507  0.50652  Biso   1.000  C
  C379     1.0000 0.50837  0.29713  0.13001  Biso   1.000  C
  C380     1.0000 0.37978  0.46112  0.84867  Biso   1.000  C
  C381     1.0000 0.65521  0.60846  0.01196  Biso   1.000  C
  C382     1.0000 0.02287  0.31620  0.37014  Biso   1.000  C
  C383     1.0000 0.88227  0.45640  0.66898  Biso   1.000  C
  C384     1.0000 0.14690  0.60886  0.51026  Biso   1.000  C
  C385     1.0000 0.19415  0.10728  0.00414  Biso   1.000  C
  C386     1.0000 0.01055  0.15555  0.14943  Biso   1.000  C
  C387     1.0000 0.15962  0.97311  0.19154  Biso   1.000  C
  C388     1.0000 0.69839  0.10140  0.50119  Biso   1.000  C
  C389     1.0000 0.52394  0.13315  0.34725  Biso   1.000  C
  C390     1.0000 0.65613  0.93821  0.32988  Biso   1.000  C
  C391     1.0000 0.31882  0.60325  0.99488  Biso   1.000  C
  C392     1.0000 0.48804  0.63441  0.16958  Biso   1.000  C
  C393     1.0000 0.35321  0.46359  0.18597  Biso   1.000  C
  C394     1.0000 0.81068  0.59683  0.51174  Biso   1.000  C
  C395     1.0000 0.98856  0.65157  0.36903  Biso   1.000  C
  C396     1.0000 0.85086  0.46038  0.32898  Biso   1.000  C
  C397     1.0000 0.82302  0.82429  0.03757  Biso   1.000  C
  C398     1.0000 0.99263  0.77005  0.87164  Biso   1.000  C
  C399     1.0000 0.86178  0.94071  0.83172  Biso   1.000  C
  C400     1.0000 0.31293  0.82601  0.51592  Biso   1.000  C
  C401     1.0000 0.48517  0.78573  0.67492  Biso   1.000  C
  C402     1.0000 0.35956  0.97147  0.69133  Biso   1.000  C
  C403     1.0000 0.69961  0.32439  0.99129  Biso   1.000  C
  C404     1.0000 0.50759  0.28452  0.84882  Biso   1.000  C
  C405     1.0000 0.66047  0.48101  0.82509  Biso   1.000  C
  C406     1.0000 0.20239  0.33038  0.49765  Biso   1.000  C
  C407     1.0000 0.00906  0.27080  0.65208  Biso   1.000  C
  C408     1.0000 0.16560  0.46034  0.68781  Biso   1.000  C
  C409     1.0000 0.15751  0.94591  0.82923  Biso   1.000  C
  C410     1.0000 0.83322  0.12122  0.99476  Biso   1.000  C
  C411     1.0000 0.01739  0.79029  0.17324  Biso   1.000  C
  C412     1.0000 0.66033  0.96299  0.69475  Biso   1.000  C
  C413     1.0000 0.33251  0.12168  0.50596  Biso   1.000  C
  C414     1.0000 0.49513  0.76851  0.37639  Biso   1.000  C
  C415     1.0000 0.36318  0.46143  0.82297  Biso   1.000  C
  C416     1.0000 0.68057  0.62405  0.01956  Biso   1.000  C
  C417     1.0000 0.50821  0.26908  0.14415  Biso   1.000  C
  C418     1.0000 0.86706  0.45755  0.69658  Biso   1.000  C
  C419     1.0000 0.17269  0.62681  0.51034  Biso   1.000  C
  C420     1.0000 0.02751  0.29058  0.35261  Biso   1.000  C
  C421     1.0000 0.85805  0.96537  0.19063  Biso   1.000  C
  C422     1.0000 0.18780  0.80716  0.01017  Biso   1.000  C
  C423     1.0000 0.01859  0.13285  0.85345  Biso   1.000  C
  C424     1.0000 0.36242  0.97403  0.32593  Biso   1.000  C
  C425     1.0000 0.67723  0.80010  0.51714  Biso   1.000  C
  C426     1.0000 0.51693  0.14806  0.64661  Biso   1.000  C
  C427     1.0000 0.65421  0.47146  0.19016  Biso   1.000  C
  C428     1.0000 0.33570  0.30628  0.00133  Biso   1.000  C
  C429     1.0000 0.49997  0.64755  0.87146  Biso   1.000  C
  C430     1.0000 0.14917  0.48521  0.31864  Biso   1.000  C
  C431     1.0000 0.83953  0.29985  0.50089  Biso   1.000  C
  C432     1.0000 0.99380  0.63644  0.66556  Biso   1.000  C
  C433     1.0000 0.00756  0.09794  0.82432  Biso   1.000  C
  C434     1.0000 0.82545  0.96559  0.15733  Biso   1.000  C
  C435     1.0000 0.15499  0.77401  0.01058  Biso   1.000  C
  C436     1.0000 0.51271  0.11500  0.67788  Biso   1.000  C
  C437     1.0000 0.32900  0.97293  0.36001  Biso   1.000  C
  C438     1.0000 0.64079  0.77020  0.51913  Biso   1.000  C
  C439     1.0000 0.49909  0.61637  0.83681  Biso   1.000  C
  C440     1.0000 0.68623  0.47614  0.15841  Biso   1.000  C
  C441     1.0000 0.36962  0.27530  0.00118  Biso   1.000  C
  C442     1.0000 0.00319  0.60257  0.69532  Biso   1.000  C
  C443     1.0000 0.18296  0.49188  0.34913  Biso   1.000  C
  C444     1.0000 0.87562  0.26992  0.49432  Biso   1.000  C
  C445     1.0000 0.01714  0.82434  0.20423  Biso   1.000  C
  C446     1.0000 0.18925  0.94618  0.86350  Biso   1.000  C
  C447     1.0000 0.86563  0.15323  0.98609  Biso   1.000  C
  C448     1.0000 0.49561  0.79989  0.34073  Biso   1.000  C
  C449     1.0000 0.69425  0.96140  0.66206  Biso   1.000  C
  C450     1.0000 0.36677  0.15176  0.50531  Biso   1.000  C
  C451     1.0000 0.50513  0.30027  0.17918  Biso   1.000  C
  C452     1.0000 0.33163  0.45984  0.85525  Biso   1.000  C
  C453     1.0000 0.64628  0.65538  0.01960  Biso   1.000  C
  C454     1.0000 0.01837  0.32308  0.32155  Biso   1.000  C
  C455     1.0000 0.83373  0.46031  0.66424  Biso   1.000  C
  C456     1.0000 0.13689  0.65643  0.51809  Biso   1.000  C
  C457     1.0000 0.99353  0.61807  0.33674  Biso   1.000  C
  C458     1.0000 0.32596  0.96820  0.65948  Biso   1.000  C
  C459     1.0000 0.66742  0.28959  0.98699  Biso   1.000  C
  C460     1.0000 0.49080  0.59968  0.20009  Biso   1.000  C
  C461     1.0000 0.82663  0.94696  0.86337  Biso   1.000  C
  C462     1.0000 0.17137  0.29521  0.49969  Biso   1.000  C
  C463     1.0000 0.52491  0.09665  0.31763  Biso   1.000  C
  C464     1.0000 0.19612  0.46908  0.65402  Biso   1.000  C
  C465     1.0000 0.85426  0.78993  0.04069  Biso   1.000  C
  C466     1.0000 0.01318  0.12266  0.18385  Biso   1.000  C
  C467     1.0000 0.69083  0.48438  0.85938  Biso   1.000  C
  C468     1.0000 0.34250  0.79303  0.52209  Biso   1.000  C
  C469     1.0000 0.00776  0.30344  0.68494  Biso   1.000  C
  C470     1.0000 0.68846  0.94438  0.36240  Biso   1.000  C
  C471     1.0000 0.35095  0.63469  0.00301  Biso   1.000  C
  C472     1.0000 0.51599  0.31870  0.81803  Biso   1.000  C
  C473     1.0000 0.19254  0.96472  0.15897  Biso   1.000  C
  C474     1.0000 0.84026  0.63336  0.51483  Biso   1.000  C
  C475     1.0000 0.49082  0.82187  0.70371  Biso   1.000  C
  C476     1.0000 0.81700  0.45705  0.36258  Biso   1.000  C
  C477     1.0000 0.16428  0.14046  0.00960  Biso   1.000  C
  C478     1.0000 0.99516  0.79977  0.83819  Biso   1.000  C
  C479     1.0000 0.32423  0.47342  0.15217  Biso   1.000  C
  C480     1.0000 0.66621  0.13465  0.49964  Biso   1.000  C
  C481     1.0000 0.35655  0.76504  0.52152  Biso   1.000  C
  C482     1.0000 0.51881  0.33737  0.79184  Biso   1.000  C
  C483     1.0000 0.79042  0.45379  0.37987  Biso   1.000  C
  C484     1.0000 0.86986  0.76339  0.04359  Biso   1.000  C
  C485     1.0000 0.00357  0.31734  0.71312  Biso   1.000  C
  C486     1.0000 0.29934  0.48274  0.13660  Biso   1.000  C
  C487     1.0000 0.15709  0.26820  0.50358  Biso   1.000  C
  C488     1.0000 0.00163  0.81404  0.80872  Biso   1.000  C
  C489     1.0000 0.71500  0.94917  0.37801  Biso   1.000  C
  C490     1.0000 0.65216  0.26149  0.98345  Biso   1.000  C
  C491     1.0000 0.49399  0.83790  0.73148  Biso   1.000  C
  C492     1.0000 0.22010  0.96471  0.14271  Biso   1.000  C
  C493     1.0000 0.65086  0.16248  0.49809  Biso   1.000  C
  C494     1.0000 0.49327  0.58027  0.22549  Biso   1.000  C
  C495     1.0000 0.22178  0.47734  0.63766  Biso   1.000  C
  C496     1.0000 0.15025  0.16760  0.01513  Biso   1.000  C
  C497     1.0000 0.99865  0.60398  0.30850  Biso   1.000  C
  C498     1.0000 0.71869  0.48478  0.87443  Biso   1.000  C
  C499     1.0000 0.85418  0.66134  0.51846  Biso   1.000  C
  C500     1.0000 0.01825  0.10852  0.21086  Biso   1.000  C
  C501     1.0000 0.29843  0.96690  0.64499  Biso   1.000  C
  C502     1.0000 0.36544  0.66239  0.01069  Biso   1.000  C
  C503     1.0000 0.52522  0.07657  0.29139  Biso   1.000  C
  C504     1.0000 0.79956  0.95079  0.87828  Biso   1.000  C
  C505     1.0000 0.64610  0.47870  0.79687  Biso   1.000  C
  C506     1.0000 0.78488  0.57831  0.50658  Biso   1.000  C
  C507     1.0000 0.48429  0.75702  0.66102  Biso   1.000  C
  C508     1.0000 0.15161  0.45449  0.71529  Biso   1.000  C
  C509     1.0000 0.29384  0.58639  0.98572  Biso   1.000  C
  C510     1.0000 0.99028  0.74419  0.88908  Biso   1.000  C
  C511     1.0000 0.87881  0.93441  0.80504  Biso   1.000  C
  C512     1.0000 0.72414  0.08382  0.49771  Biso   1.000  C
  C513     1.0000 0.01345  0.24526  0.63408  Biso   1.000  C
  C514     1.0000 0.37515  0.97535  0.71859  Biso   1.000  C
  C515     1.0000 0.22097  0.09133  0.00255  Biso   1.000  C
  C516     1.0000 0.50134  0.25814  0.86636  Biso   1.000  C
  C517     1.0000 0.36609  0.45446  0.21294  Biso   1.000  C
  C518     1.0000 0.22903  0.34885  0.49345  Biso   1.000  C
  C519     1.0000 0.52801  0.16296  0.35887  Biso   1.000  C
  C520     1.0000 0.86618  0.46605  0.30094  Biso   1.000  C
  C521     1.0000 0.72569  0.34179  0.99394  Biso   1.000  C
  C522     1.0000 0.00984  0.18279  0.13234  Biso   1.000  C
  C523     1.0000 0.14174  0.97858  0.21755  Biso   1.000  C
  C524     1.0000 0.28696  0.84401  0.51194  Biso   1.000  C
  C525     1.0000 0.98627  0.67908  0.38467  Biso   1.000  C
  C526     1.0000 0.63927  0.93183  0.30411  Biso   1.000  C
  C527     1.0000 0.79685  0.84281  0.03753  Biso   1.000  C
  C528     1.0000 0.48452  0.66362  0.15534  Biso   1.000  C
  C529     1.0000 0.80523  0.10511  0.00143  Biso   1.000  C
  C530     1.0000 0.01745  0.76235  0.15718  Biso   1.000  C
  C531     1.0000 0.14164  0.94901  0.80268  Biso   1.000  C
  C532     1.0000 0.30425  0.10684  0.50698  Biso   1.000  C
  C533     1.0000 0.49068  0.74228  0.39380  Biso   1.000  C
  C534     1.0000 0.64268  0.96274  0.72137  Biso   1.000  C
  C535     1.0000 0.70784  0.60857  0.02296  Biso   1.000  C
  C536     1.0000 0.51137  0.24443  0.12507  Biso   1.000  C
  C537     1.0000 0.37975  0.46500  0.79588  Biso   1.000  C
  C538     1.0000 0.20204  0.61382  0.50527  Biso   1.000  C
  C539     1.0000 0.03731  0.26494  0.36825  Biso   1.000  C
  C540     1.0000 0.88464  0.46023  0.72274  Biso   1.000  C
  C541     1.0000 0.21474  0.82309  0.00903  Biso   1.000  C
  C542     1.0000 0.02289  0.16112  0.86879  Biso   1.000  C
  C543     1.0000 0.87318  0.96145  0.21941  Biso   1.000  C
  C544     1.0000 0.70555  0.81418  0.51491  Biso   1.000  C
  C545     1.0000 0.51623  0.17523  0.62845  Biso   1.000  C
  C546     1.0000 0.37612  0.97028  0.29668  Biso   1.000  C
  C547     1.0000 0.30858  0.32173  0.00043  Biso   1.000  C
  C548     1.0000 0.50121  0.67406  0.88917  Biso   1.000  C
  C549     1.0000 0.63616  0.46977  0.21699  Biso   1.000  C
  C550     1.0000 0.81028  0.31188  0.50509  Biso   1.000  C
  C551     1.0000 0.98746  0.66326  0.65181  Biso   1.000  C
  C552     1.0000 0.13219  0.47949  0.29275  Biso   1.000  C
  C553     1.0000 0.00128  0.08083  0.79893  Biso   1.000  C
  C554     1.0000 0.79788  0.96652  0.14143  Biso   1.000  C
  C555     1.0000 0.13725  0.74768  0.00741  Biso   1.000  C
  C556     1.0000 0.51418  0.09976  0.70450  Biso   1.000  C
  C557     1.0000 0.30206  0.97204  0.37759  Biso   1.000  C
  C558     1.0000 0.62413  0.74458  0.51930  Biso   1.000  C
  C559     1.0000 0.50141  0.60280  0.80839  Biso   1.000  C
  C560     1.0000 0.71491  0.47610  0.14394  Biso   1.000  C
  C561     1.0000 0.38518  0.24861  0.99720  Biso   1.000  C
  C562     1.0000 0.00579  0.58448  0.72198  Biso   1.000  C
  C563     1.0000 0.21020  0.49618  0.36415  Biso   1.000  C
  C564     1.0000 0.89280  0.24450  0.49275  Biso   1.000  C
  C565     1.0000 0.01590  0.84071  0.23123  Biso   1.000  C
  C566     1.0000 0.21610  0.94648  0.87814  Biso   1.000  C
  C567     1.0000 0.88206  0.17915  0.97773  Biso   1.000  C
  C568     1.0000 0.49724  0.81434  0.31294  Biso   1.000  C
  C569     1.0000 0.72215  0.96249  0.64473  Biso   1.000  C
  C570     1.0000 0.38500  0.17800  0.49990  Biso   1.000  C
  C571     1.0000 0.50585  0.31428  0.20799  Biso   1.000  C
  C572     1.0000 0.30431  0.46135  0.86976  Biso   1.000  C
  C573     1.0000 0.62950  0.68168  0.02332  Biso   1.000  C
  C574     1.0000 0.01329  0.34081  0.29564  Biso   1.000  C
  C575     1.0000 0.80630  0.46120  0.64810  Biso   1.000  C
  C576     1.0000 0.11870  0.67986  0.52515  Biso   1.000  C
  C577     1.0000 0.29998  0.47992  0.10545  Biso   1.000  C
  C578     1.0000 0.12544  0.26632  0.50716  Biso   1.000  C
  C579     1.0000 0.53112  0.04597  0.29685  Biso   1.000  C
  C580     1.0000 0.79091  0.45091  0.41189  Biso   1.000  C
  C581     1.0000 0.62108  0.25926  0.99038  Biso   1.000  C
  C582     1.0000 0.01541  0.07785  0.21005  Biso   1.000  C
  C583     1.0000 0.22057  0.96575  0.11174  Biso   1.000  C
  C584     1.0000 0.38718  0.76261  0.52611  Biso   1.000  C
  C585     1.0000 0.00315  0.57226  0.30757  Biso   1.000  C
  C586     1.0000 0.71493  0.95363  0.40931  Biso   1.000  C
  C587     1.0000 0.90066  0.76229  0.03967  Biso   1.000  C
  C588     1.0000 0.49522  0.54853  0.22323  Biso   1.000  C
  C589     1.0000 0.71642  0.48717  0.90461  Biso   1.000  C
  C590     1.0000 0.88597  0.66229  0.52122  Biso   1.000  C
  C591     1.0000 0.50219  0.86809  0.72791  Biso   1.000  C
  C592     1.0000 0.21971  0.47800  0.60518  Biso   1.000  C
  C593     1.0000 0.39720  0.66206  0.01787  Biso   1.000  C
  C594     1.0000 0.00288  0.84503  0.80802  Biso   1.000  C
  C595     1.0000 0.80034  0.95808  0.90972  Biso   1.000  C
  C596     1.0000 0.61885  0.16278  0.49629  Biso   1.000  C
  C597     1.0000 0.00907  0.34827  0.71582  Biso   1.000  C
  C598     1.0000 0.29772  0.96699  0.61302  Biso   1.000  C
  C599     1.0000 0.11917  0.17089  0.01433  Biso   1.000  C
  C600     1.0000 0.51799  0.36849  0.79515  Biso   1.000  C
  C601     1.0000 0.21619  0.94527  0.90963  Biso   1.000  C
  C602     1.0000 0.91523  0.17805  0.97712  Biso   1.000  C
  C603     1.0000 0.01960  0.87227  0.23009  Biso   1.000  C
  C604     1.0000 0.72225  0.96163  0.61147  Biso   1.000  C
  C605     1.0000 0.41657  0.17686  0.49861  Biso   1.000  C
  C606     1.0000 0.49982  0.84453  0.31078  Biso   1.000  C
  C607     1.0000 0.30454  0.45738  0.90137  Biso   1.000  C
  C608     1.0000 0.59883  0.68029  0.01974  Biso   1.000  C
  C609     1.0000 0.50624  0.34599  0.21102  Biso   1.000  C
  C610     1.0000 0.80598  0.46066  0.61629  Biso   1.000  C
  C611     1.0000 0.08695  0.67608  0.52490  Biso   1.000  C
  C612     1.0000 0.01095  0.37200  0.29752  Biso   1.000  C
  C613     1.0000 0.79998  0.96600  0.11086  Biso   1.000  C
  C614     1.0000 0.10630  0.74923  0.00934  Biso   1.000  C
  C615     1.0000 0.99871  0.04908  0.80152  Biso   1.000  C
  C616     1.0000 0.30197  0.97320  0.41014  Biso   1.000  C
  C617     1.0000 0.59276  0.74713  0.52299  Biso   1.000  C
  C618     1.0000 0.51256  0.06905  0.70357  Biso   1.000  C
  C619     1.0000 0.71563  0.47351  0.11145  Biso   1.000  C
  C620     1.0000 0.41517  0.25025  0.00289  Biso   1.000  C
  C621     1.0000 0.50560  0.57193  0.80650  Biso   1.000  C
  C622     1.0000 0.21149  0.49610  0.39630  Biso   1.000  C
  C623     1.0000 0.92472  0.24838  0.49169  Biso   1.000  C
  C624     1.0000 0.00963  0.55367  0.71890  Biso   1.000  C
  C625     1.0000 0.03014  0.16146  0.89891  Biso   1.000  C
  C626     1.0000 0.90477  0.96514  0.21811  Biso   1.000  C
  C627     1.0000 0.21542  0.85468  0.00667  Biso   1.000  C
  C628     1.0000 0.51772  0.17411  0.59725  Biso   1.000  C
  C629     1.0000 0.40889  0.96981  0.29570  Biso   1.000  C
  C630     1.0000 0.70671  0.84550  0.51600  Biso   1.000  C
  C631     1.0000 0.50302  0.67102  0.92109  Biso   1.000  C
  C632     1.0000 0.60389  0.46548  0.21623  Biso   1.000  C
  C633     1.0000 0.30901  0.35247  0.00443  Biso   1.000  C
  C634     1.0000 0.98493  0.66362  0.62004  Biso   1.000  C
  C635     1.0000 0.10116  0.47531  0.29535  Biso   1.000  C
  C636     1.0000 0.80861  0.34394  0.50824  Biso   1.000  C
  C637     1.0000 0.01796  0.76524  0.12530  Biso   1.000  C
  C638     1.0000 0.11070  0.95015  0.80416  Biso   1.000  C
  C639     1.0000 0.80470  0.07497  0.00774  Biso   1.000  C
  C640     1.0000 0.48830  0.74496  0.42614  Biso   1.000  C
  C641     1.0000 0.61031  0.96271  0.71972  Biso   1.000  C
  C642     1.0000 0.30351  0.07612  0.50958  Biso   1.000  C
  C643     1.0000 0.51742  0.24624  0.09515  Biso   1.000  C
  C644     1.0000 0.41285  0.46477  0.79635  Biso   1.000  C
  C645     1.0000 0.71060  0.57783  0.02283  Biso   1.000  C
  C646     1.0000 0.03831  0.26547  0.39978  Biso   1.000  C
  C647     1.0000 0.91579  0.45648  0.72007  Biso   1.000  C
  C648     1.0000 0.20435  0.58274  0.49864  Biso   1.000  C
  C649     1.0000 0.98493  0.67721  0.41567  Biso   1.000  C
  C650     1.0000 0.40646  0.97264  0.71766  Biso   1.000  C
  C651     1.0000 0.72228  0.37339  0.99990  Biso   1.000  C
  C652     1.0000 0.48742  0.66513  0.12458  Biso   1.000  C
  C653     1.0000 0.91019  0.93362  0.80654  Biso   1.000  C
  C654     1.0000 0.22622  0.38019  0.49661  Biso   1.000  C
  C655     1.0000 0.52565  0.16501  0.38972  Biso   1.000  C
  C656     1.0000 0.11959  0.45358  0.71534  Biso   1.000  C
  C657     1.0000 0.79797  0.87229  0.02872  Biso   1.000  C
  C658     1.0000 0.00658  0.18049  0.09979  Biso   1.000  C
  C659     1.0000 0.61387  0.47712  0.79549  Biso   1.000  C
  C660     1.0000 0.29130  0.87528  0.50964  Biso   1.000  C
  C661     1.0000 0.01709  0.24830  0.60256  Biso   1.000  C
  C662     1.0000 0.60842  0.92888  0.30570  Biso   1.000  C
  C663     1.0000 0.29367  0.55441  0.98510  Biso   1.000  C
  C664     1.0000 0.50266  0.25600  0.89726  Biso   1.000  C
  C665     1.0000 0.11021  0.98094  0.21467  Biso   1.000  C
  C666     1.0000 0.78600  0.54653  0.50658  Biso   1.000  C
  C667     1.0000 0.48405  0.75320  0.62975  Biso   1.000  C
  C668     1.0000 0.89760  0.46342  0.30097  Biso   1.000  C
  C669     1.0000 0.21815  0.06029  0.00790  Biso   1.000  C
  C670     1.0000 0.98984  0.74636  0.92073  Biso   1.000  C
  C671     1.0000 0.39577  0.44559  0.21619  Biso   1.000  C
  C672     1.0000 0.72210  0.05249  0.49643  Biso   1.000  C
  C673     1.0000 0.20412  0.94997  0.81618  Biso   1.000  C
  C674     1.0000 0.81752  0.16737  0.98759  Biso   1.000  C
  C675     1.0000 0.01435  0.77753  0.21970  Biso   1.000  C
  C676     1.0000 0.70730  0.95933  0.70860  Biso   1.000  C
  C677     1.0000 0.32022  0.16886  0.50326  Biso   1.000  C
  C678     1.0000 0.49018  0.75209  0.33134  Biso   1.000  C
  C679     1.0000 0.31737  0.46198  0.80871  Biso   1.000  C
  C680     1.0000 0.69237  0.67056  0.02847  Biso   1.000  C
  C681     1.0000 0.50776  0.25149  0.18961  Biso   1.000  C
  C682     1.0000 0.82188  0.46456  0.71294  Biso   1.000  C
  C683     1.0000 0.18353  0.67347  0.52139  Biso   1.000  C
  C684     1.0000 0.02330  0.27753  0.30556  Biso   1.000  C
  C685     1.0000 0.81246  0.96634  0.20442  Biso   1.000  C
  C686     1.0000 0.20115  0.76070  0.00536  Biso   1.000  C
  C687     1.0000 0.01039  0.14520  0.80651  Biso   1.000  C
  C688     1.0000 0.31439  0.97469  0.31445  Biso   1.000  C
  C689     1.0000 0.68731  0.75107  0.51660  Biso   1.000  C
  C690     1.0000 0.51765  0.16173  0.69263  Biso   1.000  C
  C691     1.0000 0.70028  0.47604  0.20494  Biso   1.000  C
  C692     1.0000 0.32433  0.25862  0.99374  Biso   1.000  C
  C693     1.0000 0.49515  0.66582  0.82720  Biso   1.000  C
  C694     1.0000 0.19630  0.48834  0.30232  Biso   1.000  C
  C695     1.0000 0.82732  0.25269  0.49975  Biso   1.000  C
  C696     1.0000 0.99728  0.64798  0.71287  Biso   1.000  C
  C697     1.0000 0.70287  0.94268  0.31566  Biso   1.000  C
  C698     1.0000 0.30525  0.64908  0.99576  Biso   1.000  C
  C699     1.0000 0.00608  0.25638  0.69994  Biso   1.000  C
  C700     1.0000 0.20579  0.97369  0.20713  Biso   1.000  C
  C701     1.0000 0.79195  0.64198  0.51048  Biso   1.000  C
  C702     1.0000 0.51194  0.27265  0.80151  Biso   1.000  C
  C703     1.0000 0.80507  0.46718  0.31645  Biso   1.000  C
  C704     1.0000 0.21085  0.15356  0.00438  Biso   1.000  C
  C705     1.0000 0.48591  0.77556  0.72049  Biso   1.000  C
  C706     1.0000 0.30654  0.47605  0.19578  Biso   1.000  C
  C707     1.0000 0.71388  0.14837  0.50106  Biso   1.000  C
  C708     1.0000 0.99607  0.75316  0.82444  Biso   1.000  C
  C709     1.0000 0.31205  0.96414  0.70672  Biso   1.000  C
  C710     1.0000 0.71516  0.28027  0.98554  Biso   1.000  C
  C711     1.0000 0.99511  0.66648  0.32404  Biso   1.000  C
  C712     1.0000 0.81499  0.94333  0.81579  Biso   1.000  C
  C713     1.0000 0.21775  0.28225  0.49407  Biso   1.000  C
  C714     1.0000 0.48762  0.64556  0.21880  Biso   1.000  C
  C715     1.0000 0.21166  0.46834  0.69929  Biso   1.000  C
  C716     1.0000 0.80678  0.77813  0.04349  Biso   1.000  C
  C717     1.0000 0.52231  0.14320  0.30008  Biso   1.000  C
  C718     1.0000 0.70788  0.48183  0.81407  Biso   1.000  C
  C719     1.0000 0.29561  0.77965  0.52005  Biso   1.000  C
  C720     1.0000 0.01678  0.17001  0.19523  Biso   1.000  C
  C721     1.0000 0.47213  0.75508  0.30649  Biso   1.000  C
  C722     1.0000 0.32259  0.48154  0.78482  Biso   1.000  C
  C723     1.0000 0.80158  0.25637  0.51884  Biso   1.000  C
  C724     1.0000 0.03056  0.74953  0.22113  Biso   1.000  C
  C725     1.0000 0.79931  0.48520  0.70980  Biso   1.000  C
  C726     1.0000 0.29926  0.26101  0.97405  Biso   1.000  C
  C727     1.0000 0.01227  0.24860  0.31047  Biso   1.000  C
  C728     1.0000 0.22770  0.97164  0.81861  Biso   1.000  C
  C729     1.0000 0.71347  0.75068  0.53160  Biso   1.000  C
  C730     1.0000 0.49684  0.25304  0.21922  Biso   1.000  C
  C731     1.0000 0.73181  0.94067  0.70335  Biso   1.000  C
  C732     1.0000 0.22359  0.76104  0.98130  Biso   1.000  C
  C733     1.0000 0.50008  0.16026  0.71872  Biso   1.000  C
  C734     1.0000 0.69606  0.45824  0.23071  Biso   1.000  C
  C735     1.0000 0.17700  0.70349  0.51458  Biso   1.000  C
  C736     1.0000 0.03134  0.17177  0.80716  Biso   1.000  C
  C737     1.0000 0.22479  0.47403  0.30666  Biso   1.000  C
  C738     1.0000 0.71267  0.66663  0.05273  Biso   1.000  C
  C739     1.0000 0.01673  0.64581  0.73746  Biso   1.000  C
  C740     1.0000 0.78538  0.94991  0.20098  Biso   1.000  C
  C741     1.0000 0.29579  0.16705  0.48416  Biso   1.000  C
  C742     1.0000 0.47590  0.66380  0.80194  Biso   1.000  C
  C743     1.0000 0.28664  0.95789  0.31594  Biso   1.000  C
  C744     1.0000 0.82445  0.19539  0.99906  Biso   1.000  C
  C745     1.0000 0.01244  0.69201  0.33047  Biso   1.000  C
  C746     1.0000 0.28701  0.98074  0.70604  Biso   1.000  C
  C747     1.0000 0.73981  0.27885  0.00584  Biso   1.000  C
  C748     1.0000 0.49942  0.67539  0.21531  Biso   1.000  C
  C749     1.0000 0.78525  0.92998  0.81939  Biso   1.000  C
  C750     1.0000 0.24530  0.28691  0.50866  Biso   1.000  C
  C751     1.0000 0.53885  0.14047  0.27278  Biso   1.000  C
  C752     1.0000 0.24035  0.45938  0.69368  Biso   1.000  C
  C753     1.0000 0.78395  0.77983  0.02362  Biso   1.000  C
  C754     1.0000 0.03617  0.19452  0.19118  Biso   1.000  C
  C755     1.0000 0.70882  0.45949  0.79141  Biso   1.000  C
  C756     1.0000 0.29721  0.75524  0.53880  Biso   1.000  C
  C757     1.0000 0.99225  0.22823  0.69495  Biso   1.000  C
  C758     1.0000 0.69716  0.95982  0.28888  Biso   1.000  C
  C759     1.0000 0.27636  0.64353  0.00834  Biso   1.000  C
  C760     1.0000 0.53185  0.27414  0.77709  Biso   1.000  C
  C761     1.0000 0.23056  0.95324  0.20698  Biso   1.000  C
  C762     1.0000 0.79531  0.66889  0.49538  Biso   1.000  C
  C763     1.0000 0.46267  0.75390  0.72339  Biso   1.000  C
  C764     1.0000 0.77869  0.48475  0.32137  Biso   1.000  C
  C765     1.0000 0.23928  0.14892  0.01813  Biso   1.000  C
  C766     1.0000 0.97962  0.75661  0.79779  Biso   1.000  C
  C767     1.0000 0.31178  0.49362  0.22057  Biso   1.000  C
  C768     1.0000 0.71444  0.17421  0.48248  Biso   1.000  C
  C769     1.0000 0.50949  0.69259  0.82938  Biso   1.000  C
  C770     1.0000 0.82308  0.44960  0.74086  Biso   1.000  C
  C771     1.0000 0.68002  0.72583  0.49861  Biso   1.000  C
  C772     1.0000 0.97705  0.67135  0.71326  Biso   1.000  C
  C773     1.0000 0.28984  0.44594  0.80967  Biso   1.000  C
  C774     1.0000 0.19915  0.73493  0.02213  Biso   1.000  C
  C775     1.0000 0.98974  0.14436  0.78389  Biso   1.000  C
  C776     1.0000 0.70568  0.97624  0.73596  Biso   1.000  C
  C777     1.0000 0.83056  0.22543  0.48377  Biso   1.000  C
  C778     1.0000 0.53622  0.18744  0.68925  Biso   1.000  C
  C779     1.0000 0.20463  0.93450  0.78789  Biso   1.000  C
  C780     1.0000 0.32674  0.23069  0.00908  Biso   1.000  C
  C781     1.0000 0.52086  0.22374  0.18157  Biso   1.000  C
  C782     1.0000 0.19038  0.50238  0.27434  Biso   1.000  C
  C783     1.0000 0.32349  0.19559  0.51986  Biso   1.000  C
  C784     1.0000 0.03698  0.28586  0.27648  Biso   1.000  C
  C785     1.0000 0.72632  0.49339  0.20288  Biso   1.000  C
  C786     1.0000 0.78949  0.16053  0.97517  Biso   1.000  C
  C787     1.0000 0.99307  0.78025  0.24335  Biso   1.000  C
  C788     1.0000 0.31763  0.99344  0.28824  Biso   1.000  C
  C789     1.0000 0.21267  0.66538  0.53278  Biso   1.000  C
  C790     1.0000 0.50748  0.72467  0.33346  Biso   1.000  C
  C791     1.0000 0.81570  0.97787  0.23440  Biso   1.000  C
  C792     1.0000 0.69407  0.69791  0.01183  Biso   1.000  C
  C793     1.0000 0.50077  0.16574  0.30295  Biso   1.000  C
  C794     1.0000 0.27699  0.46504  0.19157  Biso   1.000  C
  C795     1.0000 0.21230  0.25433  0.47936  Biso   1.000  C
  C796     1.0000 0.00029  0.16813  0.22381  Biso   1.000  C
  C797     1.0000 0.80783  0.45176  0.28771  Biso   1.000  C
  C798     1.0000 0.71457  0.25583  0.96370  Biso   1.000  C
  C799     1.0000 0.98249  0.66426  0.29520  Biso   1.000  C
  C800     1.0000 0.20610  0.99799  0.22750  Biso   1.000  C
  C801     1.0000 0.26960  0.78107  0.50305  Biso   1.000  C
  C802     1.0000 0.47740  0.63863  0.24818  Biso   1.000  C
  C803     1.0000 0.73198  0.93252  0.31728  Biso   1.000  C
  C804     1.0000 0.80519  0.75366  0.06362  Biso   1.000  C
  C805     1.0000 0.50813  0.77468  0.74221  Biso   1.000  C
  C806     1.0000 0.73228  0.50121  0.81699  Biso   1.000  C
  C807     1.0000 0.76230  0.63631  0.52262  Biso   1.000  C
  C808     1.0000 0.01405  0.72808  0.82774  Biso   1.000  C
  C809     1.0000 0.20614  0.47977  0.72761  Biso   1.000  C
  C810     1.0000 0.30978  0.67775  0.98159  Biso   1.000  C
  C811     1.0000 0.01976  0.26049  0.72801  Biso   1.000  C
  C812     1.0000 0.82364  0.95953  0.78994  Biso   1.000  C
  C813     1.0000 0.73950  0.14560  0.51819  Biso   1.000  C
  C814     1.0000 0.49457  0.24532  0.80314  Biso   1.000  C
  C815     1.0000 0.31894  0.94511  0.73031  Biso   1.000  C
  C816     1.0000 0.20790  0.17974  0.98503  Biso   1.000  C
  C817     1.0000 0.02763  0.19239  0.78634  Biso   1.000  C
  C818     1.0000 0.76423  0.94879  0.22219  Biso   1.000  C
  C819     1.0000 0.24023  0.73742  0.97593  Biso   1.000  C
  C820     1.0000 0.50172  0.18102  0.74053  Biso   1.000  C
  C821     1.0000 0.26616  0.96016  0.29396  Biso   1.000  C
  C822     1.0000 0.73314  0.72939  0.52813  Biso   1.000  C
  C823     1.0000 0.47287  0.68535  0.78219  Biso   1.000  C
  C824     1.0000 0.71710  0.45944  0.25212  Biso   1.000  C
  C825     1.0000 0.27792  0.23850  0.97476  Biso   1.000  C
  C826     1.0000 0.01745  0.66663  0.75922  Biso   1.000  C
  C827     1.0000 0.24560  0.47670  0.28421  Biso   1.000  C
  C828     1.0000 0.77932  0.23557  0.51752  Biso   1.000  C
  C829     1.0000 0.02452  0.72895  0.24237  Biso   1.000  C
  C830     1.0000 0.25006  0.97471  0.79842  Biso   1.000  C
  C831     1.0000 0.80324  0.21604  0.99766  Biso   1.000  C
  C832     1.0000 0.46831  0.73252  0.28671  Biso   1.000  C
  C833     1.0000 0.75191  0.93705  0.72373  Biso   1.000  C
  C834     1.0000 0.27731  0.18961  0.48131  Biso   1.000  C
  C835     1.0000 0.50105  0.23164  0.23981  Biso   1.000  C
  C836     1.0000 0.30095  0.48422  0.76351  Biso   1.000  C
  C837     1.0000 0.73512  0.68693  0.05598  Biso   1.000  C
  C838     1.0000 0.01591  0.22724  0.28996  Biso   1.000  C
  C839     1.0000 0.77937  0.49100  0.73317  Biso   1.000  C
  C840     1.0000 0.19984  0.72398  0.51702  Biso   1.000  C
  C841     1.0000 0.22784  0.93690  0.76944  Biso   1.000  C
  C842     1.0000 0.76953  0.18294  0.97403  Biso   1.000  C
  C843     1.0000 0.98908  0.76032  0.26474  Biso   1.000  C
  C844     1.0000 0.72697  0.97110  0.75561  Biso   1.000  C
  C845     1.0000 0.30481  0.21768  0.51647  Biso   1.000  C
  C846     1.0000 0.50592  0.70350  0.31099  Biso   1.000  C
  C847     1.0000 0.26914  0.44870  0.78899  Biso   1.000  C
  C848     1.0000 0.71537  0.71793  0.01781  Biso   1.000  C
  C849     1.0000 0.52101  0.20143  0.20173  Biso   1.000  C
  C850     1.0000 0.80306  0.45450  0.76367  Biso   1.000  C
  C851     1.0000 0.23417  0.68731  0.53327  Biso   1.000  C
  C852     1.0000 0.03844  0.26244  0.25650  Biso   1.000  C
  C853     1.0000 0.79461  0.97330  0.25607  Biso   1.000  C
  C854     1.0000 0.22062  0.71346  0.01806  Biso   1.000  C
  C855     1.0000 0.98679  0.16722  0.76437  Biso   1.000  C
  C856     1.0000 0.29823  0.99265  0.26665  Biso   1.000  C
  C857     1.0000 0.69935  0.70241  0.49589  Biso   1.000  C
  C858     1.0000 0.53490  0.20991  0.70982  Biso   1.000  C
  C859     1.0000 0.74611  0.49512  0.22593  Biso   1.000  C
  C860     1.0000 0.30532  0.20916  0.00984  Biso   1.000  C
  C861     1.0000 0.50365  0.71661  0.81153  Biso   1.000  C
  C862     1.0000 0.21193  0.50201  0.25285  Biso   1.000  C
  C863     1.0000 0.80744  0.20566  0.48392  Biso   1.000  C
  C864     1.0000 0.97770  0.69229  0.73540  Biso   1.000  C
  C865     1.0000 0.73233  0.45969  0.77210  Biso   1.000  C
  C866     1.0000 0.77310  0.68877  0.49326  Biso   1.000  C
  C867     1.0000 0.46153  0.73472  0.74645  Biso   1.000  C
  C868     1.0000 0.26092  0.46103  0.71542  Biso   1.000  C
  C869     1.0000 0.25515  0.66361  0.00687  Biso   1.000  C
  C870     1.0000 0.98275  0.73717  0.77554  Biso   1.000  C
  C871     1.0000 0.76472  0.93510  0.79773  Biso   1.000  C
  C872     1.0000 0.73834  0.19372  0.48176  Biso   1.000  C
  C873     1.0000 0.99351  0.20654  0.71450  Biso   1.000  C
  C874     1.0000 0.26786  0.97475  0.72831  Biso   1.000  C
  C875     1.0000 0.26102  0.16889  0.01445  Biso   1.000  C
  C876     1.0000 0.53499  0.25271  0.75641  Biso   1.000  C
  C877     1.0000 0.28961  0.49901  0.24100  Biso   1.000  C
  C878     1.0000 0.26541  0.26515  0.50887  Biso   1.000  C
  C879     1.0000 0.53585  0.16132  0.25056  Biso   1.000  C
  C880     1.0000 0.75856  0.48882  0.29892  Biso   1.000  C
  C881     1.0000 0.76007  0.25707  0.00345  Biso   1.000  C
  C882     1.0000 0.04080  0.21451  0.21393  Biso   1.000  C
  C883     1.0000 0.25117  0.95507  0.22828  Biso   1.000  C
  C884     1.0000 0.27463  0.73481  0.54307  Biso   1.000  C
  C885     1.0000 0.01372  0.71544  0.31257  Biso   1.000  C
  C886     1.0000 0.71793  0.96489  0.26769  Biso   1.000  C
  C887     1.0000 0.76157  0.75940  0.02185  Biso   1.000  C
  C888     1.0000 0.49627  0.69530  0.23689  Biso   1.000  C
  C889     1.0000 0.75261  0.94057  0.29635  Biso   1.000  C
  C890     1.0000 0.28880  0.69825  0.98304  Biso   1.000  C
  C891     1.0000 0.01944  0.23902  0.74739  Biso   1.000  C
  C892     1.0000 0.22659  0.99767  0.24895  Biso   1.000  C
  C893     1.0000 0.74045  0.65682  0.52071  Biso   1.000  C
  C894     1.0000 0.49955  0.22355  0.78240  Biso   1.000  C
  C895     1.0000 0.78598  0.45607  0.26718  Biso   1.000  C
  C896     1.0000 0.23142  0.19786  0.98267  Biso   1.000  C
  C897     1.0000 0.50713  0.75448  0.76333  Biso   1.000  C
  C898     1.0000 0.25518  0.47326  0.21002  Biso   1.000  C
  C899     1.0000 0.76171  0.16522  0.51743  Biso   1.000  C
  C900     1.0000 0.01828  0.70824  0.80493  Biso   1.000  C
  C901     1.0000 0.29764  0.94193  0.75298  Biso   1.000  C
  C902     1.0000 0.73551  0.23503  0.96288  Biso   1.000  C
  C903     1.0000 0.98407  0.68869  0.27759  Biso   1.000  C
  C904     1.0000 0.80077  0.96144  0.76713  Biso   1.000  C
  C905     1.0000 0.23366  0.23351  0.47956  Biso   1.000  C
  C906     1.0000 0.47870  0.65838  0.27091  Biso   1.000  C
  C907     1.0000 0.22605  0.48053  0.74904  Biso   1.000  C
  C908     1.0000 0.78282  0.73249  0.06142  Biso   1.000  C
  C909     1.0000 0.49691  0.18506  0.27967  Biso   1.000  C
  C910     1.0000 0.75696  0.49646  0.80027  Biso   1.000  C
  C911     1.0000 0.24714  0.76136  0.50621  Biso   1.000  C
  C912     1.0000 0.00476  0.18943  0.24441  Biso   1.000  C
  C913     1.0000 0.78057  0.47507  0.75881  Biso   1.000  C
  C914     1.0000 0.72603  0.70593  0.50917  Biso   1.000  C
  C915     1.0000 0.48766  0.71180  0.78701  Biso   1.000  C
  C916     1.0000 0.27483  0.46957  0.76601  Biso   1.000  C
  C917     1.0000 0.24010  0.71450  0.99487  Biso   1.000  C
  C918     1.0000 0.99858  0.68970  0.75765  Biso   1.000  C
  C919     1.0000 0.75036  0.95290  0.74936  Biso   1.000  C
  C920     1.0000 0.78313  0.21138  0.50005  Biso   1.000  C
  C921     1.0000 0.00701  0.18959  0.76490  Biso   1.000  C
  C922     1.0000 0.25043  0.95651  0.77427  Biso   1.000  C
  C923     1.0000 0.28159  0.21486  0.99304  Biso   1.000  C
  C924     1.0000 0.51972  0.20559  0.73660  Biso   1.000  C
  C925     1.0000 0.23896  0.49125  0.25778  Biso   1.000  C
  C926     1.0000 0.28250  0.21596  0.49697  Biso   1.000  C
  C927     1.0000 0.51416  0.20639  0.23091  Biso   1.000  C
  C928     1.0000 0.74073  0.47770  0.24941  Biso   1.000  C
  C929     1.0000 0.77711  0.21074  0.98462  Biso   1.000  C
  C930     1.0000 0.02860  0.23369  0.26322  Biso   1.000  C
  C931     1.0000 0.27213  0.97727  0.26998  Biso   1.000  C
  C932     1.0000 0.22797  0.71613  0.52560  Biso   1.000  C
  C933     1.0000 0.00466  0.73495  0.26463  Biso   1.000  C
  C934     1.0000 0.76851  0.96134  0.24883  Biso   1.000  C
  C935     1.0000 0.73625  0.71358  0.03818  Biso   1.000  C
  C936     1.0000 0.48814  0.70874  0.28788  Biso   1.000  C
  C937     1.0000 0.75692  0.23566  0.98338  Biso   1.000  C
  C938     1.0000 0.99839  0.71345  0.28652  Biso   1.000  C
  C939     1.0000 0.27297  0.95778  0.75088  Biso   1.000  C
  C940     1.0000 0.25950  0.23910  0.49562  Biso   1.000  C
  C941     1.0000 0.48731  0.68691  0.26426  Biso   1.000  C
  C942     1.0000 0.77286  0.95012  0.77204  Biso   1.000  C
  C943     1.0000 0.76206  0.73441  0.03925  Biso   1.000  C
  C944     1.0000 0.51698  0.18373  0.25461  Biso   1.000  C
  C945     1.0000 0.25363  0.47064  0.74303  Biso   1.000  C
  C946     1.0000 0.25027  0.73920  0.52645  Biso   1.000  C
  C947     1.0000 0.02264  0.21294  0.23812  Biso   1.000  C
  C948     1.0000 0.75688  0.47760  0.77831  Biso   1.000  C
  C949     1.0000 0.26116  0.69172  0.99442  Biso   1.000  C
  C950     1.0000 0.00796  0.21193  0.74030  Biso   1.000  C
  C951     1.0000 0.74630  0.95671  0.27158  Biso   1.000  C
  C952     1.0000 0.74730  0.68343  0.50764  Biso   1.000  C
  C953     1.0000 0.51937  0.22731  0.75876  Biso   1.000  C
  C954     1.0000 0.24939  0.97720  0.24798  Biso   1.000  C
  C955     1.0000 0.25811  0.19285  0.99556  Biso   1.000  C
  C956     1.0000 0.48445  0.73412  0.76506  Biso   1.000  C
  C957     1.0000 0.76337  0.47576  0.27134  Biso   1.000  C
  C958     1.0000 0.76163  0.18886  0.49909  Biso   1.000  C
  C959     1.0000 0.00054  0.71252  0.78037  Biso   1.000  C
  C960     1.0000 0.26150  0.49074  0.23463  Biso   1.000  C
  Cu1      1.0000 0.01448  0.45216  0.66398  Biso   1.000  Cu
  Cu2      1.0000 0.66227  0.95117  0.51232  Biso   1.000  Cu
  Cu3      1.0000 0.50145  0.61259  0.02034  Biso   1.000  Cu
  Cu4      1.0000 0.51233  0.46763  0.85415  Biso   1.000  Cu
  Cu5      1.0000 0.16169  0.95881  0.01084  Biso   1.000  Cu
  Cu6      1.0000 0.98867  0.61743  0.51439  Biso   1.000  Cu
  Cu7      1.0000 0.51000  0.96552  0.66416  Biso   1.000  Cu
  Cu8      1.0000 0.85333  0.45101  0.50885  Biso   1.000  Cu
  Cu9      1.0000 0.01313  0.11829  0.00350  Biso   1.000  Cu
  Cu10     1.0000 0.00834  0.95074  0.85794  Biso   1.000  Cu
  Cu11     1.0000 0.35536  0.45853  0.00250  Biso   1.000  Cu
  Cu12     1.0000 0.51276  0.11284  0.49472  Biso   1.000  Cu
  Cu13     1.0000 0.99954  0.46959  0.35495  Biso   1.000  Cu
  Cu14     1.0000 0.35247  0.97430  0.51161  Biso   1.000  Cu
  Cu15     1.0000 0.51684  0.30895  0.99902  Biso   1.000  Cu
  Cu16     1.0000 0.50398  0.45226  0.16141  Biso   1.000  Cu
  Cu17     1.0000 0.85550  0.97026  0.00874  Biso   1.000  Cu
  Cu18     1.0000 0.02039  0.31312  0.50624  Biso   1.000  Cu
  Cu19     1.0000 0.50856  0.95170  0.35731  Biso   1.000  Cu
  Cu20     1.0000 0.16060  0.47484  0.50284  Biso   1.000  Cu
  Cu21     1.0000 0.00664  0.80801  0.01752  Biso   1.000  Cu
  Cu22     1.0000 0.00570  0.97019  0.16530  Biso   1.000  Cu
  Cu23     1.0000 0.66129  0.47266  0.00805  Biso   1.000  Cu
  Cu24     1.0000 0.49301  0.80522  0.52385  Biso   1.000  Cu
  Cu25     1.0000 0.21704  0.95806  0.00976  Biso   1.000  Cu
  Cu26     1.0000 0.01816  0.17184  0.99663  Biso   1.000  Cu
  Cu27     1.0000 0.00787  0.97479  0.21854  Biso   1.000  Cu
  Cu28     1.0000 0.71525  0.94858  0.51026  Biso   1.000  Cu
  Cu29     1.0000 0.51900  0.16858  0.49365  Biso   1.000  Cu
  Cu30     1.0000 0.51053  0.94336  0.30359  Biso   1.000  Cu
  Cu31     1.0000 0.29881  0.45393  0.00344  Biso   1.000  Cu
  Cu32     1.0000 0.49655  0.66669  0.02218  Biso   1.000  Cu
  Cu33     1.0000 0.50243  0.44879  0.21601  Biso   1.000  Cu
  Cu34     1.0000 0.80014  0.44595  0.51711  Biso   1.000  Cu
  Cu35     1.0000 0.98671  0.67205  0.51872  Biso   1.000  Cu
  Cu36     1.0000 0.99797  0.47201  0.29948  Biso   1.000  Cu
  Cu37     1.0000 0.80117  0.97313  0.00973  Biso   1.000  Cu
  Cu38     1.0000 0.00295  0.75628  0.02531  Biso   1.000  Cu
  Cu39     1.0000 0.00951  0.94697  0.80368  Biso   1.000  Cu
  Cu40     1.0000 0.29489  0.97694  0.51063  Biso   1.000  Cu
  Cu41     1.0000 0.48991  0.75046  0.52800  Biso   1.000  Cu
  Cu42     1.0000 0.50883  0.97070  0.71879  Biso   1.000  Cu
  Cu43     1.0000 0.71609  0.47648  0.00700  Biso   1.000  Cu
  Cu44     1.0000 0.51799  0.25345  0.99630  Biso   1.000  Cu
  Cu45     1.0000 0.51392  0.47223  0.80131  Biso   1.000  Cu
  Cu46     1.0000 0.21491  0.48168  0.50108  Biso   1.000  Cu
  Cu47     1.0000 0.02345  0.25774  0.50031  Biso   1.000  Cu
  Cu48     1.0000 0.01763  0.45215  0.71782  Biso   1.000  Cu
  H1       1.0000 0.27567  0.71589  0.55809  Biso   1.000  H
  H2       1.0000 0.55151  0.25628  0.74083  Biso   1.000  H
  H3       1.0000 0.73786  0.50034  0.30312  Biso   1.000  H
  H4       1.0000 0.74592  0.75928  0.00530  Biso   1.000  H
  H5       1.0000 0.98358  0.18607  0.70949  Biso   1.000  H
  H6       1.0000 0.29383  0.51016  0.26087  Biso   1.000  H
  H7       1.0000 0.28452  0.26791  0.52105  Biso   1.000  H
  H8       1.0000 0.97237  0.74025  0.75514  Biso   1.000  H
  H9       1.0000 0.71238  0.97441  0.24685  Biso   1.000  H
  H10      1.0000 0.77705  0.25924  0.01848  Biso   1.000  H
  H11      1.0000 0.44519  0.71866  0.74842  Biso   1.000  H
  H12      1.0000 0.27000  0.94104  0.22901  Biso   1.000  H
  H13      1.0000 0.73803  0.21264  0.46817  Biso   1.000  H
  H14      1.0000 0.50254  0.71711  0.23359  Biso   1.000  H
  H15      1.0000 0.28327  0.45357  0.71108  Biso   1.000  H
  H16      1.0000 0.28063  0.16352  0.02808  Biso   1.000  H
  H17      1.0000 0.02926  0.73324  0.31612  Biso   1.000  H
  H18      1.0000 0.73121  0.44472  0.75319  Biso   1.000  H
  H19      1.0000 0.77602  0.70726  0.47896  Biso   1.000  H
  H20      1.0000 0.05790  0.23039  0.21263  Biso   1.000  H
  H21      1.0000 0.24718  0.98707  0.73003  Biso   1.000  H
  H22      1.0000 0.23333  0.65809  0.01434  Biso   1.000  H
  H23      1.0000 0.55208  0.15853  0.23284  Biso   1.000  H
  H24      1.0000 0.74419  0.92372  0.80009  Biso   1.000  H
  H25      1.0000 0.26787  0.98945  0.80044  Biso   1.000  H
  H26      1.0000 0.81014  0.23956  0.00416  Biso   1.000  H
  H27      1.0000 0.03559  0.70993  0.24564  Biso   1.000  H
  H28      1.0000 0.77021  0.92015  0.72225  Biso   1.000  H
  H29      1.0000 0.25799  0.18857  0.46743  Biso   1.000  H
  H30      1.0000 0.45135  0.73168  0.27051  Biso   1.000  H
  H31      1.0000 0.30268  0.50098  0.74657  Biso   1.000  H
  H32      1.0000 0.75033  0.68083  0.07335  Biso   1.000  H
  H33      1.0000 0.49195  0.23558  0.26110  Biso   1.000  H
  H34      1.0000 0.76189  0.50517  0.72640  Biso   1.000  H
  H35      1.0000 0.19635  0.74707  0.51346  Biso   1.000  H
  H36      1.0000 0.00754  0.20697  0.29480  Biso   1.000  H
  H37      1.0000 0.74308  0.93819  0.21958  Biso   1.000  H
  H38      1.0000 0.25325  0.73716  0.95683  Biso   1.000  H
  H39      1.0000 0.04675  0.20861  0.78548  Biso   1.000  H
  H40      1.0000 0.24799  0.94595  0.29357  Biso   1.000  H
  H41      1.0000 0.75528  0.72928  0.53676  Biso   1.000  H
  H42      1.0000 0.48887  0.17762  0.76092  Biso   1.000  H
  H43      1.0000 0.71556  0.44592  0.27166  Biso   1.000  H
  H44      1.0000 0.25996  0.24041  0.96042  Biso   1.000  H
  H45      1.0000 0.46093  0.68270  0.76266  Biso   1.000  H
  H46      1.0000 0.26734  0.46681  0.28662  Biso   1.000  H
  H47      1.0000 0.75992  0.23891  0.52933  Biso   1.000  H
  H48      1.0000 0.03161  0.66521  0.77907  Biso   1.000  H
  H49      1.0000 0.20778  0.51221  0.23266  Biso   1.000  H
  H50      1.0000 0.31135  0.23746  0.52952  Biso   1.000  H
  H51      1.0000 0.52985  0.18103  0.19582  Biso   1.000  H
  H52      1.0000 0.76700  0.50737  0.22538  Biso   1.000  H
  H53      1.0000 0.74804  0.17811  0.96561  Biso   1.000  H
  H54      1.0000 0.04932  0.26670  0.23682  Biso   1.000  H
  H55      1.0000 0.30301  0.00250  0.24640  Biso   1.000  H
  H56      1.0000 0.25550  0.68167  0.53903  Biso   1.000  H
  H57      1.0000 0.97334  0.76233  0.28100  Biso   1.000  H
  H58      1.0000 0.79903  0.97920  0.27882  Biso   1.000  H
  H59      1.0000 0.71320  0.73911  0.00859  Biso   1.000  H
  H60      1.0000 0.51883  0.68307  0.31249  Biso   1.000  H
  H61      1.0000 0.80114  0.44197  0.78446  Biso   1.000  H
  H62      1.0000 0.69514  0.68445  0.48085  Biso   1.000  H
  H63      1.0000 0.51370  0.73764  0.81722  Biso   1.000  H
  H64      1.0000 0.24997  0.43512  0.79340  Biso   1.000  H
  H65      1.0000 0.21964  0.69798  0.03566  Biso   1.000  H
  H66      1.0000 0.96158  0.71017  0.73308  Biso   1.000  H
  H67      1.0000 0.72535  0.98521  0.77571  Biso   1.000  H
  H68      1.0000 0.80658  0.18701  0.46953  Biso   1.000  H
  H69      1.0000 0.96797  0.16525  0.74916  Biso   1.000  H
  H70      1.0000 0.23103  0.92082  0.75079  Biso   1.000  H
  H71      1.0000 0.30647  0.19286  0.02710  Biso   1.000  H
  H72      1.0000 0.54924  0.22829  0.70639  Biso   1.000  H
  H73      1.0000 0.77654  0.50804  0.80438  Biso   1.000  H
  H74      1.0000 0.71981  0.65316  0.53327  Biso   1.000  H
  H75      1.0000 0.52382  0.75572  0.77854  Biso   1.000  H
  H76      1.0000 0.22059  0.48605  0.77182  Biso   1.000  H
  H77      1.0000 0.29363  0.71979  0.97186  Biso   1.000  H
  H78      1.0000 0.03106  0.68966  0.80961  Biso   1.000  H
  H79      1.0000 0.80628  0.97429  0.74904  Biso   1.000  H
  H80      1.0000 0.77995  0.16178  0.53289  Biso   1.000  H
  H81      1.0000 0.02807  0.24217  0.76839  Biso   1.000  H
  H82      1.0000 0.30153  0.92816  0.77186  Biso   1.000  H
  H83      1.0000 0.22997  0.21920  0.97177  Biso   1.000  H
  H84      1.0000 0.48500  0.20387  0.78614  Biso   1.000  H
  H85      1.0000 0.23193  0.46622  0.20713  Biso   1.000  H
  H86      1.0000 0.22704  0.21242  0.47081  Biso   1.000  H
  H87      1.0000 0.47774  0.20050  0.28163  Biso   1.000  H
  H88      1.0000 0.78848  0.44329  0.24651  Biso   1.000  H
  H89      1.0000 0.73246  0.21660  0.94800  Biso   1.000  H
  H90      1.0000 0.99196  0.18562  0.26294  Biso   1.000  H
  H91      1.0000 0.22419  0.01181  0.26789  Biso   1.000  H
  H92      1.0000 0.22769  0.76537  0.49235  Biso   1.000  H
  H93      1.0000 0.97508  0.68640  0.25643  Biso   1.000  H
  H94      1.0000 0.77404  0.93339  0.29768  Biso   1.000  H
  H95      1.0000 0.78434  0.71279  0.07477  Biso   1.000  H
  H96      1.0000 0.47263  0.65270  0.29215  Biso   1.000  H
  H97      1.0000 0.87285  0.95805  0.91999  Biso   1.000  H
  H98      1.0000 0.91371  0.83438  0.02266  Biso   1.000  H
  H99      1.0000 0.99741  0.86009  0.88286  Biso   1.000  H
  H100     1.0000 0.37341  0.97742  0.59793  Biso   1.000  H
  H101     1.0000 0.40584  0.83715  0.52555  Biso   1.000  H
  H102     1.0000 0.50004  0.87573  0.64967  Biso   1.000  H
  H103     1.0000 0.63977  0.48796  0.91654  Biso   1.000  H
  H104     1.0000 0.60483  0.33297  0.99912  Biso   1.000  H
  H105     1.0000 0.51362  0.37098  0.87040  Biso   1.000  H
  H106     1.0000 0.14705  0.46313  0.59947  Biso   1.000  H
  H107     1.0000 0.11145  0.34048  0.50511  Biso   1.000  H
  H108     1.0000 0.01800  0.36350  0.64023  Biso   1.000  H
  H109     1.0000 0.14570  0.95550  0.10216  Biso   1.000  H
  H110     1.0000 0.10269  0.09559  0.01641  Biso   1.000  H
  H111     1.0000 0.01010  0.06442  0.13634  Biso   1.000  H
  H112     1.0000 0.63944  0.95236  0.42174  Biso   1.000  H
  H113     1.0000 0.60373  0.08824  0.50392  Biso   1.000  H
  H114     1.0000 0.51961  0.04178  0.37310  Biso   1.000  H
  H115     1.0000 0.37339  0.46255  0.09349  Biso   1.000  H
  H116     1.0000 0.40662  0.58401  0.01116  Biso   1.000  H
  H117     1.0000 0.48778  0.54558  0.14806  Biso   1.000  H
  H118     1.0000 0.86672  0.45227  0.41868  Biso   1.000  H
  H119     1.0000 0.90172  0.59050  0.52089  Biso   1.000  H
  H120     1.0000 0.98294  0.55793  0.37952  Biso   1.000  H
  H121     1.0000 0.10055  0.93417  0.87649  Biso   1.000  H
  H122     1.0000 0.88160  0.06167  0.00308  Biso   1.000  H
  H123     1.0000 0.01708  0.84138  0.11342  Biso   1.000  H
  H124     1.0000 0.60323  0.97101  0.64526  Biso   1.000  H
  H125     1.0000 0.38017  0.06288  0.50722  Biso   1.000  H
  H126     1.0000 0.50410  0.82118  0.42874  Biso   1.000  H
  H127     1.0000 0.41979  0.46703  0.87205  Biso   1.000  H
  H128     1.0000 0.63628  0.56407  0.00665  Biso   1.000  H
  H129     1.0000 0.51746  0.32222  0.08874  Biso   1.000  H
  H130     1.0000 0.92467  0.46058  0.64615  Biso   1.000  H
  H131     1.0000 0.12857  0.56460  0.50696  Biso   1.000  H
  H132     1.0000 0.02651  0.33767  0.41185  Biso   1.000  H
  H133     1.0000 0.91885  0.96621  0.14308  Biso   1.000  H
  H134     1.0000 0.13909  0.86387  0.01452  Biso   1.000  H
  H135     1.0000 0.02057  0.08727  0.91387  Biso   1.000  H
  H136     1.0000 0.42035  0.97361  0.37174  Biso   1.000  H
  H137     1.0000 0.63162  0.86070  0.51697  Biso   1.000  H
  H138     1.0000 0.52475  0.09899  0.58920  Biso   1.000  H
  H139     1.0000 0.59808  0.45863  0.14125  Biso   1.000  H
  H140     1.0000 0.38480  0.36480  0.01499  Biso   1.000  H
  H141     1.0000 0.51110  0.59503  0.92515  Biso   1.000  H
  H142     1.0000 0.09306  0.48008  0.37020  Biso   1.000  H
  H143     1.0000 0.88436  0.36024  0.50655  Biso   1.000  H
  H144     1.0000 0.99466  0.59072  0.60330  Biso   1.000  H
  H145     1.0000 0.59884  0.48285  0.87076  Biso   1.000  H
  H146     1.0000 0.86070  0.54033  0.51192  Biso   1.000  H
  H147     1.0000 0.48376  0.82736  0.61105  Biso   1.000  H
  H148     1.0000 0.10904  0.45650  0.63892  Biso   1.000  H
  H149     1.0000 0.36571  0.54342  0.00467  Biso   1.000  H
  H150     1.0000 0.00317  0.82106  0.92877  Biso   1.000  H
  H151     1.0000 0.91830  0.94326  0.88218  Biso   1.000  H
  H152     1.0000 0.64677  0.04471  0.50531  Biso   1.000  H
  H153     1.0000 0.01397  0.32227  0.59505  Biso   1.000  H
  H154     1.0000 0.41856  0.97109  0.64230  Biso   1.000  H
  H155     1.0000 0.14388  0.04804  0.01308  Biso   1.000  H
  H156     1.0000 0.51429  0.33415  0.90762  Biso   1.000  H
  H157     1.0000 0.41040  0.44744  0.14124  Biso   1.000  H
  H158     1.0000 0.15073  0.38557  0.50546  Biso   1.000  H
  H159     1.0000 0.51816  0.09184  0.41064  Biso   1.000  H
  H160     1.0000 0.90879  0.45584  0.37544  Biso   1.000  H
  H161     1.0000 0.64760  0.38034  0.99719  Biso   1.000  H
  H162     1.0000 0.00337  0.10421  0.09402  Biso   1.000  H
  H163     1.0000 0.10341  0.96355  0.14114  Biso   1.000  H
  H164     1.0000 0.36387  0.88492  0.52570  Biso   1.000  H
  H165     1.0000 0.98549  0.60296  0.42672  Biso   1.000  H
  H166     1.0000 0.59909  0.93786  0.38096  Biso   1.000  H
  H167     1.0000 0.87440  0.87357  0.01064  Biso   1.000  H
  H168     1.0000 0.50011  0.59103  0.10834  Biso   1.000  H
  H169     1.0000 0.01942  0.04449  0.87450  Biso   1.000  H
  H170     1.0000 0.87753  0.97002  0.10023  Biso   1.000  H
  H171     1.0000 0.09724  0.82356  0.02056  Biso   1.000  H
  H172     1.0000 0.51567  0.05618  0.62973  Biso   1.000  H
  H173     1.0000 0.37848  0.96993  0.41551  Biso   1.000  H
  H174     1.0000 0.58496  0.82244  0.51942  Biso   1.000  H
  H175     1.0000 0.50044  0.55350  0.87857  Biso   1.000  H
  H176     1.0000 0.63836  0.46826  0.10191  Biso   1.000  H
  H177     1.0000 0.42614  0.32401  0.00981  Biso   1.000  H
  H178     1.0000 0.00370  0.54653  0.64402  Biso   1.000  H
  H179     1.0000 0.13639  0.49246  0.41294  Biso   1.000  H
  H180     1.0000 0.92716  0.32620  0.49913  Biso   1.000  H
  H181     1.0000 0.02400  0.88041  0.15490  Biso   1.000  H
  H182     1.0000 0.14033  0.94051  0.92134  Biso   1.000  H
  H183     1.0000 0.92335  0.10473  0.99954  Biso   1.000  H
  H184     1.0000 0.50126  0.86103  0.38491  Biso   1.000  H
  H185     1.0000 0.64485  0.96027  0.60391  Biso   1.000  H
  H186     1.0000 0.42033  0.10155  0.51119  Biso   1.000  H
  H187     1.0000 0.50579  0.36215  0.13717  Biso   1.000  H
  H188     1.0000 0.37828  0.45282  0.91493  Biso   1.000  H
  H189     1.0000 0.59083  0.60736  0.99880  Biso   1.000  H
  H190     1.0000 0.01410  0.38146  0.37343  Biso   1.000  H
  H191     1.0000 0.88082  0.45225  0.60353  Biso   1.000  H
  H192     1.0000 0.08413  0.59950  0.51889  Biso   1.000  H
  H193     1.0000 0.26639  0.83434  0.51022  Biso   1.000  H
  H194     1.0000 0.50092  0.23690  0.85620  Biso   1.000  H
  H195     1.0000 0.85354  0.46962  0.28074  Biso   1.000  H
  H196     1.0000 0.77482  0.83398  0.04188  Biso   1.000  H
  H197     1.0000 0.01575  0.22309  0.64285  Biso   1.000  H
  H198     1.0000 0.35445  0.45736  0.23314  Biso   1.000  H
  H199     1.0000 0.24945  0.33919  0.48725  Biso   1.000  H
  H200     1.0000 0.99008  0.72424  0.87681  Biso   1.000  H
  H201     1.0000 0.64816  0.92844  0.28214  Biso   1.000  H
  H202     1.0000 0.74673  0.33219  0.99403  Biso   1.000  H
  H203     1.0000 0.48283  0.73717  0.67427  Biso   1.000  H
  H204     1.0000 0.15088  0.97872  0.23950  Biso   1.000  H
  H205     1.0000 0.74616  0.09291  0.49630  Biso   1.000  H
  H206     1.0000 0.47974  0.68515  0.16497  Biso   1.000  H
  H207     1.0000 0.16194  0.45428  0.73700  Biso   1.000  H
  H208     1.0000 0.24355  0.10100  0.99999  Biso   1.000  H
  H209     1.0000 0.98804  0.70030  0.37464  Biso   1.000  H
  H210     1.0000 0.65678  0.47905  0.77586  Biso   1.000  H
  H211     1.0000 0.76355  0.58683  0.50536  Biso   1.000  H
  H212     1.0000 0.01051  0.20486  0.14191  Biso   1.000  H
  H213     1.0000 0.36408  0.97603  0.73877  Biso   1.000  H
  H214     1.0000 0.27564  0.59808  0.97550  Biso   1.000  H
  H215     1.0000 0.53256  0.18180  0.34513  Biso   1.000  H
  H216     1.0000 0.87027  0.92903  0.78318  Biso   1.000  H
  H217     1.0000 0.23008  0.50129  0.35136  Biso   1.000  H
  H218     1.0000 0.37537  0.20022  0.49804  Biso   1.000  H
  H219     1.0000 0.50808  0.30319  0.22874  Biso   1.000  H
  H220     1.0000 0.73640  0.47730  0.15466  Biso   1.000  H
  H221     1.0000 0.87067  0.19946  0.97185  Biso   1.000  H
  H222     1.0000 0.01138  0.33163  0.27383  Biso   1.000  H
  H223     1.0000 0.28182  0.97240  0.36760  Biso   1.000  H
  H224     1.0000 0.12626  0.70078  0.53075  Biso   1.000  H
  H225     1.0000 0.01455  0.82921  0.25040  Biso   1.000  H
  H226     1.0000 0.77605  0.96790  0.14914  Biso   1.000  H
  H227     1.0000 0.64214  0.70038  0.02775  Biso   1.000  H
  H228     1.0000 0.49366  0.80482  0.29097  Biso   1.000  H
  H229     1.0000 0.78529  0.46428  0.65898  Biso   1.000  H
  H230     1.0000 0.63321  0.72238  0.51741  Biso   1.000  H
  H231     1.0000 0.50223  0.61686  0.78994  Biso   1.000  H
  H232     1.0000 0.28343  0.46670  0.86094  Biso   1.000  H
  H233     1.0000 0.14711  0.72584  0.00563  Biso   1.000  H
  H234     1.0000 0.00422  0.59434  0.74365  Biso   1.000  H
  H235     1.0000 0.74357  0.96692  0.65366  Biso   1.000  H
  H236     1.0000 0.88474  0.22211  0.49405  Biso   1.000  H
  H237     1.0000 0.00127  0.09310  0.77919  Biso   1.000  H
  H238     1.0000 0.23634  0.94577  0.86490  Biso   1.000  H
  H239     1.0000 0.37585  0.22734  0.99350  Biso   1.000  H
  H240     1.0000 0.51609  0.10884  0.72561  Biso   1.000  H
  H241     1.0000 0.74054  0.48651  0.86285  Biso   1.000  H
  H242     1.0000 0.84206  0.68113  0.52079  Biso   1.000  H
  H243     1.0000 0.49236  0.82962  0.75487  Biso   1.000  H
  H244     1.0000 0.24316  0.48152  0.64794  Biso   1.000  H
  H245     1.0000 0.35366  0.68338  0.00811  Biso   1.000  H
  H246     1.0000 0.00626  0.80250  0.78906  Biso   1.000  H
  H247     1.0000 0.77934  0.94768  0.86781  Biso   1.000  H
  H248     1.0000 0.66132  0.18403  0.49954  Biso   1.000  H
  H249     1.0000 0.99409  0.30661  0.73250  Biso   1.000  H
  H250     1.0000 0.27829  0.96569  0.65814  Biso   1.000  H
  H251     1.0000 0.16546  0.18561  0.01757  Biso   1.000  H
  H252     1.0000 0.51881  0.33152  0.76870  Biso   1.000  H
  H253     1.0000 0.27887  0.48977  0.14523  Biso   1.000  H
  H254     1.0000 0.16649  0.24668  0.50635  Biso   1.000  H
  H255     1.0000 0.52507  0.08417  0.26985  Biso   1.000  H
  H256     1.0000 0.76967  0.45402  0.36871  Biso   1.000  H
  H257     1.0000 0.66357  0.24163  0.97998  Biso   1.000  H
  H258     1.0000 0.02271  0.12134  0.23037  Biso   1.000  H
  H259     1.0000 0.24103  0.96585  0.15478  Biso   1.000  H
  H260     1.0000 0.34525  0.74409  0.51858  Biso   1.000  H
  H261     1.0000 0.00065  0.61531  0.28884  Biso   1.000  H
  H262     1.0000 0.73590  0.94782  0.36680  Biso   1.000  H
  H263     1.0000 0.85989  0.74243  0.04748  Biso   1.000  H
  H264     1.0000 0.49809  0.58913  0.24593  Biso   1.000  H
  H265     1.0000 0.01980  0.18021  0.85691  Biso   1.000  H
  H266     1.0000 0.86144  0.95678  0.24053  Biso   1.000  H
  H267     1.0000 0.23430  0.81204  0.00723  Biso   1.000  H
  H268     1.0000 0.51779  0.19683  0.63812  Biso   1.000  H
  H269     1.0000 0.36623  0.96919  0.27644  Biso   1.000  H
  H270     1.0000 0.72617  0.80205  0.51396  Biso   1.000  H
  H271     1.0000 0.49566  0.69445  0.87899  Biso   1.000  H
  H272     1.0000 0.64536  0.47403  0.23818  Biso   1.000  H
  H273     1.0000 0.28967  0.31101  0.99215  Biso   1.000  H
  H274     1.0000 0.98452  0.68424  0.66310  Biso   1.000  H
  H275     1.0000 0.14100  0.47615  0.27078  Biso   1.000  H
  H276     1.0000 0.79052  0.30005  0.50181  Biso   1.000  H
  H277     1.0000 0.01622  0.74077  0.16842  Biso   1.000  H
  H278     1.0000 0.15304  0.95214  0.78235  Biso   1.000  H
  H279     1.0000 0.78457  0.11728  0.00194  Biso   1.000  H
  H280     1.0000 0.48878  0.72180  0.38351  Biso   1.000  H
  H281     1.0000 0.65331  0.95930  0.74270  Biso   1.000  H
  H282     1.0000 0.28377  0.11786  0.50972  Biso   1.000  H
  H283     1.0000 0.50739  0.22186  0.13313  Biso   1.000  H
  H284     1.0000 0.36957  0.46325  0.77472  Biso   1.000  H
  H285     1.0000 0.72671  0.62170  0.02734  Biso   1.000  H
  H286     1.0000 0.04303  0.24452  0.35823  Biso   1.000  H
  H287     1.0000 0.87462  0.46319  0.74408  Biso   1.000  H
  H288     1.0000 0.22137  0.62732  0.50429  Biso   1.000  H
  H289     1.0000 0.10956  0.19138  0.01604  Biso   1.000  H
  H290     1.0000 0.01801  0.06482  0.23078  Biso   1.000  H
  H291     1.0000 0.24128  0.96819  0.09919  Biso   1.000  H
  H292     1.0000 0.60859  0.18389  0.49164  Biso   1.000  H
  H293     1.0000 0.53534  0.03034  0.27945  Biso   1.000  H
  H294     1.0000 0.73236  0.95873  0.42250  Biso   1.000  H
  H295     1.0000 0.40810  0.68334  0.02002  Biso   1.000  H
  H296     1.0000 0.49723  0.53424  0.24239  Biso   1.000  H
  H297     1.0000 0.28212  0.48469  0.09297  Biso   1.000  H
  H298     1.0000 0.89513  0.68446  0.52083  Biso   1.000  H
  H299     1.0000 0.00738  0.56230  0.28554  Biso   1.000  H
  H300     1.0000 0.77174  0.44882  0.42552  Biso   1.000  H
  H301     1.0000 0.91012  0.73994  0.04106  Biso   1.000  H
  H302     1.0000 0.00987  0.85410  0.78736  Biso   1.000  H
  H303     1.0000 0.77939  0.96338  0.92120  Biso   1.000  H
  H304     1.0000 0.39749  0.74225  0.52544  Biso   1.000  H
  H305     1.0000 0.50638  0.87990  0.74655  Biso   1.000  H
  H306     1.0000 0.27662  0.96738  0.60313  Biso   1.000  H
  H307     1.0000 0.60834  0.23778  0.99263  Biso   1.000  H
  H308     1.0000 0.51665  0.38197  0.77495  Biso   1.000  H
  H309     1.0000 0.73450  0.49043  0.91795  Biso   1.000  H
  H310     1.0000 0.11635  0.24462  0.51135  Biso   1.000  H
  H311     1.0000 0.00631  0.35962  0.73594  Biso   1.000  H
  H312     1.0000 0.23989  0.47963  0.59426  Biso   1.000  H
  H313     1.0000 0.23557  0.94877  0.92120  Biso   1.000  H
  H314     1.0000 0.93048  0.19577  0.97021  Biso   1.000  H
  H315     1.0000 0.02109  0.88352  0.25067  Biso   1.000  H
  H316     1.0000 0.74274  0.96481  0.60010  Biso   1.000  H
  H317     1.0000 0.42860  0.19741  0.49559  Biso   1.000  H
  H318     1.0000 0.49933  0.85538  0.28846  Biso   1.000  H
  H319     1.0000 0.28342  0.45993  0.91386  Biso   1.000  H
  H320     1.0000 0.58535  0.69892  0.02142  Biso   1.000  H
  H321     1.0000 0.50694  0.35311  0.23376  Biso   1.000  H
  H322     1.0000 0.78517  0.46135  0.60630  Biso   1.000  H
  H323     1.0000 0.07183  0.69421  0.52513  Biso   1.000  H
  H324     1.0000 0.01108  0.38216  0.27599  Biso   1.000  H
  H325     1.0000 0.78063  0.96479  0.09682  Biso   1.000  H
  H326     1.0000 0.09361  0.72851  0.00837  Biso   1.000  H
  H327     1.0000 0.99398  0.03343  0.78285  Biso   1.000  H
  H328     1.0000 0.27984  0.97154  0.42087  Biso   1.000  H
  H329     1.0000 0.58173  0.72677  0.52786  Biso   1.000  H
  H330     1.0000 0.51311  0.05951  0.72594  Biso   1.000  H
  H331     1.0000 0.73776  0.47357  0.10140  Biso   1.000  H
  H332     1.0000 0.42777  0.22945  0.00682  Biso   1.000  H
  H333     1.0000 0.51247  0.56434  0.78499  Biso   1.000  H
  H334     1.0000 0.23101  0.49972  0.40654  Biso   1.000  H
  H335     1.0000 0.93849  0.23010  0.49479  Biso   1.000  H
  H336     1.0000 0.01537  0.54093  0.73704  Biso   1.000  H
  H337     1.0000 0.03444  0.18136  0.91034  Biso   1.000  H
  H338     1.0000 0.91780  0.96645  0.23715  Biso   1.000  H
  H339     1.0000 0.23601  0.86661  0.00556  Biso   1.000  H
  H340     1.0000 0.51824  0.19477  0.58460  Biso   1.000  H
  H341     1.0000 0.42020  0.96800  0.27401  Biso   1.000  H
  H342     1.0000 0.72875  0.85772  0.51538  Biso   1.000  H
  H343     1.0000 0.50261  0.69076  0.93368  Biso   1.000  H
  H344     1.0000 0.59074  0.46383  0.23764  Biso   1.000  H
  H345     1.0000 0.28900  0.36428  0.00184  Biso   1.000  H
  H346     1.0000 0.98063  0.68461  0.61062  Biso   1.000  H
  H347     1.0000 0.09024  0.47278  0.27530  Biso   1.000  H
  H348     1.0000 0.78713  0.35497  0.51211  Biso   1.000  H
  H349     1.0000 0.01681  0.74522  0.11274  Biso   1.000  H
  H350     1.0000 0.09972  0.95670  0.78397  Biso   1.000  H
  H351     1.0000 0.78379  0.06400  0.01218  Biso   1.000  H
  H352     1.0000 0.48513  0.72632  0.43909  Biso   1.000  H
  H353     1.0000 0.59742  0.96126  0.74015  Biso   1.000  H
  H354     1.0000 0.28201  0.06459  0.50828  Biso   1.000  H
  H355     1.0000 0.51729  0.22733  0.08095  Biso   1.000  H
  H356     1.0000 0.42417  0.46450  0.77413  Biso   1.000  H
  H357     1.0000 0.73111  0.56813  0.02667  Biso   1.000  H
  H358     1.0000 0.04134  0.24473  0.41245  Biso   1.000  H
  H359     1.0000 0.92813  0.45725  0.73972  Biso   1.000  H
  H360     1.0000 0.22554  0.57320  0.49268  Biso   1.000  H
  H361     1.0000 0.98159  0.69570  0.42969  Biso   1.000  H
  H362     1.0000 0.42011  0.97176  0.73696  Biso   1.000  H
  H363     1.0000 0.74234  0.38701  0.00188  Biso   1.000  H
  H364     1.0000 0.48376  0.68519  0.11567  Biso   1.000  H
  H365     1.0000 0.92274  0.93164  0.78590  Biso   1.000  H
  H366     1.0000 0.24458  0.39369  0.49333  Biso   1.000  H
  H367     1.0000 0.52856  0.18619  0.39907  Biso   1.000  H
  H368     1.0000 0.10584  0.45329  0.73491  Biso   1.000  H
  H369     1.0000 0.77845  0.88615  0.02578  Biso   1.000  H
  H370     1.0000 0.00499  0.19962  0.08810  Biso   1.000  H
  H371     1.0000 0.60145  0.47183  0.77470  Biso   1.000  H
  H372     1.0000 0.27284  0.88803  0.50386  Biso   1.000  H
  H373     1.0000 0.01773  0.22979  0.58859  Biso   1.000  H
  H374     1.0000 0.59549  0.92276  0.28632  Biso   1.000  H
  H375     1.0000 0.27335  0.54253  0.97930  Biso   1.000  H
  H376     1.0000 0.49636  0.23577  0.90882  Biso   1.000  H
  H377     1.0000 0.09833  0.98464  0.23389  Biso   1.000  H
  H378     1.0000 0.76640  0.53229  0.50316  Biso   1.000  H
  H379     1.0000 0.48047  0.73277  0.61922  Biso   1.000  H
  H380     1.0000 0.91117  0.46497  0.28168  Biso   1.000  H
  H381     1.0000 0.23896  0.04860  0.00595  Biso   1.000  H
  H382     1.0000 0.99096  0.72625  0.93266  Biso   1.000  H
  H383     1.0000 0.40524  0.44015  0.23695  Biso   1.000  H
  H384     1.0000 0.74313  0.04116  0.49439  Biso   1.000  H
  H385     1.0000 0.23043  0.46345  0.32755  Biso   1.000  H
  H386     1.0000 0.29301  0.14857  0.46931  Biso   1.000  H
  H387     1.0000 0.48497  0.27242  0.22528  Biso   1.000  H
  H388     1.0000 0.68085  0.44082  0.23150  Biso   1.000  H
  H389     1.0000 0.84368  0.19858  0.01255  Biso   1.000  H
  H390     1.0000 0.00326  0.24459  0.32987  Biso   1.000  H
  H391     1.0000 0.28245  0.94043  0.33176  Biso   1.000  H
  H392     1.0000 0.15636  0.71168  0.50718  Biso   1.000  H
  H393     1.0000 0.04712  0.74752  0.20493  Biso   1.000  H
  H394     1.0000 0.77966  0.93826  0.17979  Biso   1.000  H
  H395     1.0000 0.71183  0.64697  0.06651  Biso   1.000  H
  H396     1.0000 0.45657  0.77225  0.30453  Biso   1.000  H
  H397     1.0000 0.79821  0.49808  0.69082  Biso   1.000  H
  H398     1.0000 0.71297  0.76640  0.54940  Biso   1.000  H
  H399     1.0000 0.46640  0.64229  0.79598  Biso   1.000  H
  H400     1.0000 0.34111  0.49680  0.78480  Biso   1.000  H
  H401     1.0000 0.22688  0.78013  0.96734  Biso   1.000  H
  H402     1.0000 0.03199  0.62953  0.74104  Biso   1.000  H
  H403     1.0000 0.73179  0.92688  0.68497  Biso   1.000  H
  H404     1.0000 0.79780  0.27324  0.53611  Biso   1.000  H
  H405     1.0000 0.05003  0.17399  0.82109  Biso   1.000  H
  H406     1.0000 0.22697  0.98475  0.83726  Biso   1.000  H
  H407     1.0000 0.29999  0.27926  0.96097  Biso   1.000  H
  H408     1.0000 0.48871  0.13881  0.72235  Biso   1.000  H
  H409     1.0000 0.27176  0.45027  0.17373  Biso   1.000  H
  H410     1.0000 0.19320  0.25039  0.46803  Biso   1.000  H
  H411     1.0000 0.48846  0.16967  0.32206  Biso   1.000  H
  H412     1.0000 0.82560  0.43720  0.28017  Biso   1.000  H
  H413     1.0000 0.69712  0.25244  0.94755  Biso   1.000  H
  H414     1.0000 0.98315  0.15136  0.22709  Biso   1.000  H
  H415     1.0000 0.18847  0.01222  0.22928  Biso   1.000  H
  H416     1.0000 0.26937  0.79847  0.48591  Biso   1.000  H
  H417     1.0000 0.97105  0.64413  0.28863  Biso   1.000  H
  H418     1.0000 0.73792  0.91926  0.33556  Biso   1.000  H
  H419     1.0000 0.82141  0.75241  0.07812  Biso   1.000  H
  H420     1.0000 0.46748  0.61849  0.25323  Biso   1.000  H
  H421     1.0000 0.73221  0.51762  0.83369  Biso   1.000  H
  H422     1.0000 0.75606  0.61739  0.53484  Biso   1.000  H
  H423     1.0000 0.52740  0.79007  0.74025  Biso   1.000  H
  H424     1.0000 0.18536  0.48852  0.73272  Biso   1.000  H
  H425     1.0000 0.33074  0.68354  0.97086  Biso   1.000  H
  H426     1.0000 0.02863  0.72442  0.84616  Biso   1.000  H
  H427     1.0000 0.84493  0.96906  0.78437  Biso   1.000  H
  H428     1.0000 0.73936  0.12812  0.53436  Biso   1.000  H
  H429     1.0000 0.03086  0.28036  0.73312  Biso   1.000  H
  H430     1.0000 0.33922  0.93335  0.73278  Biso   1.000  H
  H431     1.0000 0.18856  0.18607  0.97515  Biso   1.000  H
  H432     1.0000 0.48132  0.24294  0.82190  Biso   1.000  H
  H433     1.0000 0.28228  0.99694  0.68967  Biso   1.000  H
  H434     1.0000 0.74071  0.29235  0.02486  Biso   1.000  H
  H435     1.0000 0.02592  0.69254  0.34857  Biso   1.000  H
  H436     1.0000 0.78060  0.91716  0.83799  Biso   1.000  H
  H437     1.0000 0.25224  0.30793  0.51883  Biso   1.000  H
  H438     1.0000 0.51001  0.68386  0.19655  Biso   1.000  H
  H439     1.0000 0.24863  0.44982  0.67302  Biso   1.000  H
  H440     1.0000 0.78423  0.79773  0.00726  Biso   1.000  H
  H441     1.0000 0.55599  0.12492  0.27212  Biso   1.000  H
  H442     1.0000 0.68884  0.44561  0.78829  Biso   1.000  H
  H443     1.0000 0.31632  0.74971  0.55151  Biso   1.000  H
  H444     1.0000 0.04783  0.19458  0.16987  Biso   1.000  H
  H445     1.0000 0.67682  0.96814  0.28764  Biso   1.000  H
  H446     1.0000 0.26888  0.62345  0.01863  Biso   1.000  H
  H447     1.0000 0.98073  0.22323  0.67416  Biso   1.000  H
  H448     1.0000 0.23389  0.93642  0.19075  Biso   1.000  H
  H449     1.0000 0.81452  0.67210  0.48033  Biso   1.000  H
  H450     1.0000 0.54536  0.29345  0.77330  Biso   1.000  H
  H451     1.0000 0.77605  0.49457  0.34260  Biso   1.000  H
  H452     1.0000 0.24203  0.13034  0.03247  Biso   1.000  H
  H453     1.0000 0.44426  0.75208  0.70792  Biso   1.000  H
  H454     1.0000 0.33247  0.50109  0.22508  Biso   1.000  H
  H455     1.0000 0.69743  0.17787  0.46717  Biso   1.000  H
  H456     1.0000 0.96497  0.77472  0.79532  Biso   1.000  H
  H457     1.0000 0.66120  0.72820  0.48451  Biso   1.000  H
  H458     1.0000 0.52554  0.69357  0.84564  Biso   1.000  H
  H459     1.0000 0.84036  0.43280  0.74326  Biso   1.000  H
  H460     1.0000 0.18132  0.73400  0.03721  Biso   1.000  H
  H461     1.0000 0.96109  0.67212  0.69754  Biso   1.000  H
  H462     1.0000 0.28451  0.43075  0.82680  Biso   1.000  H
  H463     1.0000 0.85131  0.21730  0.47110  Biso   1.000  H
  H464     1.0000 0.97366  0.12554  0.78219  Biso   1.000  H
  H465     1.0000 0.68772  0.99089  0.73867  Biso   1.000  H
  H466     1.0000 0.34388  0.22789  0.02682  Biso   1.000  H
  H467     1.0000 0.54984  0.19061  0.67052  Biso   1.000  H
  H468     1.0000 0.18917  0.91689  0.78308  Biso   1.000  H
  H469     1.0000 0.34290  0.19911  0.53333  Biso   1.000  H
  H470     1.0000 0.53246  0.22091  0.16193  Biso   1.000  H
  H471     1.0000 0.16942  0.51271  0.27118  Biso   1.000  H
  H472     1.0000 0.78550  0.13947  0.96521  Biso   1.000  H
  H473     1.0000 0.04677  0.30680  0.26986  Biso   1.000  H
  H474     1.0000 0.72898  0.50692  0.18354  Biso   1.000  H
  H475     1.0000 0.21642  0.64290  0.54041  Biso   1.000  H
  H476     1.0000 0.97758  0.79855  0.24216  Biso   1.000  H
  H477     1.0000 0.33653  0.00848  0.28721  Biso   1.000  H
  H478     1.0000 0.67832  0.69984  0.99558  Biso   1.000  H
  H479     1.0000 0.52406  0.72148  0.34961  Biso   1.000  H
  H480     1.0000 0.83438  0.99220  0.23720  Biso   1.000  H
  N1       1.0000 0.69332  0.12958  0.50084  Biso   1.000  N
  N2       1.0000 0.48838  0.62722  0.19684  Biso   1.000  N
  N3       1.0000 0.19225  0.46536  0.68088  Biso   1.000  N
  N4       1.0000 0.19100  0.13417  0.00569  Biso   1.000  N
  N5       1.0000 0.99329  0.64564  0.34208  Biso   1.000  N
  N6       1.0000 0.68664  0.48207  0.83239  Biso   1.000  N
  N7       1.0000 0.81346  0.62518  0.51177  Biso   1.000  N
  N8       1.0000 0.01322  0.15011  0.17649  Biso   1.000  N
  N9       1.0000 0.33268  0.96842  0.68753  Biso   1.000  N
  N10      1.0000 0.32416  0.63053  0.99881  Biso   1.000  N
  N11      1.0000 0.52538  0.12460  0.32070  Biso   1.000  N
  N12      1.0000 0.83314  0.94161  0.83595  Biso   1.000  N
  N13      1.0000 0.31583  0.79846  0.51811  Biso   1.000  N
  N14      1.0000 0.51240  0.29077  0.82237  Biso   1.000  N
  N15      1.0000 0.82339  0.46155  0.33550  Biso   1.000  N
  N16      1.0000 0.82694  0.79698  0.04317  Biso   1.000  N
  N17      1.0000 0.00730  0.27584  0.67980  Biso   1.000  N
  N18      1.0000 0.32769  0.47126  0.17912  Biso   1.000  N
  N19      1.0000 0.19878  0.30237  0.49695  Biso   1.000  N
  N20      1.0000 0.99444  0.77293  0.84358  Biso   1.000  N
  N21      1.0000 0.68305  0.94133  0.33545  Biso   1.000  N
  N22      1.0000 0.69471  0.29766  0.98760  Biso   1.000  N
  N23      1.0000 0.48784  0.79439  0.70128  Biso   1.000  N
  N24      1.0000 0.18748  0.97076  0.18669  Biso   1.000  N
  N25      1.0000 0.84019  0.46004  0.69160  Biso   1.000  N
  N26      1.0000 0.66919  0.77270  0.51762  Biso   1.000  N
  N27      1.0000 0.49779  0.64341  0.84414  Biso   1.000  N
  N28      1.0000 0.33628  0.46134  0.82781  Biso   1.000  N
  N29      1.0000 0.18265  0.77999  0.00936  Biso   1.000  N
  N30      1.0000 0.99905  0.62940  0.69211  Biso   1.000  N
  N31      1.0000 0.68794  0.96066  0.68976  Biso   1.000  N
  N32      1.0000 0.84719  0.27312  0.49882  Biso   1.000  N
  N33      1.0000 0.01124  0.12609  0.82720  Biso   1.000  N
  N34      1.0000 0.18461  0.94722  0.83573  Biso   1.000  N
  N35      1.0000 0.34220  0.27914  0.99807  Biso   1.000  N
  N36      1.0000 0.51616  0.14230  0.67299  Biso   1.000  N
  N37      1.0000 0.17677  0.48810  0.32269  Biso   1.000  N
  N38      1.0000 0.33892  0.14845  0.50609  Biso   1.000  N
  N39      1.0000 0.50624  0.27275  0.17229  Biso   1.000  N
  N40      1.0000 0.68139  0.47482  0.18593  Biso   1.000  N
  N41      1.0000 0.83838  0.14849  0.98966  Biso   1.000  N
  N42      1.0000 0.02350  0.29610  0.32572  Biso   1.000  N
  N43      1.0000 0.33453  0.97407  0.33276  Biso   1.000  N
  N44      1.0000 0.16466  0.65318  0.51736  Biso   1.000  N
  N45      1.0000 0.01657  0.79641  0.20025  Biso   1.000  N
  N46      1.0000 0.83078  0.96685  0.18492  Biso   1.000  N
  N47      1.0000 0.67352  0.65100  0.02218  Biso   1.000  N
  N48      1.0000 0.49320  0.77299  0.34840  Biso   1.000  N
  O1       1.0000 0.34460  0.49598  0.99195  Biso   1.000  O
  O2       1.0000 0.01331  0.30618  0.54685  Biso   1.000  O
  O3       1.0000 0.54841  0.93718  0.35791  Biso   1.000  O
  O4       1.0000 0.84613  0.49218  0.50728  Biso   1.000  O
  O5       1.0000 0.51266  0.30864  0.95731  Biso   1.000  O
  O6       1.0000 0.05049  0.97644  0.16399  Biso   1.000  O
  O7       1.0000 0.16490  0.00050  0.00798  Biso   1.000  O
  O8       1.0000 0.49185  0.80198  0.56656  Biso   1.000  O
  O9       1.0000 0.95839  0.45970  0.35098  Biso   1.000  O
  O10      1.0000 0.66871  0.99416  0.51211  Biso   1.000  O
  O11      1.0000 0.00632  0.80049  0.97744  Biso   1.000  O
  O12      1.0000 0.46147  0.44658  0.16598  Biso   1.000  O
  O13      1.0000 0.66948  0.43338  0.00346  Biso   1.000  O
  O14      1.0000 0.98661  0.62428  0.47191  Biso   1.000  O
  O15      1.0000 0.46795  0.96947  0.66555  Biso   1.000  O
  O16      1.0000 0.16725  0.43363  0.49718  Biso   1.000  O
  O17      1.0000 0.49726  0.61593  0.06125  Biso   1.000  O
  O18      1.0000 0.96765  0.95193  0.85583  Biso   1.000  O
  O19      1.0000 0.85340  0.92840  0.00890  Biso   1.000  O
  O20      1.0000 0.51252  0.11701  0.45236  Biso   1.000  O
  O21      1.0000 0.05910  0.45436  0.66340  Biso   1.000  O
  O22      1.0000 0.34596  0.93138  0.51331  Biso   1.000  O
  O23      1.0000 0.00789  0.12579  0.04327  Biso   1.000  O
  O24      1.0000 0.55514  0.47216  0.85051  Biso   1.000  O
  O25      1.0000 0.96516  0.96524  0.16783  Biso   1.000  O
  O26      1.0000 0.16502  0.91648  0.00962  Biso   1.000  O
  O27      1.0000 0.01784  0.11690  0.96147  Biso   1.000  O
  O28      1.0000 0.47013  0.96203  0.34870  Biso   1.000  O
  O29      1.0000 0.66045  0.90886  0.51314  Biso   1.000  O
  O30      1.0000 0.51389  0.11584  0.53796  Biso   1.000  O
  O31      1.0000 0.54568  0.45406  0.16512  Biso   1.000  O
  O32      1.0000 0.35691  0.41750  0.01198  Biso   1.000  O
  O33      1.0000 0.50666  0.61588  0.97780  Biso   1.000  O
  O34      1.0000 0.04324  0.47547  0.34997  Biso   1.000  O
  O35      1.0000 0.85662  0.40873  0.50932  Biso   1.000  O
  O36      1.0000 0.98996  0.61799  0.55605  Biso   1.000  O
  O37      1.0000 0.05171  0.95100  0.85485  Biso   1.000  O
  O38      1.0000 0.85298  0.01202  0.00855  Biso   1.000  O
  O39      1.0000 0.01192  0.81225  0.06100  Biso   1.000  O
  O40      1.0000 0.55266  0.96486  0.66594  Biso   1.000  O
  O41      1.0000 0.35191  0.01666  0.51144  Biso   1.000  O
  O42      1.0000 0.49664  0.79998  0.48176  Biso   1.000  O
  O43      1.0000 0.47136  0.46293  0.85073  Biso   1.000  O
  O44      1.0000 0.66307  0.51595  0.00891  Biso   1.000  O
  O45      1.0000 0.52379  0.30159  0.04053  Biso   1.000  O
  O46      1.0000 0.97377  0.45548  0.66624  Biso   1.000  O
  O47      1.0000 0.15777  0.51723  0.50660  Biso   1.000  O
  O48      1.0000 0.03038  0.31261  0.46130  Biso   1.000  O
  O49      1.0000 0.00612  0.92940  0.17642  Biso   1.000  O
  O50      1.0000 0.16519  0.95714  0.96812  Biso   1.000  O
  O51      1.0000 0.97115  0.12578  0.99526  Biso   1.000  O
  O52      1.0000 0.49529  0.91049  0.35884  Biso   1.000  O
  O53      1.0000 0.66686  0.95265  0.55371  Biso   1.000  O
  O54      1.0000 0.47199  0.12034  0.49717  Biso   1.000  O
  O55      1.0000 0.50807  0.41031  0.16501  Biso   1.000  O
  O56      1.0000 0.35095  0.44675  0.96269  Biso   1.000  O
  O57      1.0000 0.54338  0.62090  0.01996  Biso   1.000  O
  O58      1.0000 0.00525  0.42833  0.35138  Biso   1.000  O
  O59      1.0000 0.85434  0.45290  0.55255  Biso   1.000  O
  O60      1.0000 0.03175  0.61994  0.50824  Biso   1.000  O
  O61      1.0000 0.01014  0.99087  0.85349  Biso   1.000  O
  O62      1.0000 0.85223  0.97006  0.04891  Biso   1.000  O
  O63      1.0000 0.04881  0.80086  0.01558  Biso   1.000  O
  O64      1.0000 0.51226  0.00635  0.65752  Biso   1.000  O
  O65      1.0000 0.35164  0.96991  0.47103  Biso   1.000  O
  O66      1.0000 0.53620  0.80022  0.52361  Biso   1.000  O
  O67      1.0000 0.50567  0.50864  0.85264  Biso   1.000  O
  O68      1.0000 0.66418  0.47240  0.04902  Biso   1.000  O
  O69      1.0000 0.47498  0.30351  0.00575  Biso   1.000  O
  O70      1.0000 0.01753  0.49389  0.66521  Biso   1.000  O
  O71      1.0000 0.16188  0.47838  0.45788  Biso   1.000  O
  O72      1.0000 0.98030  0.30557  0.49354  Biso   1.000  O
  O73      1.0000 0.01259  0.40945  0.66589  Biso   1.000  O
  O74      1.0000 0.66207  0.95032  0.46994  Biso   1.000  O
  O75      1.0000 0.45820  0.61135  0.01753  Biso   1.000  O
  O76      1.0000 0.51709  0.42440  0.85077  Biso   1.000  O
  O77      1.0000 0.16809  0.96426  0.05326  Biso   1.000  O
  O78      1.0000 0.94783  0.61512  0.51912  Biso   1.000  O
  O79      1.0000 0.50680  0.92494  0.67211  Biso   1.000  O
  O80      1.0000 0.84826  0.44558  0.46761  Biso   1.000  O
  O81      1.0000 0.05630  0.11984  0.00858  Biso   1.000  O
  O82      1.0000 0.00455  0.90793  0.85708  Biso   1.000  O
  O83      1.0000 0.35092  0.46914  0.04389  Biso   1.000  O
  O84      1.0000 0.55762  0.11538  0.49488  Biso   1.000  O
  O85      1.0000 0.99215  0.51071  0.35378  Biso   1.000  O
  O86      1.0000 0.34973  0.97733  0.55315  Biso   1.000  O
  O87      1.0000 0.55861  0.30803  0.99303  Biso   1.000  O
  O88      1.0000 0.49926  0.49501  0.16830  Biso   1.000  O
  O89      1.0000 0.85181  0.96259  0.96796  Biso   1.000  O
  O90      1.0000 0.06128  0.30973  0.51770  Biso   1.000  O
  O91      1.0000 0.51703  0.99224  0.35320  Biso   1.000  O
  O92      1.0000 0.16783  0.46865  0.54566  Biso   1.000  O
  O93      1.0000 0.96310  0.81089  0.02193  Biso   1.000  O
  O94      1.0000 0.00408  0.01425  0.16324  Biso   1.000  O
  O95      1.0000 0.66500  0.47664  0.96537  Biso   1.000  O
  O96      1.0000 0.45246  0.80582  0.52594  Biso   1.000  O
  O97      1.0000 0.47682  0.16888  0.49592  Biso   1.000  O
  O98      1.0000 0.49990  0.40650  0.21428  Biso   1.000  O
  O99      1.0000 0.20964  0.48328  0.45808  Biso   1.000  O
  O100     1.0000 0.97532  0.17397  0.99245  Biso   1.000  O
  O101     1.0000 0.00213  0.42936  0.30203  Biso   1.000  O
  O102     1.0000 0.71334  0.47190  0.05137  Biso   1.000  O
  O103     1.0000 0.02914  0.66721  0.51835  Biso   1.000  O
  O104     1.0000 0.01215  0.93330  0.22402  Biso   1.000  O
  O105     1.0000 0.30193  0.97572  0.47002  Biso   1.000  O
  O106     1.0000 0.53882  0.66906  0.02295  Biso   1.000  O
  O107     1.0000 0.50009  0.90525  0.31059  Biso   1.000  O
  O108     1.0000 0.80367  0.97205  0.04992  Biso   1.000  O
  O109     1.0000 0.53235  0.75220  0.52420  Biso   1.000  O
  O110     1.0000 0.50558  0.51384  0.80462  Biso   1.000  O
  O111     1.0000 0.80556  0.45198  0.55823  Biso   1.000  O
  O112     1.0000 0.04448  0.75282  0.01773  Biso   1.000  O
  O113     1.0000 0.01948  0.49587  0.71303  Biso   1.000  O
  O114     1.0000 0.30151  0.44753  0.95897  Biso   1.000  O
  O115     1.0000 0.98229  0.25699  0.49523  Biso   1.000  O
  O116     1.0000 0.01089  0.98865  0.80514  Biso   1.000  O
  O117     1.0000 0.71686  0.95666  0.55157  Biso   1.000  O
  O118     1.0000 0.47585  0.25627  0.99924  Biso   1.000  O
  O119     1.0000 0.51782  0.01208  0.70672  Biso   1.000  O
  O120     1.0000 0.21265  0.95363  0.96929  Biso   1.000  O
  O121     1.0000 0.05947  0.45138  0.71231  Biso   1.000  O
  O122     1.0000 0.71807  0.99144  0.50505  Biso   1.000  O
  O123     1.0000 0.49426  0.66569  0.06253  Biso   1.000  O
  O124     1.0000 0.55382  0.47909  0.80108  Biso   1.000  O
  O125     1.0000 0.21507  0.00066  0.00985  Biso   1.000  O
  O126     1.0000 0.98202  0.67264  0.47719  Biso   1.000  O
  O127     1.0000 0.46737  0.97412  0.71302  Biso   1.000  O
  O128     1.0000 0.79738  0.48677  0.51347  Biso   1.000  O
  O129     1.0000 0.01282  0.17453  0.03961  Biso   1.000  O
  O130     1.0000 0.96672  0.95038  0.80745  Biso   1.000  O
  O131     1.0000 0.29667  0.49416  0.99544  Biso   1.000  O
  O132     1.0000 0.51815  0.16577  0.45250  Biso   1.000  O
  O133     1.0000 0.95668  0.46658  0.30382  Biso   1.000  O
  O134     1.0000 0.29767  0.93508  0.51199  Biso   1.000  O
  O135     1.0000 0.51708  0.26009  0.95533  Biso   1.000  O
  O136     1.0000 0.45913  0.44824  0.21421  Biso   1.000  O
  O137     1.0000 0.80414  0.92971  0.00871  Biso   1.000  O
  O138     1.0000 0.01548  0.25741  0.54197  Biso   1.000  O
  O139     1.0000 0.54904  0.93106  0.30949  Biso   1.000  O
  O140     1.0000 0.21571  0.43937  0.49298  Biso   1.000  O
  O141     1.0000 0.99682  0.75282  0.98209  Biso   1.000  O
  O142     1.0000 0.05106  0.97517  0.21283  Biso   1.000  O
  O143     1.0000 0.71838  0.43514  0.00387  Biso   1.000  O
  O144     1.0000 0.49031  0.75287  0.56943  Biso   1.000  O
  O145     1.0000 0.54580  0.44976  0.21488  Biso   1.000  O
  O146     1.0000 0.20538  0.52264  0.50222  Biso   1.000  O
  O147     1.0000 0.51594  0.16400  0.53491  Biso   1.000  O
  O148     1.0000 0.03919  0.47326  0.30247  Biso   1.000  O
  O149     1.0000 0.71221  0.52072  0.01061  Biso   1.000  O
  O150     1.0000 0.01888  0.16503  0.95720  Biso   1.000  O
  O151     1.0000 0.96366  0.96869  0.21579  Biso   1.000  O
  O152     1.0000 0.30320  0.01882  0.50869  Biso   1.000  O
  O153     1.0000 0.98624  0.66641  0.56070  Biso   1.000  O
  O154     1.0000 0.46880  0.95438  0.30138  Biso   1.000  O
  O155     1.0000 0.80520  0.01435  0.01196  Biso   1.000  O
  O156     1.0000 0.49928  0.66309  0.98021  Biso   1.000  O
  O157     1.0000 0.47281  0.46821  0.80220  Biso   1.000  O
  O158     1.0000 0.80904  0.40323  0.52068  Biso   1.000  O
  O159     1.0000 0.49006  0.75195  0.48594  Biso   1.000  O
  O160     1.0000 0.97560  0.45085  0.71527  Biso   1.000  O
  O161     1.0000 0.30645  0.41383  0.01212  Biso   1.000  O
  O162     1.0000 0.01283  0.76396  0.06662  Biso   1.000  O
  O163     1.0000 0.05153  0.94194  0.80584  Biso   1.000  O
  O164     1.0000 0.70881  0.90672  0.51597  Biso   1.000  O
  O165     1.0000 0.02640  0.26265  0.45747  Biso   1.000  O
  O166     1.0000 0.55079  0.96575  0.71564  Biso   1.000  O
  O167     1.0000 0.21474  0.91382  0.01114  Biso   1.000  O
  O168     1.0000 0.51672  0.25279  0.03750  Biso   1.000  O
  O169     1.0000 0.00418  0.01664  0.21060  Biso   1.000  O
  O170     1.0000 0.21533  0.95901  0.05103  Biso   1.000  O
  O171     1.0000 0.05857  0.16750  0.00625  Biso   1.000  O
  O172     1.0000 0.52096  0.98567  0.30572  Biso   1.000  O
  O173     1.0000 0.71252  0.94749  0.46728  Biso   1.000  O
  O174     1.0000 0.55988  0.16428  0.49458  Biso   1.000  O
  O175     1.0000 0.49778  0.49131  0.21629  Biso   1.000  O
  O176     1.0000 0.30374  0.46291  0.04554  Biso   1.000  O
  O177     1.0000 0.45598  0.66098  0.02260  Biso   1.000  O
  O178     1.0000 0.99364  0.51454  0.30385  Biso   1.000  O
  O179     1.0000 0.79870  0.44499  0.47463  Biso   1.000  O
  O180     1.0000 0.94628  0.66291  0.51914  Biso   1.000  O
  O181     1.0000 0.00306  0.90528  0.80903  Biso   1.000  O
  O182     1.0000 0.80293  0.96869  0.96837  Biso   1.000  O
  O183     1.0000 0.96242  0.76288  0.03328  Biso   1.000  O
  O184     1.0000 0.50548  0.92891  0.72145  Biso   1.000  O
  O185     1.0000 0.30135  0.97688  0.55158  Biso   1.000  O
  O186     1.0000 0.44627  0.75721  0.52916  Biso   1.000  O
  O187     1.0000 0.51987  0.42992  0.80296  Biso   1.000  O
  O188     1.0000 0.71341  0.47963  0.96489  Biso   1.000  O
  O189     1.0000 0.55969  0.25951  0.99967  Biso   1.000  O
  O190     1.0000 0.01857  0.40982  0.71441  Biso   1.000  O
  O191     1.0000 0.21503  0.48021  0.54406  Biso   1.000  O
  O192     1.0000 0.06327  0.26354  0.50409  Biso   1.000  O
