data_image0
_cell_length_a       47.2149
_cell_length_b       47.2035
_cell_length_c       46.5423
_cell_angle_alpha    90
_cell_angle_beta     90
_cell_angle_gamma    90

_symmetry_space_group_name_H-M    "P 1"
_symmetry_int_tables_number       1

loop_
  _symmetry_equiv_pos_as_xyz
  'x, y, z'

loop_
  _atom_site_label
  _atom_site_occupancy
  _atom_site_fract_x
  _atom_site_fract_y
  _atom_site_fract_z
  _atom_site_thermal_displace_type
  _atom_site_B_iso_or_equiv
  _atom_site_type_symbol
  C1       1.0000 0.53364  0.97478  0.33854  Biso   1.000  C
  C2       1.0000 0.32354  0.54629  0.01599  Biso   1.000  C
  C3       1.0000 0.99501  0.30211  0.57247  Biso   1.000  C
  C4       1.0000 0.03171  0.99522  0.20201  Biso   1.000  C
  C5       1.0000 0.81859  0.53368  0.53290  Biso   1.000  C
  C6       1.0000 0.49189  0.29862  0.96076  Biso   1.000  C
  C7       1.0000 0.94134  0.48550  0.33946  Biso   1.000  C
  C8       1.0000 0.17258  0.04653  0.02233  Biso   1.000  C
  C9       1.0000 0.50688  0.80230  0.58286  Biso   1.000  C
  C10      1.0000 0.44381  0.47828  0.19745  Biso   1.000  C
  C11      1.0000 0.67317  0.03639  0.49993  Biso   1.000  C
  C12      1.0000 0.99189  0.80447  0.97208  Biso   1.000  C
  C13      1.0000 0.45314  0.97596  0.71036  Biso   1.000  C
  C14      1.0000 0.68109  0.41944  0.02136  Biso   1.000  C
  C15      1.0000 0.99945  0.66051  0.46854  Biso   1.000  C
  C16      1.0000 0.95200  0.98984  0.83923  Biso   1.000  C
  C17      1.0000 0.18043  0.43013  0.51783  Biso   1.000  C
  C18      1.0000 0.49449  0.66489  0.07658  Biso   1.000  C
  C19      1.0000 0.05653  0.47368  0.70009  Biso   1.000  C
  C20      1.0000 0.81073  0.92059  0.00896  Biso   1.000  C
  C21      1.0000 0.49326  0.16056  0.46002  Biso   1.000  C
  C22      1.0000 0.55882  0.48773  0.83800  Biso   1.000  C
  C23      1.0000 0.32088  0.92755  0.53227  Biso   1.000  C
  C24      1.0000 0.98593  0.16555  0.07735  Biso   1.000  C
  C25      1.0000 0.31107  0.03574  0.53986  Biso   1.000  C
  C26      1.0000 0.48548  0.30053  0.06947  Biso   1.000  C
  C27      1.0000 0.05118  0.49116  0.33682  Biso   1.000  C
  C28      1.0000 0.80816  0.02943  0.00306  Biso   1.000  C
  C29      1.0000 0.00046  0.31008  0.46350  Biso   1.000  C
  C30      1.0000 0.55344  0.48677  0.19953  Biso   1.000  C
  C31      1.0000 0.18348  0.54011  0.51570  Biso   1.000  C
  C32      1.0000 0.01059  0.81039  0.07780  Biso   1.000  C
  C33      1.0000 0.42303  0.98280  0.34303  Biso   1.000  C
  C34      1.0000 0.68440  0.52967  0.02469  Biso   1.000  C
  C35      1.0000 0.50177  0.79565  0.47281  Biso   1.000  C
  C36      1.0000 0.92374  0.98109  0.19853  Biso   1.000  C
  C37      1.0000 0.67724  0.92573  0.50422  Biso   1.000  C
  C38      1.0000 0.50817  0.65572  0.97047  Biso   1.000  C
  C39      1.0000 0.95075  0.49189  0.70167  Biso   1.000  C
  C40      1.0000 0.17401  0.94026  0.04087  Biso   1.000  C
  C41      1.0000 0.00443  0.66139  0.57630  Biso   1.000  C
  C42      1.0000 0.44961  0.47553  0.83741  Biso   1.000  C
  C43      1.0000 0.81560  0.42671  0.51772  Biso   1.000  C
  C44      1.0000 0.98378  0.16135  0.96714  Biso   1.000  C
  C45      1.0000 0.56206  0.98765  0.69619  Biso   1.000  C
  C46      1.0000 0.31871  0.43799  0.02965  Biso   1.000  C
  C47      1.0000 0.49020  0.16165  0.56794  Biso   1.000  C
  C48      1.0000 0.05779  0.97749  0.84730  Biso   1.000  C
  C49      1.0000 0.00737  0.03600  0.84029  Biso   1.000  C
  C50      1.0000 0.80667  0.97710  0.06185  Biso   1.000  C
  C51      1.0000 0.05273  0.81158  0.01428  Biso   1.000  C
  C52      1.0000 0.49981  0.04002  0.69703  Biso   1.000  C
  C53      1.0000 0.31126  0.98401  0.48359  Biso   1.000  C
  C54      1.0000 0.55854  0.79467  0.52377  Biso   1.000  C
  C55      1.0000 0.50344  0.53455  0.83776  Biso   1.000  C
  C56      1.0000 0.68252  0.47291  0.07609  Biso   1.000  C
  C57      1.0000 0.43484  0.30237  0.01341  Biso   1.000  C
  C58      1.0000 0.01339  0.53812  0.69952  Biso   1.000  C
  C59      1.0000 0.17916  0.48583  0.46370  Biso   1.000  C
  C60      1.0000 0.94216  0.30483  0.51640  Biso   1.000  C
  C61      1.0000 0.98330  0.93248  0.20268  Biso   1.000  C
  C62      1.0000 0.17380  0.98407  0.98102  Biso   1.000  C
  C63      1.0000 0.93161  0.16135  0.02477  Biso   1.000  C
  C64      1.0000 0.47440  0.92319  0.34337  Biso   1.000  C
  C65      1.0000 0.67910  0.98006  0.55834  Biso   1.000  C
  C66      1.0000 0.43880  0.16368  0.51821  Biso   1.000  C
  C67      1.0000 0.50133  0.42576  0.20005  Biso   1.000  C
  C68      1.0000 0.32246  0.48490  0.96667  Biso   1.000  C
  C69      1.0000 0.55514  0.65490  0.02979  Biso   1.000  C
  C70      1.0000 0.00079  0.43525  0.33681  Biso   1.000  C
  C71      1.0000 0.81745  0.47389  0.57888  Biso   1.000  C
  C72      1.0000 0.05525  0.66456  0.51858  Biso   1.000  C
  C73      1.0000 0.98971  0.54231  0.33517  Biso   1.000  C
  C74      1.0000 0.32103  0.97538  0.59030  Biso   1.000  C
  C75      1.0000 0.54265  0.30024  0.02342  Biso   1.000  C
  C76      1.0000 0.49405  0.53572  0.20160  Biso   1.000  C
  C77      1.0000 0.81350  0.97139  0.95330  Biso   1.000  C
  C78      1.0000 0.05074  0.30464  0.52130  Biso   1.000  C
  C79      1.0000 0.48628  0.03110  0.34114  Biso   1.000  C
  C80      1.0000 0.18394  0.48439  0.57180  Biso   1.000  C
  C81      1.0000 0.94607  0.81047  0.03396  Biso   1.000  C
  C82      1.0000 0.96880  0.03901  0.20227  Biso   1.000  C
  C83      1.0000 0.68041  0.47667  0.96579  Biso   1.000  C
  C84      1.0000 0.44882  0.80149  0.53002  Biso   1.000  C
  C85      1.0000 0.99295  0.42937  0.69623  Biso   1.000  C
  C86      1.0000 0.66945  0.98115  0.45067  Biso   1.000  C
  C87      1.0000 0.44873  0.67136  0.01458  Biso   1.000  C
  C88      1.0000 0.50890  0.42645  0.83923  Biso   1.000  C
  C89      1.0000 0.17244  0.00285  0.09027  Biso   1.000  C
  C90      1.0000 0.94916  0.65792  0.52629  Biso   1.000  C
  C91      1.0000 0.51192  0.93188  0.70830  Biso   1.000  C
  C92      1.0000 0.82045  0.48733  0.47124  Biso   1.000  C
  C93      1.0000 0.04063  0.16310  0.01755  Biso   1.000  C
  C94      1.0000 0.99690  0.92812  0.84257  Biso   1.000  C
  C95      1.0000 0.32034  0.50124  0.07352  Biso   1.000  C
  C96      1.0000 0.54801  0.16052  0.51848  Biso   1.000  C
  C97      1.0000 0.67507  0.06863  0.49789  Biso   1.000  C
  C98      1.0000 0.49265  0.66317  0.10939  Biso   1.000  C
  C99      1.0000 0.08897  0.47066  0.70041  Biso   1.000  C
  C100     1.0000 0.17188  0.07842  0.01944  Biso   1.000  C
  C101     1.0000 0.00049  0.66262  0.43627  Biso   1.000  C
  C102     1.0000 0.59024  0.49567  0.83972  Biso   1.000  C
  C103     1.0000 0.82032  0.56615  0.53514  Biso   1.000  C
  C104     1.0000 0.98342  0.16682  0.10954  Biso   1.000  C
  C105     1.0000 0.42101  0.96843  0.71191  Biso   1.000  C
  C106     1.0000 0.32356  0.57925  0.01898  Biso   1.000  C
  C107     1.0000 0.50014  0.15865  0.42992  Biso   1.000  C
  C108     1.0000 0.92066  0.99277  0.83773  Biso   1.000  C
  C109     1.0000 0.32158  0.89547  0.52660  Biso   1.000  C
  C110     1.0000 0.48852  0.29871  0.92823  Biso   1.000  C
  C111     1.0000 0.90987  0.48908  0.34073  Biso   1.000  C
  C112     1.0000 0.80958  0.88920  0.01144  Biso   1.000  C
  C113     1.0000 0.98773  0.30103  0.60440  Biso   1.000  C
  C114     1.0000 0.41169  0.48081  0.19788  Biso   1.000  C
  C115     1.0000 0.17981  0.39898  0.51957  Biso   1.000  C
  C116     1.0000 0.98929  0.80243  0.94012  Biso   1.000  C
  C117     1.0000 0.56544  0.97711  0.33492  Biso   1.000  C
  C118     1.0000 0.67555  0.38705  0.02203  Biso   1.000  C
  C119     1.0000 0.51122  0.80209  0.61512  Biso   1.000  C
  C120     1.0000 0.06225  0.99983  0.20684  Biso   1.000  C
  C121     1.0000 0.80362  0.97608  0.09378  Biso   1.000  C
  C122     1.0000 0.08450  0.81122  0.01718  Biso   1.000  C
  C123     1.0000 0.00654  0.06976  0.83797  Biso   1.000  C
  C124     1.0000 0.30710  0.98729  0.45127  Biso   1.000  C
  C125     1.0000 0.59024  0.79394  0.51725  Biso   1.000  C
  C126     1.0000 0.49991  0.07197  0.69560  Biso   1.000  C
  C127     1.0000 0.68347  0.47176  0.10826  Biso   1.000  C
  C128     1.0000 0.40301  0.30402  0.01259  Biso   1.000  C
  C129     1.0000 0.50338  0.56687  0.83994  Biso   1.000  C
  C130     1.0000 0.17929  0.48562  0.43195  Biso   1.000  C
  C131     1.0000 0.91068  0.30345  0.50915  Biso   1.000  C
  C132     1.0000 0.01308  0.56944  0.70169  Biso   1.000  C
  C133     1.0000 0.17791  0.97748  0.94998  Biso   1.000  C
  C134     1.0000 0.89995  0.16027  0.02575  Biso   1.000  C
  C135     1.0000 0.99065  0.90020  0.20449  Biso   1.000  C
  C136     1.0000 0.68033  0.97674  0.58983  Biso   1.000  C
  C137     1.0000 0.40655  0.16564  0.52066  Biso   1.000  C
  C138     1.0000 0.48046  0.89180  0.34406  Biso   1.000  C
  C139     1.0000 0.32302  0.48059  0.93516  Biso   1.000  C
  C140     1.0000 0.58729  0.65373  0.03208  Biso   1.000  C
  C141     1.0000 0.50019  0.39393  0.19925  Biso   1.000  C
  C142     1.0000 0.81822  0.47189  0.61283  Biso   1.000  C
  C143     1.0000 0.08662  0.66557  0.52038  Biso   1.000  C
  C144     1.0000 0.99619  0.40333  0.33791  Biso   1.000  C
  C145     1.0000 0.32041  0.50968  0.10576  Biso   1.000  C
  C146     1.0000 0.08199  0.30563  0.52656  Biso   1.000  C
  C147     1.0000 0.49305  0.06238  0.33909  Biso   1.000  C
  C148     1.0000 0.81867  0.48971  0.43825  Biso   1.000  C
  C149     1.0000 0.57389  0.29873  0.02828  Biso   1.000  C
  C150     1.0000 0.97128  0.07074  0.20385  Biso   1.000  C
  C151     1.0000 0.17096  0.00231  0.12369  Biso   1.000  C
  C152     1.0000 0.41672  0.80220  0.52804  Biso   1.000  C
  C153     1.0000 0.98770  0.57327  0.33601  Biso   1.000  C
  C154     1.0000 0.66702  0.98599  0.41884  Biso   1.000  C
  C155     1.0000 0.91308  0.80875  0.03658  Biso   1.000  C
  C156     1.0000 0.49159  0.56777  0.20352  Biso   1.000  C
  C157     1.0000 0.68246  0.47727  0.93415  Biso   1.000  C
  C158     1.0000 0.91697  0.65967  0.52395  Biso   1.000  C
  C159     1.0000 0.51665  0.89971  0.70935  Biso   1.000  C
  C160     1.0000 0.18518  0.48337  0.60468  Biso   1.000  C
  C161     1.0000 0.41716  0.67387  0.01093  Biso   1.000  C
  C162     1.0000 0.99210  0.89502  0.84354  Biso   1.000  C
  C163     1.0000 0.81448  0.97641  0.92216  Biso   1.000  C
  C164     1.0000 0.57927  0.16018  0.52325  Biso   1.000  C
  C165     1.0000 0.99079  0.39642  0.69600  Biso   1.000  C
  C166     1.0000 0.32295  0.96861  0.62205  Biso   1.000  C
  C167     1.0000 0.07236  0.16814  0.01552  Biso   1.000  C
  C168     1.0000 0.50903  0.39447  0.83791  Biso   1.000  C
  C169     1.0000 0.01561  0.81108  0.10927  Biso   1.000  C
  C170     1.0000 0.08963  0.97376  0.85093  Biso   1.000  C
  C171     1.0000 0.80848  0.06167  0.00313  Biso   1.000  C
  C172     1.0000 0.49913  0.79695  0.44134  Biso   1.000  C
  C173     1.0000 0.59464  0.98632  0.69488  Biso   1.000  C
  C174     1.0000 0.30994  0.06851  0.53962  Biso   1.000  C
  C175     1.0000 0.49087  0.30102  0.10161  Biso   1.000  C
  C176     1.0000 0.41683  0.47213  0.83730  Biso   1.000  C
  C177     1.0000 0.68574  0.56078  0.02798  Biso   1.000  C
  C178     1.0000 0.00651  0.31031  0.43175  Biso   1.000  C
  C179     1.0000 0.91860  0.49452  0.70018  Biso   1.000  C
  C180     1.0000 0.18324  0.57317  0.51578  Biso   1.000  C
  C181     1.0000 0.98842  0.16204  0.93390  Biso   1.000  C
  C182     1.0000 0.89180  0.98291  0.19737  Biso   1.000  C
  C183     1.0000 0.17355  0.90843  0.04568  Biso   1.000  C
  C184     1.0000 0.48835  0.16200  0.59973  Biso   1.000  C
  C185     1.0000 0.39066  0.98418  0.34592  Biso   1.000  C
  C186     1.0000 0.67844  0.89366  0.50728  Biso   1.000  C
  C187     1.0000 0.50614  0.65623  0.93810  Biso   1.000  C
  C188     1.0000 0.58506  0.48484  0.20049  Biso   1.000  C
  C189     1.0000 0.31496  0.40613  0.03124  Biso   1.000  C
  C190     1.0000 0.00594  0.66508  0.60801  Biso   1.000  C
  C191     1.0000 0.08356  0.49612  0.33800  Biso   1.000  C
  C192     1.0000 0.81542  0.39523  0.51517  Biso   1.000  C
  C193     1.0000 0.84242  0.98312  0.90817  Biso   1.000  C
  C194     1.0000 0.89467  0.83327  0.03308  Biso   1.000  C
  C195     1.0000 0.99096  0.87977  0.87162  Biso   1.000  C
  C196     1.0000 0.35052  0.96883  0.63657  Biso   1.000  C
  C197     1.0000 0.39887  0.82933  0.52656  Biso   1.000  C
  C198     1.0000 0.51598  0.88368  0.68257  Biso   1.000  C
  C199     1.0000 0.65510  0.48105  0.91799  Biso   1.000  C
  C200     1.0000 0.59095  0.32409  0.02466  Biso   1.000  C
  C201     1.0000 0.50661  0.37675  0.86426  Biso   1.000  C
  C202     1.0000 0.15809  0.48038  0.62207  Biso   1.000  C
  C203     1.0000 0.09976  0.33160  0.52441  Biso   1.000  C
  C204     1.0000 0.99282  0.38062  0.66880  Biso   1.000  C
  C205     1.0000 0.14116  0.00531  0.13609  Biso   1.000  C
  C206     1.0000 0.09039  0.14181  0.01862  Biso   1.000  C
  C207     1.0000 0.97349  0.08785  0.17676  Biso   1.000  C
  C208     1.0000 0.63865  0.98137  0.40570  Biso   1.000  C
  C209     1.0000 0.59414  0.13259  0.51687  Biso   1.000  C
  C210     1.0000 0.49222  0.07884  0.36523  Biso   1.000  C
  C211     1.0000 0.34613  0.50432  0.12111  Biso   1.000  C
  C212     1.0000 0.39967  0.64810  0.01105  Biso   1.000  C
  C213     1.0000 0.49189  0.58536  0.17714  Biso   1.000  C
  C214     1.0000 0.84593  0.48835  0.42104  Biso   1.000  C
  C215     1.0000 0.89996  0.63251  0.52238  Biso   1.000  C
  C216     1.0000 0.99212  0.58781  0.36305  Biso   1.000  C
  C217     1.0000 0.10365  0.97419  0.87743  Biso   1.000  C
  C218     1.0000 0.83647  0.07798  0.00692  Biso   1.000  C
  C219     1.0000 0.00800  0.83731  0.12494  Biso   1.000  C
  C220     1.0000 0.60878  0.98649  0.66633  Biso   1.000  C
  C221     1.0000 0.33659  0.08413  0.53368  Biso   1.000  C
  C222     1.0000 0.49555  0.82488  0.42609  Biso   1.000  C
  C223     1.0000 0.39976  0.47213  0.86377  Biso   1.000  C
  C224     1.0000 0.65747  0.57637  0.02811  Biso   1.000  C
  C225     1.0000 0.49523  0.32818  0.11736  Biso   1.000  C
  C226     1.0000 0.90250  0.48640  0.67541  Biso   1.000  C
  C227     1.0000 0.15642  0.58820  0.51585  Biso   1.000  C
  C228     1.0000 0.00125  0.33698  0.41562  Biso   1.000  C
  C229     1.0000 0.87843  0.97871  0.16897  Biso   1.000  C
  C230     1.0000 0.14766  0.89190  0.03654  Biso   1.000  C
  C231     1.0000 0.99344  0.13621  0.91831  Biso   1.000  C
  C232     1.0000 0.37767  0.98371  0.37520  Biso   1.000  C
  C233     1.0000 0.65224  0.87614  0.50949  Biso   1.000  C
  C234     1.0000 0.49086  0.13542  0.61623  Biso   1.000  C
  C235     1.0000 0.60250  0.47704  0.17364  Biso   1.000  C
  C236     1.0000 0.34079  0.39065  0.02504  Biso   1.000  C
  C237     1.0000 0.50657  0.62980  0.92258  Biso   1.000  C
  C238     1.0000 0.09979  0.49436  0.36478  Biso   1.000  C
  C239     1.0000 0.84337  0.37914  0.51355  Biso   1.000  C
  C240     1.0000 0.00586  0.63832  0.62443  Biso   1.000  C
  C241     1.0000 0.60568  0.49287  0.86643  Biso   1.000  C
  C242     1.0000 0.84833  0.58066  0.53590  Biso   1.000  C
  C243     1.0000 0.51358  0.82925  0.63091  Biso   1.000  C
  C244     1.0000 0.10586  0.47315  0.67329  Biso   1.000  C
  C245     1.0000 0.35046  0.59635  0.01750  Biso   1.000  C
  C246     1.0000 0.98706  0.82884  0.92316  Biso   1.000  C
  C247     1.0000 0.90144  0.98866  0.86250  Biso   1.000  C
  C248     1.0000 0.64777  0.08008  0.50716  Biso   1.000  C
  C249     1.0000 0.98521  0.32745  0.61997  Biso   1.000  C
  C250     1.0000 0.40343  0.96589  0.68581  Biso   1.000  C
  C251     1.0000 0.14436  0.09360  0.02160  Biso   1.000  C
  C252     1.0000 0.49153  0.32590  0.91354  Biso   1.000  C
  C253     1.0000 0.39600  0.48602  0.17120  Biso   1.000  C
  C254     1.0000 0.15172  0.38294  0.52088  Biso   1.000  C
  C255     1.0000 0.49770  0.13027  0.41497  Biso   1.000  C
  C256     1.0000 0.89442  0.48606  0.36846  Biso   1.000  C
  C257     1.0000 0.64719  0.37400  0.02587  Biso   1.000  C
  C258     1.0000 0.97908  0.13953  0.12521  Biso   1.000  C
  C259     1.0000 0.08240  0.00149  0.18084  Biso   1.000  C
  C260     1.0000 0.34820  0.87949  0.52781  Biso   1.000  C
  C261     1.0000 0.99880  0.63760  0.41836  Biso   1.000  C
  C262     1.0000 0.58292  0.97844  0.36032  Biso   1.000  C
  C263     1.0000 0.83776  0.87676  0.01497  Biso   1.000  C
  C264     1.0000 0.48928  0.63595  0.12477  Biso   1.000  C
  C265     1.0000 0.00585  0.08596  0.86541  Biso   1.000  C
  C266     1.0000 0.82937  0.97208  0.11273  Biso   1.000  C
  C267     1.0000 0.09981  0.83962  0.02184  Biso   1.000  C
  C268     1.0000 0.49419  0.08649  0.66895  Biso   1.000  C
  C269     1.0000 0.33149  0.98464  0.43165  Biso   1.000  C
  C270     1.0000 0.60445  0.82080  0.51149  Biso   1.000  C
  C271     1.0000 0.50556  0.57995  0.86828  Biso   1.000  C
  C272     1.0000 0.65578  0.47395  0.12477  Biso   1.000  C
  C273     1.0000 0.38987  0.33420  0.01746  Biso   1.000  C
  C274     1.0000 0.01225  0.58580  0.67372  Biso   1.000  C
  C275     1.0000 0.15260  0.48933  0.41752  Biso   1.000  C
  C276     1.0000 0.89376  0.32915  0.50736  Biso   1.000  C
  C277     1.0000 0.99157  0.88513  0.17835  Biso   1.000  C
  C278     1.0000 0.15181  0.97406  0.93321  Biso   1.000  C
  C279     1.0000 0.88718  0.13228  0.01970  Biso   1.000  C
  C280     1.0000 0.48610  0.87518  0.37199  Biso   1.000  C
  C281     1.0000 0.65392  0.97983  0.60939  Biso   1.000  C
  C282     1.0000 0.38922  0.13798  0.52293  Biso   1.000  C
  C283     1.0000 0.49877  0.37951  0.17099  Biso   1.000  C
  C284     1.0000 0.34938  0.47272  0.91811  Biso   1.000  C
  C285     1.0000 0.60303  0.62693  0.03267  Biso   1.000  C
  C286     1.0000 0.99885  0.38590  0.36428  Biso   1.000  C
  C287     1.0000 0.84708  0.47397  0.62652  Biso   1.000  C
  C288     1.0000 0.10280  0.63900  0.51527  Biso   1.000  C
  C289     1.0000 0.34662  0.84863  0.52696  Biso   1.000  C
  C290     1.0000 0.49602  0.32503  0.88205  Biso   1.000  C
  C291     1.0000 0.86310  0.48711  0.36846  Biso   1.000  C
  C292     1.0000 0.83983  0.84617  0.02021  Biso   1.000  C
  C293     1.0000 0.98636  0.32719  0.65221  Biso   1.000  C
  C294     1.0000 0.36615  0.49150  0.17292  Biso   1.000  C
  C295     1.0000 0.15219  0.35156  0.52151  Biso   1.000  C
  C296     1.0000 0.98704  0.82689  0.89240  Biso   1.000  C
  C297     1.0000 0.61402  0.98199  0.35571  Biso   1.000  C
  C298     1.0000 0.64588  0.34259  0.02471  Biso   1.000  C
  C299     1.0000 0.51414  0.83034  0.66234  Biso   1.000  C
  C300     1.0000 0.11366  0.00290  0.18591  Biso   1.000  C
  C301     1.0000 0.64658  0.11306  0.50941  Biso   1.000  C
  C302     1.0000 0.48738  0.63647  0.15707  Biso   1.000  C
  C303     1.0000 0.13652  0.47589  0.67462  Biso   1.000  C
  C304     1.0000 0.14456  0.12481  0.02117  Biso   1.000  C
  C305     1.0000 0.99985  0.63994  0.38658  Biso   1.000  C
  C306     1.0000 0.63637  0.49403  0.86525  Biso   1.000  C
  C307     1.0000 0.84697  0.61252  0.53248  Biso   1.000  C
  C308     1.0000 0.97672  0.14056  0.15665  Biso   1.000  C
  C309     1.0000 0.37227  0.96578  0.68939  Biso   1.000  C
  C310     1.0000 0.34724  0.62757  0.01669  Biso   1.000  C
  C311     1.0000 0.49902  0.13212  0.38359  Biso   1.000  C
  C312     1.0000 0.86917  0.98795  0.85781  Biso   1.000  C
  C313     1.0000 0.15294  0.48899  0.38645  Biso   1.000  C
  C314     1.0000 0.35825  0.13828  0.52638  Biso   1.000  C
  C315     1.0000 0.49901  0.34810  0.17152  Biso   1.000  C
  C316     1.0000 0.65657  0.47598  0.15544  Biso   1.000  C
  C317     1.0000 0.85526  0.13040  0.01823  Biso   1.000  C
  C318     1.0000 0.99941  0.35497  0.36227  Biso   1.000  C
  C319     1.0000 0.32572  0.98650  0.39977  Biso   1.000  C
  C320     1.0000 0.13404  0.64013  0.51896  Biso   1.000  C
  C321     1.0000 0.00009  0.85447  0.17836  Biso   1.000  C
  C322     1.0000 0.82706  0.97733  0.14315  Biso   1.000  C
  C323     1.0000 0.63486  0.62846  0.03242  Biso   1.000  C
  C324     1.0000 0.48705  0.84380  0.37156  Biso   1.000  C
  C325     1.0000 0.84704  0.48019  0.65808  Biso   1.000  C
  C326     1.0000 0.63571  0.82410  0.51723  Biso   1.000  C
  C327     1.0000 0.50680  0.61130  0.86919  Biso   1.000  C
  C328     1.0000 0.34799  0.47471  0.88635  Biso   1.000  C
  C329     1.0000 0.13082  0.83879  0.02456  Biso   1.000  C
  C330     1.0000 0.01070  0.61726  0.67588  Biso   1.000  C
  C331     1.0000 0.65807  0.97975  0.64151  Biso   1.000  C
  C332     1.0000 0.86245  0.32704  0.50931  Biso   1.000  C
  C333     1.0000 0.99768  0.11599  0.86327  Biso   1.000  C
  C334     1.0000 0.15405  0.97096  0.90197  Biso   1.000  C
  C335     1.0000 0.35836  0.33629  0.02197  Biso   1.000  C
  C336     1.0000 0.48778  0.11643  0.67059  Biso   1.000  C
  C337     1.0000 0.65789  0.48900  0.88758  Biso   1.000  C
  C338     1.0000 0.86819  0.63385  0.52950  Biso   1.000  C
  C339     1.0000 0.51581  0.85174  0.68381  Biso   1.000  C
  C340     1.0000 0.15801  0.47800  0.65279  Biso   1.000  C
  C341     1.0000 0.36864  0.64898  0.01469  Biso   1.000  C
  C342     1.0000 0.99015  0.84821  0.87105  Biso   1.000  C
  C343     1.0000 0.84620  0.98466  0.87702  Biso   1.000  C
  C344     1.0000 0.62498  0.13453  0.51321  Biso   1.000  C
  C345     1.0000 0.98895  0.34891  0.67175  Biso   1.000  C
  C346     1.0000 0.35039  0.96585  0.66879  Biso   1.000  C
  C347     1.0000 0.12183  0.14622  0.01941  Biso   1.000  C
  C348     1.0000 0.50011  0.34653  0.86062  Biso   1.000  C
  C349     1.0000 0.34502  0.50023  0.15250  Biso   1.000  C
  C350     1.0000 0.13110  0.33013  0.52324  Biso   1.000  C
  C351     1.0000 0.49722  0.11015  0.36287  Biso   1.000  C
  C352     1.0000 0.84221  0.48898  0.39063  Biso   1.000  C
  C353     1.0000 0.62207  0.32199  0.02587  Biso   1.000  C
  C354     1.0000 0.97494  0.11920  0.17808  Biso   1.000  C
  C355     1.0000 0.13680  0.00322  0.16753  Biso   1.000  C
  C356     1.0000 0.36833  0.82663  0.52624  Biso   1.000  C
  C357     1.0000 0.99606  0.61972  0.36408  Biso   1.000  C
  C358     1.0000 0.63837  0.98393  0.37393  Biso   1.000  C
  C359     1.0000 0.86379  0.82842  0.02896  Biso   1.000  C
  C360     1.0000 0.48764  0.61565  0.17847  Biso   1.000  C
  C361     1.0000 0.99360  0.13682  0.88576  Biso   1.000  C
  C362     1.0000 0.84707  0.98099  0.16575  Biso   1.000  C
  C363     1.0000 0.15044  0.86104  0.03114  Biso   1.000  C
  C364     1.0000 0.48845  0.13750  0.64809  Biso   1.000  C
  C365     1.0000 0.34584  0.98578  0.37698  Biso   1.000  C
  C366     1.0000 0.65642  0.84571  0.51500  Biso   1.000  C
  C367     1.0000 0.50576  0.63261  0.89125  Biso   1.000  C
  C368     1.0000 0.63351  0.47958  0.17636  Biso   1.000  C
  C369     1.0000 0.33865  0.35906  0.02476  Biso   1.000  C
  C370     1.0000 0.00843  0.63893  0.65478  Biso   1.000  C
  C371     1.0000 0.13081  0.49195  0.36545  Biso   1.000  C
  C372     1.0000 0.84075  0.34773  0.51393  Biso   1.000  C
  C373     1.0000 0.00600  0.83391  0.15643  Biso   1.000  C
  C374     1.0000 0.13441  0.97053  0.87789  Biso   1.000  C
  C375     1.0000 0.83487  0.10927  0.01381  Biso   1.000  C
  C376     1.0000 0.49164  0.82222  0.39316  Biso   1.000  C
  C377     1.0000 0.63909  0.98497  0.66476  Biso   1.000  C
  C378     1.0000 0.33792  0.11644  0.53069  Biso   1.000  C
  C379     1.0000 0.49665  0.32571  0.14959  Biso   1.000  C
  C380     1.0000 0.36869  0.47309  0.86392  Biso   1.000  C
  C381     1.0000 0.65762  0.60813  0.03237  Biso   1.000  C
  C382     1.0000 0.00025  0.33454  0.38447  Biso   1.000  C
  C383     1.0000 0.86993  0.48632  0.67688  Biso   1.000  C
  C384     1.0000 0.15618  0.61938  0.51774  Biso   1.000  C
  C385     1.0000 0.17033  0.14159  0.02323  Biso   1.000  C
  C386     1.0000 0.97831  0.16691  0.17281  Biso   1.000  C
  C387     1.0000 0.12617  0.00462  0.21452  Biso   1.000  C
  C388     1.0000 0.67465  0.12898  0.50836  Biso   1.000  C
  C389     1.0000 0.50624  0.15795  0.36756  Biso   1.000  C
  C390     1.0000 0.62668  0.98617  0.32775  Biso   1.000  C
  C391     1.0000 0.31979  0.64260  0.01657  Biso   1.000  C
  C392     1.0000 0.48737  0.66304  0.17295  Biso   1.000  C
  C393     1.0000 0.35025  0.49240  0.19996  Biso   1.000  C
  C394     1.0000 0.82056  0.62820  0.53433  Biso   1.000  C
  C395     1.0000 0.00105  0.66653  0.37239  Biso   1.000  C
  C396     1.0000 0.84664  0.48984  0.34221  Biso   1.000  C
  C397     1.0000 0.81564  0.82761  0.02210  Biso   1.000  C
  C398     1.0000 0.98769  0.79988  0.87726  Biso   1.000  C
  C399     1.0000 0.85663  0.99027  0.82926  Biso   1.000  C
  C400     1.0000 0.32057  0.83228  0.52790  Biso   1.000  C
  C401     1.0000 0.51155  0.80348  0.67842  Biso   1.000  C
  C402     1.0000 0.35735  0.96537  0.71659  Biso   1.000  C
  C403     1.0000 0.67206  0.32608  0.02717  Biso   1.000  C
  C404     1.0000 0.49067  0.29877  0.86541  Biso   1.000  C
  C405     1.0000 0.65313  0.49747  0.83975  Biso   1.000  C
  C406     1.0000 0.17930  0.33597  0.52377  Biso   1.000  C
  C407     1.0000 0.98507  0.29924  0.66913  Biso   1.000  C
  C408     1.0000 0.15211  0.47477  0.70118  Biso   1.000  C
  C409     1.0000 0.15246  0.96572  0.85233  Biso   1.000  C
  C410     1.0000 0.80774  0.12289  0.01754  Biso   1.000  C
  C411     1.0000 0.01085  0.80767  0.17098  Biso   1.000  C
  C412     1.0000 0.65741  0.98558  0.69026  Biso   1.000  C
  C413     1.0000 0.31118  0.13260  0.53402  Biso   1.000  C
  C414     1.0000 0.48986  0.79538  0.37760  Biso   1.000  C
  C415     1.0000 0.35191  0.47475  0.83827  Biso   1.000  C
  C416     1.0000 0.68382  0.62432  0.03397  Biso   1.000  C
  C417     1.0000 0.49683  0.29894  0.16555  Biso   1.000  C
  C418     1.0000 0.85460  0.49433  0.70332  Biso   1.000  C
  C419     1.0000 0.18261  0.63589  0.52128  Biso   1.000  C
  C420     1.0000 0.00046  0.30744  0.36928  Biso   1.000  C
  C421     1.0000 0.82998  0.98641  0.19120  Biso   1.000  C
  C422     1.0000 0.17809  0.84605  0.03469  Biso   1.000  C
  C423     1.0000 0.98999  0.16346  0.87027  Biso   1.000  C
  C424     1.0000 0.32893  0.98853  0.35140  Biso   1.000  C
  C425     1.0000 0.68414  0.83272  0.52002  Biso   1.000  C
  C426     1.0000 0.48546  0.16409  0.66192  Biso   1.000  C
  C427     1.0000 0.64948  0.48673  0.20394  Biso   1.000  C
  C428     1.0000 0.31137  0.34468  0.02926  Biso   1.000  C
  C429     1.0000 0.50170  0.66017  0.87606  Biso   1.000  C
  C430     1.0000 0.14607  0.49349  0.33824  Biso   1.000  C
  C431     1.0000 0.81279  0.33141  0.51506  Biso   1.000  C
  C432     1.0000 0.00727  0.66563  0.67121  Biso   1.000  C
  C433     1.0000 0.99561  0.13247  0.83649  Biso   1.000  C
  C434     1.0000 0.79811  0.98351  0.15679  Biso   1.000  C
  C435     1.0000 0.14710  0.81247  0.02296  Biso   1.000  C
  C436     1.0000 0.48628  0.13299  0.69708  Biso   1.000  C
  C437     1.0000 0.29809  0.98836  0.38803  Biso   1.000  C
  C438     1.0000 0.65337  0.79909  0.52608  Biso   1.000  C
  C439     1.0000 0.50561  0.62888  0.84306  Biso   1.000  C
  C440     1.0000 0.68294  0.48128  0.17155  Biso   1.000  C
  C441     1.0000 0.34098  0.31030  0.02348  Biso   1.000  C
  C442     1.0000 0.01033  0.63293  0.70348  Biso   1.000  C
  C443     1.0000 0.17924  0.48696  0.36934  Biso   1.000  C
  C444     1.0000 0.84665  0.29997  0.51068  Biso   1.000  C
  C445     1.0000 0.00218  0.83823  0.20498  Biso   1.000  C
  C446     1.0000 0.18227  0.97136  0.88746  Biso   1.000  C
  C447     1.0000 0.83744  0.15616  0.02614  Biso   1.000  C
  C448     1.0000 0.48251  0.82849  0.34581  Biso   1.000  C
  C449     1.0000 0.68845  0.97994  0.65468  Biso   1.000  C
  C450     1.0000 0.34347  0.16566  0.52892  Biso   1.000  C
  C451     1.0000 0.50221  0.33227  0.19781  Biso   1.000  C
  C452     1.0000 0.31980  0.47891  0.87175  Biso   1.000  C
  C453     1.0000 0.65148  0.65495  0.03467  Biso   1.000  C
  C454     1.0000 0.99688  0.33960  0.33598  Biso   1.000  C
  C455     1.0000 0.82076  0.48726  0.67347  Biso   1.000  C
  C456     1.0000 0.14910  0.66666  0.52379  Biso   1.000  C
  C457     1.0000 0.99756  0.63651  0.33726  Biso   1.000  C
  C458     1.0000 0.32350  0.96435  0.68494  Biso   1.000  C
  C459     1.0000 0.63665  0.29483  0.02934  Biso   1.000  C
  C460     1.0000 0.48571  0.63039  0.20586  Biso   1.000  C
  C461     1.0000 0.82118  0.98254  0.85918  Biso   1.000  C
  C462     1.0000 0.14561  0.30360  0.52554  Biso   1.000  C
  C463     1.0000 0.50292  0.12412  0.33594  Biso   1.000  C
  C464     1.0000 0.18445  0.47759  0.66776  Biso   1.000  C
  C465     1.0000 0.85094  0.80010  0.03371  Biso   1.000  C
  C466     1.0000 0.97475  0.13419  0.20566  Biso   1.000  C
  C467     1.0000 0.68570  0.49306  0.87388  Biso   1.000  C
  C468     1.0000 0.35230  0.80005  0.52770  Biso   1.000  C
  C469     1.0000 0.98694  0.33391  0.69939  Biso   1.000  C
  C470     1.0000 0.66342  0.98933  0.35543  Biso   1.000  C
  C471     1.0000 0.35213  0.67556  0.01224  Biso   1.000  C
  C472     1.0000 0.49862  0.33199  0.83277  Biso   1.000  C
  C473     1.0000 0.16240  0.00323  0.18649  Biso   1.000  C
  C474     1.0000 0.85168  0.66149  0.53245  Biso   1.000  C
  C475     1.0000 0.51281  0.83702  0.71128  Biso   1.000  C
  C476     1.0000 0.81527  0.49224  0.37691  Biso   1.000  C
  C477     1.0000 0.13636  0.17380  0.01820  Biso   1.000  C
  C478     1.0000 0.99109  0.83313  0.84442  Biso   1.000  C
  C479     1.0000 0.31960  0.50413  0.16936  Biso   1.000  C
  C480     1.0000 0.64227  0.16111  0.51534  Biso   1.000  C
  C481     1.0000 0.36794  0.77252  0.52960  Biso   1.000  C
  C482     1.0000 0.50265  0.34850  0.80682  Biso   1.000  C
  C483     1.0000 0.78857  0.49233  0.39231  Biso   1.000  C
  C484     1.0000 0.87057  0.77581  0.03831  Biso   1.000  C
  C485     1.0000 0.98336  0.35077  0.72643  Biso   1.000  C
  C486     1.0000 0.29474  0.51436  0.15299  Biso   1.000  C
  C487     1.0000 0.12867  0.27678  0.53054  Biso   1.000  C
  C488     1.0000 0.99273  0.84955  0.81594  Biso   1.000  C
  C489     1.0000 0.69149  0.99570  0.37015  Biso   1.000  C
  C490     1.0000 0.62005  0.26819  0.03677  Biso   1.000  C
  C491     1.0000 0.51132  0.85488  0.73719  Biso   1.000  C
  C492     1.0000 0.19167  0.99981  0.17414  Biso   1.000  C
  C493     1.0000 0.62616  0.18788  0.52059  Biso   1.000  C
  C494     1.0000 0.48839  0.61424  0.23405  Biso   1.000  C
  C495     1.0000 0.21195  0.47917  0.65083  Biso   1.000  C
  C496     1.0000 0.11848  0.20046  0.01549  Biso   1.000  C
  C497     1.0000 0.99535  0.62103  0.31056  Biso   1.000  C
  C498     1.0000 0.71265  0.48752  0.88995  Biso   1.000  C
  C499     1.0000 0.86945  0.68791  0.53212  Biso   1.000  C
  C500     1.0000 0.97231  0.11609  0.23189  Biso   1.000  C
  C501     1.0000 0.29653  0.96043  0.66892  Biso   1.000  C
  C502     1.0000 0.37027  0.70183  0.01129  Biso   1.000  C
  C503     1.0000 0.50171  0.10830  0.30935  Biso   1.000  C
  C504     1.0000 0.79361  0.97337  0.87330  Biso   1.000  C
  C505     1.0000 0.63912  0.50486  0.81405  Biso   1.000  C
  C506     1.0000 0.79398  0.61301  0.53418  Biso   1.000  C
  C507     1.0000 0.51093  0.77596  0.66232  Biso   1.000  C
  C508     1.0000 0.13667  0.47018  0.72881  Biso   1.000  C
  C509     1.0000 0.29334  0.62613  0.01742  Biso   1.000  C
  C510     1.0000 0.98575  0.77365  0.89406  Biso   1.000  C
  C511     1.0000 0.87526  0.99701  0.80435  Biso   1.000  C
  C512     1.0000 0.70211  0.11410  0.49817  Biso   1.000  C
  C513     1.0000 0.98534  0.27192  0.65271  Biso   1.000  C
  C514     1.0000 0.37598  0.96576  0.74181  Biso   1.000  C
  C515     1.0000 0.19837  0.12579  0.02291  Biso   1.000  C
  C516     1.0000 0.48404  0.27176  0.88079  Biso   1.000  C
  C517     1.0000 0.36486  0.48260  0.22633  Biso   1.000  C
  C518     1.0000 0.20666  0.35074  0.52070  Biso   1.000  C
  C519     1.0000 0.51153  0.18400  0.38238  Biso   1.000  C
  C520     1.0000 0.86232  0.49514  0.31409  Biso   1.000  C
  C521     1.0000 0.70070  0.34016  0.02412  Biso   1.000  C
  C522     1.0000 0.98501  0.19375  0.15720  Biso   1.000  C
  C523     1.0000 0.10542  0.00601  0.24074  Biso   1.000  C
  C524     1.0000 0.29429  0.84871  0.52516  Biso   1.000  C
  C525     1.0000 0.00313  0.69236  0.38910  Biso   1.000  C
  C526     1.0000 0.60883  0.98221  0.30243  Biso   1.000  C
  C527     1.0000 0.78648  0.84000  0.02040  Biso   1.000  C
  C528     1.0000 0.49026  0.68985  0.15799  Biso   1.000  C
  C529     1.0000 0.77957  0.10694  0.01259  Biso   1.000  C
  C530     1.0000 0.02124  0.78218  0.15617  Biso   1.000  C
  C531     1.0000 0.13844  0.96425  0.82343  Biso   1.000  C
  C532     1.0000 0.28528  0.11661  0.54307  Biso   1.000  C
  C533     1.0000 0.49580  0.76940  0.39396  Biso   1.000  C
  C534     1.0000 0.64366  0.98606  0.71805  Biso   1.000  C
  C535     1.0000 0.71179  0.60933  0.03287  Biso   1.000  C
  C536     1.0000 0.49081  0.27186  0.14931  Biso   1.000  C
  C537     1.0000 0.36946  0.47491  0.81082  Biso   1.000  C
  C538     1.0000 0.21026  0.62134  0.52035  Biso   1.000  C
  C539     1.0000 0.00680  0.28187  0.38544  Biso   1.000  C
  C540     1.0000 0.87106  0.50292  0.72989  Biso   1.000  C
  C541     1.0000 0.20219  0.86056  0.04675  Biso   1.000  C
  C542     1.0000 0.98646  0.19012  0.88717  Biso   1.000  C
  C543     1.0000 0.84343  0.99156  0.22046  Biso   1.000  C
  C544     1.0000 0.71009  0.84912  0.51803  Biso   1.000  C
  C545     1.0000 0.48212  0.19124  0.64482  Biso   1.000  C
  C546     1.0000 0.34166  0.98804  0.32325  Biso   1.000  C
  C547     1.0000 0.28468  0.36166  0.03807  Biso   1.000  C
  C548     1.0000 0.50164  0.68776  0.89185  Biso   1.000  C
  C549     1.0000 0.63203  0.49140  0.22946  Biso   1.000  C
  C550     1.0000 0.78529  0.34713  0.51525  Biso   1.000  C
  C551     1.0000 0.00478  0.69299  0.65556  Biso   1.000  C
  C552     1.0000 0.13128  0.49761  0.31132  Biso   1.000  C
  C553     1.0000 0.99676  0.11689  0.80870  Biso   1.000  C
  C554     1.0000 0.77279  0.98835  0.13779  Biso   1.000  C
  C555     1.0000 0.13278  0.78552  0.01379  Biso   1.000  C
  C556     1.0000 0.49276  0.11851  0.72359  Biso   1.000  C
  C557     1.0000 0.27251  0.98896  0.40732  Biso   1.000  C
  C558     1.0000 0.63841  0.77192  0.53319  Biso   1.000  C
  C559     1.0000 0.50403  0.61532  0.81422  Biso   1.000  C
  C560     1.0000 0.70916  0.47693  0.15718  Biso   1.000  C
  C561     1.0000 0.35355  0.28154  0.01714  Biso   1.000  C
  C562     1.0000 0.00858  0.61632  0.72961  Biso   1.000  C
  C563     1.0000 0.20589  0.48378  0.38483  Biso   1.000  C
  C564     1.0000 0.86457  0.27287  0.50905  Biso   1.000  C
  C565     1.0000 0.99876  0.85461  0.23230  Biso   1.000  C
  C566     1.0000 0.20807  0.97377  0.90397  Biso   1.000  C
  C567     1.0000 0.85081  0.18464  0.03088  Biso   1.000  C
  C568     1.0000 0.47251  0.84546  0.31867  Biso   1.000  C
  C569     1.0000 0.71349  0.97437  0.63458  Biso   1.000  C
  C570     1.0000 0.35863  0.19328  0.52507  Biso   1.000  C
  C571     1.0000 0.50463  0.34773  0.22649  Biso   1.000  C
  C572     1.0000 0.29389  0.48309  0.88914  Biso   1.000  C
  C573     1.0000 0.63555  0.68162  0.03785  Biso   1.000  C
  C574     1.0000 0.99212  0.35605  0.31043  Biso   1.000  C
  C575     1.0000 0.79165  0.48278  0.66109  Biso   1.000  C
  C576     1.0000 0.13267  0.69289  0.52860  Biso   1.000  C
  C577     1.0000 0.29378  0.51595  0.12201  Biso   1.000  C
  C578     1.0000 0.09749  0.27851  0.52904  Biso   1.000  C
  C579     1.0000 0.49733  0.07700  0.31061  Biso   1.000  C
  C580     1.0000 0.79064  0.49180  0.42471  Biso   1.000  C
  C581     1.0000 0.58814  0.27173  0.03651  Biso   1.000  C
  C582     1.0000 0.97282  0.08523  0.23092  Biso   1.000  C
  C583     1.0000 0.19564  0.99853  0.14171  Biso   1.000  C
  C584     1.0000 0.40059  0.77458  0.52965  Biso   1.000  C
  C585     1.0000 0.98897  0.59056  0.31003  Biso   1.000  C
  C586     1.0000 0.69241  0.99313  0.40171  Biso   1.000  C
  C587     1.0000 0.90217  0.77968  0.03900  Biso   1.000  C
  C588     1.0000 0.48929  0.58236  0.23175  Biso   1.000  C
  C589     1.0000 0.71174  0.47934  0.92036  Biso   1.000  C
  C590     1.0000 0.89974  0.68741  0.52768  Biso   1.000  C
  C591     1.0000 0.51459  0.88555  0.73733  Biso   1.000  C
  C592     1.0000 0.21286  0.48167  0.61973  Biso   1.000  C
  C593     1.0000 0.40201  0.70031  0.00837  Biso   1.000  C
  C594     1.0000 0.99452  0.88049  0.81769  Biso   1.000  C
  C595     1.0000 0.78983  0.97118  0.90312  Biso   1.000  C
  C596     1.0000 0.59531  0.18730  0.52621  Biso   1.000  C
  C597     1.0000 0.98842  0.38306  0.72374  Biso   1.000  C
  C598     1.0000 0.29523  0.96301  0.63855  Biso   1.000  C
  C599     1.0000 0.08715  0.19699  0.01424  Biso   1.000  C
  C600     1.0000 0.50893  0.37970  0.80996  Biso   1.000  C
  C601     1.0000 0.20534  0.97861  0.93527  Biso   1.000  C
  C602     1.0000 0.88299  0.18472  0.03292  Biso   1.000  C
  C603     1.0000 0.99297  0.88519  0.23189  Biso   1.000  C
  C604     1.0000 0.70988  0.97315  0.60275  Biso   1.000  C
  C605     1.0000 0.39104  0.19304  0.52041  Biso   1.000  C
  C606     1.0000 0.47191  0.87626  0.31815  Biso   1.000  C
  C607     1.0000 0.29454  0.48540  0.91993  Biso   1.000  C
  C608     1.0000 0.60308  0.68185  0.03496  Biso   1.000  C
  C609     1.0000 0.50110  0.37886  0.22725  Biso   1.000  C
  C610     1.0000 0.79074  0.47439  0.62904  Biso   1.000  C
  C611     1.0000 0.10153  0.69299  0.52511  Biso   1.000  C
  C612     1.0000 0.99034  0.38716  0.31139  Biso   1.000  C
  C613     1.0000 0.77581  0.98442  0.10676  Biso   1.000  C
  C614     1.0000 0.10117  0.78580  0.01142  Biso   1.000  C
  C615     1.0000 0.00374  0.08581  0.81076  Biso   1.000  C
  C616     1.0000 0.27759  0.98886  0.43856  Biso   1.000  C
  C617     1.0000 0.60829  0.76932  0.52619  Biso   1.000  C
  C618     1.0000 0.50046  0.08848  0.72213  Biso   1.000  C
  C619     1.0000 0.71037  0.47275  0.12470  Biso   1.000  C
  C620     1.0000 0.38512  0.27899  0.01188  Biso   1.000  C
  C621     1.0000 0.50412  0.58437  0.81402  Biso   1.000  C
  C622     1.0000 0.20671  0.48432  0.41593  Biso   1.000  C
  C623     1.0000 0.89689  0.27531  0.50647  Biso   1.000  C
  C624     1.0000 0.01111  0.58377  0.72930  Biso   1.000  C
  C625     1.0000 0.98286  0.18893  0.91835  Biso   1.000  C
  C626     1.0000 0.87480  0.98957  0.22232  Biso   1.000  C
  C627     1.0000 0.20070  0.89161  0.05263  Biso   1.000  C
  C628     1.0000 0.48506  0.18966  0.61309  Biso   1.000  C
  C629     1.0000 0.37290  0.98557  0.32088  Biso   1.000  C
  C630     1.0000 0.70778  0.88043  0.51121  Biso   1.000  C
  C631     1.0000 0.50219  0.68481  0.92348  Biso   1.000  C
  C632     1.0000 0.60069  0.48957  0.22811  Biso   1.000  C
  C633     1.0000 0.28622  0.39282  0.03844  Biso   1.000  C
  C634     1.0000 0.00496  0.69185  0.62391  Biso   1.000  C
  C635     1.0000 0.10028  0.49758  0.31053  Biso   1.000  C
  C636     1.0000 0.78776  0.37863  0.51648  Biso   1.000  C
  C637     1.0000 0.02324  0.78349  0.12514  Biso   1.000  C
  C638     1.0000 0.10585  0.96814  0.82303  Biso   1.000  C
  C639     1.0000 0.78154  0.07706  0.00320  Biso   1.000  C
  C640     1.0000 0.50017  0.77101  0.42435  Biso   1.000  C
  C641     1.0000 0.61223  0.98456  0.72032  Biso   1.000  C
  C642     1.0000 0.28438  0.08479  0.54515  Biso   1.000  C
  C643     1.0000 0.48826  0.27314  0.11721  Biso   1.000  C
  C644     1.0000 0.40173  0.47448  0.81055  Biso   1.000  C
  C645     1.0000 0.71273  0.57765  0.03134  Biso   1.000  C
  C646     1.0000 0.01064  0.28275  0.41592  Biso   1.000  C
  C647     1.0000 0.90239  0.50158  0.72876  Biso   1.000  C
  C648     1.0000 0.21120  0.58983  0.51757  Biso   1.000  C
  C649     1.0000 0.00226  0.69024  0.42017  Biso   1.000  C
  C650     1.0000 0.40769  0.96623  0.73963  Biso   1.000  C
  C651     1.0000 0.70118  0.37080  0.02010  Biso   1.000  C
  C652     1.0000 0.49177  0.69054  0.12638  Biso   1.000  C
  C653     1.0000 0.90708  0.99938  0.80957  Biso   1.000  C
  C654     1.0000 0.20663  0.38209  0.51610  Biso   1.000  C
  C655     1.0000 0.51031  0.18431  0.41326  Biso   1.000  C
  C656     1.0000 0.10432  0.46794  0.72778  Biso   1.000  C
  C657     1.0000 0.78469  0.87102  0.01431  Biso   1.000  C
  C658     1.0000 0.98814  0.19366  0.12445  Biso   1.000  C
  C659     1.0000 0.60748  0.50159  0.81307  Biso   1.000  C
  C660     1.0000 0.29445  0.88051  0.52456  Biso   1.000  C
  C661     1.0000 0.98804  0.27421  0.62148  Biso   1.000  C
  C662     1.0000 0.57898  0.97922  0.30543  Biso   1.000  C
  C663     1.0000 0.29543  0.59449  0.01813  Biso   1.000  C
  C664     1.0000 0.48595  0.27147  0.91336  Biso   1.000  C
  C665     1.0000 0.07504  0.00081  0.23520  Biso   1.000  C
  C666     1.0000 0.79314  0.58202  0.53335  Biso   1.000  C
  C667     1.0000 0.51048  0.77575  0.63064  Biso   1.000  C
  C668     1.0000 0.89443  0.49327  0.31341  Biso   1.000  C
  C669     1.0000 0.19851  0.09390  0.01828  Biso   1.000  C
  C670     1.0000 0.98795  0.77454  0.92591  Biso   1.000  C
  C671     1.0000 0.39537  0.47641  0.22512  Biso   1.000  C
  C672     1.0000 0.70243  0.08364  0.49413  Biso   1.000  C
  C673     1.0000 0.20053  0.96578  0.84131  Biso   1.000  C
  C674     1.0000 0.78887  0.16505  0.02633  Biso   1.000  C
  C675     1.0000 0.00926  0.79202  0.21724  Biso   1.000  C
  C676     1.0000 0.70487  0.98751  0.69945  Biso   1.000  C
  C677     1.0000 0.29614  0.17896  0.53397  Biso   1.000  C
  C678     1.0000 0.48218  0.78086  0.33185  Biso   1.000  C
  C679     1.0000 0.30330  0.47968  0.82640  Biso   1.000  C
  C680     1.0000 0.69836  0.67047  0.03459  Biso   1.000  C
  C681     1.0000 0.49978  0.28493  0.21059  Biso   1.000  C
  C682     1.0000 0.80921  0.50077  0.71955  Biso   1.000  C
  C683     1.0000 0.19411  0.68272  0.52864  Biso   1.000  C
  C684     1.0000 0.99733  0.29145  0.32332  Biso   1.000  C
  C685     1.0000 0.78248  0.99643  0.20051  Biso   1.000  C
  C686     1.0000 0.19511  0.80052  0.02726  Biso   1.000  C
  C687     1.0000 0.98637  0.17853  0.82287  Biso   1.000  C
  C688     1.0000 0.28162  0.99335  0.34153  Biso   1.000  C
  C689     1.0000 0.70090  0.78574  0.52848  Biso   1.000  C
  C690     1.0000 0.48406  0.18025  0.70683  Biso   1.000  C
  C691     1.0000 0.69479  0.49195  0.21799  Biso   1.000  C
  C692     1.0000 0.29437  0.29837  0.03260  Biso   1.000  C
  C693     1.0000 0.50273  0.67466  0.82864  Biso   1.000  C
  C694     1.0000 0.19317  0.49307  0.32204  Biso   1.000  C
  C695     1.0000 0.79884  0.28481  0.51319  Biso   1.000  C
  C696     1.0000 0.00522  0.67741  0.71982  Biso   1.000  C
  C697     1.0000 0.67287  0.99430  0.30894  Biso   1.000  C
  C698     1.0000 0.30468  0.69070  0.01548  Biso   1.000  C
  C699     1.0000 0.98215  0.28792  0.71616  Biso   1.000  C
  C700     1.0000 0.17113  0.00574  0.23366  Biso   1.000  C
  C701     1.0000 0.80561  0.67661  0.53493  Biso   1.000  C
  C702     1.0000 0.48838  0.28814  0.81694  Biso   1.000  C
  C703     1.0000 0.79936  0.49411  0.32952  Biso   1.000  C
  C704     1.0000 0.18372  0.18856  0.02257  Biso   1.000  C
  C705     1.0000 0.50881  0.79053  0.72454  Biso   1.000  C
  C706     1.0000 0.30388  0.50166  0.21541  Biso   1.000  C
  C707     1.0000 0.68968  0.17624  0.51420  Biso   1.000  C
  C708     1.0000 0.99143  0.78703  0.83103  Biso   1.000  C
  C709     1.0000 0.31055  0.96222  0.73266  Biso   1.000  C
  C710     1.0000 0.68032  0.27613  0.03357  Biso   1.000  C
  C711     1.0000 0.00117  0.68463  0.32830  Biso   1.000  C
  C712     1.0000 0.81233  0.99149  0.81054  Biso   1.000  C
  C713     1.0000 0.19126  0.28979  0.52859  Biso   1.000  C
  C714     1.0000 0.48559  0.67482  0.22144  Biso   1.000  C
  C715     1.0000 0.19796  0.47532  0.71612  Biso   1.000  C
  C716     1.0000 0.80602  0.78008  0.02851  Biso   1.000  C
  C717     1.0000 0.50597  0.17007  0.32182  Biso   1.000  C
  C718     1.0000 0.70146  0.49948  0.82787  Biso   1.000  C
  C719     1.0000 0.30474  0.78732  0.52811  Biso   1.000  C
  C720     1.0000 0.98027  0.17974  0.22079  Biso   1.000  C
  C721     1.0000 0.49107  0.78816  0.30210  Biso   1.000  C
  C722     1.0000 0.30735  0.49246  0.79723  Biso   1.000  C
  C723     1.0000 0.77153  0.28657  0.53112  Biso   1.000  C
  C724     1.0000 0.99968  0.76214  0.21308  Biso   1.000  C
  C725     1.0000 0.78223  0.51746  0.71407  Biso   1.000  C
  C726     1.0000 0.26556  0.30608  0.02321  Biso   1.000  C
  C727     1.0000 0.98371  0.26447  0.33086  Biso   1.000  C
  C728     1.0000 0.22618  0.98510  0.84260  Biso   1.000  C
  C729     1.0000 0.72967  0.79287  0.54182  Biso   1.000  C
  C730     1.0000 0.48466  0.28652  0.23886  Biso   1.000  C
  C731     1.0000 0.73145  0.96887  0.69834  Biso   1.000  C
  C732     1.0000 0.22506  0.80941  0.01978  Biso   1.000  C
  C733     1.0000 0.46824  0.17824  0.73496  Biso   1.000  C
  C734     1.0000 0.69037  0.48134  0.24780  Biso   1.000  C
  C735     1.0000 0.19030  0.70990  0.51423  Biso   1.000  C
  C736     1.0000 0.96498  0.20048  0.82734  Biso   1.000  C
  C737     1.0000 0.21789  0.47365  0.31984  Biso   1.000  C
  C738     1.0000 0.72549  0.66746  0.04984  Biso   1.000  C
  C739     1.0000 0.02189  0.67655  0.74716  Biso   1.000  C
  C740     1.0000 0.75472  0.98157  0.19717  Biso   1.000  C
  C741     1.0000 0.26674  0.17448  0.52133  Biso   1.000  C
  C742     1.0000 0.52581  0.67723  0.80532  Biso   1.000  C
  C743     1.0000 0.25530  0.97700  0.34226  Biso   1.000  C
  C744     1.0000 0.78846  0.18590  0.05127  Biso   1.000  C
  C745     1.0000 0.02157  0.68078  0.30489  Biso   1.000  C
  C746     1.0000 0.28407  0.97898  0.73253  Biso   1.000  C
  C747     1.0000 0.70929  0.28001  0.04458  Biso   1.000  C
  C748     1.0000 0.50468  0.69938  0.22248  Biso   1.000  C
  C749     1.0000 0.81851  0.98311  0.78037  Biso   1.000  C
  C750     1.0000 0.21623  0.29197  0.54810  Biso   1.000  C
  C751     1.0000 0.52161  0.16616  0.29281  Biso   1.000  C
  C752     1.0000 0.22546  0.45927  0.71221  Biso   1.000  C
  C753     1.0000 0.78351  0.78107  0.00684  Biso   1.000  C
  C754     1.0000 0.00557  0.19985  0.21928  Biso   1.000  C
  C755     1.0000 0.69856  0.48807  0.79919  Biso   1.000  C
  C756     1.0000 0.27908  0.79097  0.54790  Biso   1.000  C
  C757     1.0000 0.96363  0.26229  0.71171  Biso   1.000  C
  C758     1.0000 0.66444  0.01053  0.28233  Biso   1.000  C
  C759     1.0000 0.27880  0.68901  0.03404  Biso   1.000  C
  C760     1.0000 0.50784  0.28927  0.79187  Biso   1.000  C
  C761     1.0000 0.20009  0.02088  0.23208  Biso   1.000  C
  C762     1.0000 0.81045  0.70320  0.51861  Biso   1.000  C
  C763     1.0000 0.49246  0.79469  0.75188  Biso   1.000  C
  C764     1.0000 0.77231  0.51010  0.33231  Biso   1.000  C
  C765     1.0000 0.20839  0.18502  0.04128  Biso   1.000  C
  C766     1.0000 0.97363  0.78724  0.80519  Biso   1.000  C
  C767     1.0000 0.30889  0.51071  0.24512  Biso   1.000  C
  C768     1.0000 0.68624  0.20312  0.49888  Biso   1.000  C
  C769     1.0000 0.47984  0.69723  0.82947  Biso   1.000  C
  C770     1.0000 0.81355  0.49161  0.74836  Biso   1.000  C
  C771     1.0000 0.69829  0.75516  0.51682  Biso   1.000  C
  C772     1.0000 0.98364  0.70059  0.71749  Biso   1.000  C
  C773     1.0000 0.27462  0.46463  0.83419  Biso   1.000  C
  C774     1.0000 0.19021  0.77024  0.03410  Biso   1.000  C
  C775     1.0000 0.00389  0.18015  0.79618  Biso   1.000  C
  C776     1.0000 0.70173  0.00871  0.72209  Biso   1.000  C
  C777     1.0000 0.80128  0.26105  0.49230  Biso   1.000  C
  C778     1.0000 0.49887  0.20782  0.70060  Biso   1.000  C
  C779     1.0000 0.20022  0.94510  0.81703  Biso   1.000  C
  C780     1.0000 0.29833  0.26736  0.04004  Biso   1.000  C
  C781     1.0000 0.51576  0.25699  0.20483  Biso   1.000  C
  C782     1.0000 0.19187  0.51781  0.30290  Biso   1.000  C
  C783     1.0000 0.30189  0.20623  0.54763  Biso   1.000  C
  C784     1.0000 0.00717  0.29691  0.29172  Biso   1.000  C
  C785     1.0000 0.72330  0.50551  0.21223  Biso   1.000  C
  C786     1.0000 0.76771  0.16898  0.00282  Biso   1.000  C
  C787     1.0000 0.02190  0.79672  0.24597  Biso   1.000  C
  C788     1.0000 0.28443  0.01515  0.31820  Biso   1.000  C
  C789     1.0000 0.22052  0.67781  0.54567  Biso   1.000  C
  C790     1.0000 0.47197  0.75137  0.33856  Biso   1.000  C
  C791     1.0000 0.78483  0.01597  0.22524  Biso   1.000  C
  C792     1.0000 0.69325  0.69836  0.01860  Biso   1.000  C
  C793     1.0000 0.49309  0.19831  0.32577  Biso   1.000  C
  C794     1.0000 0.27357  0.49417  0.20740  Biso   1.000  C
  C795     1.0000 0.18570  0.26395  0.51244  Biso   1.000  C
  C796     1.0000 0.95878  0.18301  0.24433  Biso   1.000  C
  C797     1.0000 0.80454  0.47868  0.30273  Biso   1.000  C
  C798     1.0000 0.67516  0.24840  0.02055  Biso   1.000  C
  C799     1.0000 0.98799  0.71359  0.33222  Biso   1.000  C
  C800     1.0000 0.16608  0.99003  0.26112  Biso   1.000  C
  C801     1.0000 0.30712  0.76078  0.51233  Biso   1.000  C
  C802     1.0000 0.46428  0.67057  0.24493  Biso   1.000  C
  C803     1.0000 0.70358  0.98314  0.30915  Biso   1.000  C
  C804     1.0000 0.80781  0.75736  0.04992  Biso   1.000  C
  C805     1.0000 0.52500  0.76463  0.72189  Biso   1.000  C
  C806     1.0000 0.72897  0.51444  0.83450  Biso   1.000  C
  C807     1.0000 0.77792  0.67321  0.55171  Biso   1.000  C
  C808     1.0000 0.00820  0.76165  0.83588  Biso   1.000  C
  C809     1.0000 0.19232  0.49179  0.74277  Biso   1.000  C
  C810     1.0000 0.30921  0.71917  0.00091  Biso   1.000  C
  C811     1.0000 0.99776  0.28945  0.74492  Biso   1.000  C
  C812     1.0000 0.78231  0.00202  0.81610  Biso   1.000  C
  C813     1.0000 0.71923  0.17089  0.52666  Biso   1.000  C
  C814     1.0000 0.46709  0.26479  0.81830  Biso   1.000  C
  C815     1.0000 0.31617  0.94484  0.75842  Biso   1.000  C
  C816     1.0000 0.18178  0.21558  0.00567  Biso   1.000  C
  C817     1.0000 0.96180  0.22219  0.80648  Biso   1.000  C
  C818     1.0000 0.73141  0.98981  0.21480  Biso   1.000  C
  C819     1.0000 0.24728  0.78977  0.02155  Biso   1.000  C
  C820     1.0000 0.46936  0.20069  0.75431  Biso   1.000  C
  C821     1.0000 0.23340  0.98140  0.32252  Biso   1.000  C
  C822     1.0000 0.75175  0.77099  0.54418  Biso   1.000  C
  C823     1.0000 0.52534  0.70042  0.78656  Biso   1.000  C
  C824     1.0000 0.71058  0.48534  0.26957  Biso   1.000  C
  C825     1.0000 0.24226  0.28556  0.02272  Biso   1.000  C
  C826     1.0000 0.01836  0.69693  0.77005  Biso   1.000  C
  C827     1.0000 0.23959  0.47684  0.29930  Biso   1.000  C
  C828     1.0000 0.74889  0.26533  0.52970  Biso   1.000  C
  C829     1.0000 0.99742  0.74334  0.23769  Biso   1.000  C
  C830     1.0000 0.25015  0.98282  0.82403  Biso   1.000  C
  C831     1.0000 0.76580  0.20608  0.05319  Biso   1.000  C
  C832     1.0000 0.49009  0.76659  0.28183  Biso   1.000  C
  C833     1.0000 0.75348  0.97178  0.71911  Biso   1.000  C
  C834     1.0000 0.24654  0.19584  0.52177  Biso   1.000  C
  C835     1.0000 0.48645  0.26443  0.25938  Biso   1.000  C
  C836     1.0000 0.28441  0.49134  0.77797  Biso   1.000  C
  C837     1.0000 0.74586  0.68992  0.04815  Biso   1.000  C
  C838     1.0000 0.98263  0.24285  0.31078  Biso   1.000  C
  C839     1.0000 0.76168  0.52099  0.73645  Biso   1.000  C
  C840     1.0000 0.21322  0.73003  0.51427  Biso   1.000  C
  C841     1.0000 0.22604  0.94226  0.80003  Biso   1.000  C
  C842     1.0000 0.74626  0.18999  0.00640  Biso   1.000  C
  C843     1.0000 0.02220  0.77639  0.26770  Biso   1.000  C
  C844     1.0000 0.72214  0.00745  0.74448  Biso   1.000  C
  C845     1.0000 0.27982  0.22694  0.54678  Biso   1.000  C
  C846     1.0000 0.46923  0.73022  0.31640  Biso   1.000  C
  C847     1.0000 0.25221  0.46489  0.81373  Biso   1.000  C
  C848     1.0000 0.71518  0.71874  0.01610  Biso   1.000  C
  C849     1.0000 0.51684  0.23579  0.22669  Biso   1.000  C
  C850     1.0000 0.79508  0.49829  0.77021  Biso   1.000  C
  C851     1.0000 0.24042  0.69984  0.54942  Biso   1.000  C
  C852     1.0000 0.00210  0.27439  0.27220  Biso   1.000  C
  C853     1.0000 0.76213  0.02037  0.24329  Biso   1.000  C
  C854     1.0000 0.21266  0.75081  0.02896  Biso   1.000  C
  C855     1.0000 0.99693  0.19881  0.77341  Biso   1.000  C
  C856     1.0000 0.26173  0.01941  0.29894  Biso   1.000  C
  C857     1.0000 0.71923  0.73663  0.52014  Biso   1.000  C
  C858     1.0000 0.49847  0.23065  0.72145  Biso   1.000  C
  C859     1.0000 0.74316  0.50909  0.23420  Biso   1.000  C
  C860     1.0000 0.27541  0.24805  0.03666  Biso   1.000  C
  C861     1.0000 0.47952  0.71954  0.80863  Biso   1.000  C
  C862     1.0000 0.21268  0.51890  0.28013  Biso   1.000  C
  C863     1.0000 0.77891  0.23972  0.49451  Biso   1.000  C
  C864     1.0000 0.98059  0.71990  0.74025  Biso   1.000  C
  C865     1.0000 0.71930  0.49555  0.77814  Biso   1.000  C
  C866     1.0000 0.79149  0.72535  0.52119  Biso   1.000  C
  C867     1.0000 0.49024  0.77129  0.77146  Biso   1.000  C
  C868     1.0000 0.24446  0.45918  0.73598  Biso   1.000  C
  C869     1.0000 0.25862  0.71071  0.03609  Biso   1.000  C
  C870     1.0000 0.97539  0.76451  0.78522  Biso   1.000  C
  C871     1.0000 0.79797  0.98493  0.75850  Biso   1.000  C
  C872     1.0000 0.70835  0.22423  0.49815  Biso   1.000  C
  C873     1.0000 0.96150  0.24092  0.73212  Biso   1.000  C
  C874     1.0000 0.26338  0.97781  0.75548  Biso   1.000  C
  C875     1.0000 0.22979  0.20630  0.04151  Biso   1.000  C
  C876     1.0000 0.50643  0.26822  0.77014  Biso   1.000  C
  C877     1.0000 0.28720  0.51085  0.26632  Biso   1.000  C
  C878     1.0000 0.23476  0.26846  0.54984  Biso   1.000  C
  C879     1.0000 0.51942  0.18788  0.27148  Biso   1.000  C
  C880     1.0000 0.75284  0.51253  0.31053  Biso   1.000  C
  C881     1.0000 0.73139  0.25827  0.04527  Biso   1.000  C
  C882     1.0000 0.00897  0.22085  0.23912  Biso   1.000  C
  C883     1.0000 0.21966  0.02006  0.25347  Biso   1.000  C
  C884     1.0000 0.25743  0.77002  0.54946  Biso   1.000  C
  C885     1.0000 0.02497  0.70248  0.28419  Biso   1.000  C
  C886     1.0000 0.68458  0.01634  0.25901  Biso   1.000  C
  C887     1.0000 0.76437  0.75722  0.00548  Biso   1.000  C
  C888     1.0000 0.50194  0.71888  0.24379  Biso   1.000  C
  C889     1.0000 0.72193  0.98882  0.28506  Biso   1.000  C
  C890     1.0000 0.28858  0.74129  0.00411  Biso   1.000  C
  C891     1.0000 0.99439  0.26683  0.76492  Biso   1.000  C
  C892     1.0000 0.18729  0.99178  0.28313  Biso   1.000  C
  C893     1.0000 0.75774  0.69611  0.55035  Biso   1.000  C
  C894     1.0000 0.46354  0.24693  0.79418  Biso   1.000  C
  C895     1.0000 0.78412  0.48191  0.28087  Biso   1.000  C
  C896     1.0000 0.20244  0.23678  0.00781  Biso   1.000  C
  C897     1.0000 0.52214  0.74062  0.74233  Biso   1.000  C
  C898     1.0000 0.25231  0.49427  0.22919  Biso   1.000  C
  C899     1.0000 0.74024  0.19279  0.52637  Biso   1.000  C
  C900     1.0000 0.01065  0.74007  0.81439  Biso   1.000  C
  C901     1.0000 0.29445  0.94477  0.78137  Biso   1.000  C
  C902     1.0000 0.69699  0.22738  0.02136  Biso   1.000  C
  C903     1.0000 0.99163  0.73477  0.31165  Biso   1.000  C
  C904     1.0000 0.76197  0.00106  0.79396  Biso   1.000  C
  C905     1.0000 0.20653  0.24189  0.51457  Biso   1.000  C
  C906     1.0000 0.46236  0.69194  0.26682  Biso   1.000  C
  C907     1.0000 0.21200  0.48857  0.76500  Biso   1.000  C
  C908     1.0000 0.78626  0.73794  0.05006  Biso   1.000  C
  C909     1.0000 0.49172  0.21887  0.30347  Biso   1.000  C
  C910     1.0000 0.74899  0.51861  0.81351  Biso   1.000  C
  C911     1.0000 0.28507  0.74055  0.51412  Biso   1.000  C
  C912     1.0000 0.96333  0.20466  0.26380  Biso   1.000  C
  C913     1.0000 0.76862  0.51179  0.76417  Biso   1.000  C
  C914     1.0000 0.74444  0.74391  0.53425  Biso   1.000  C
  C915     1.0000 0.50291  0.72191  0.78847  Biso   1.000  C
  C916     1.0000 0.25912  0.47576  0.78476  Biso   1.000  C
  C917     1.0000 0.24110  0.75949  0.02185  Biso   1.000  C
  C918     1.0000 0.99640  0.71822  0.76642  Biso   1.000  C
  C919     1.0000 0.74788  0.98986  0.74253  Biso   1.000  C
  C920     1.0000 0.75413  0.24235  0.51294  Biso   1.000  C
  C921     1.0000 0.97607  0.22117  0.77891  Biso   1.000  C
  C922     1.0000 0.24933  0.96158  0.80327  Biso   1.000  C
  C923     1.0000 0.24712  0.25635  0.02980  Biso   1.000  C
  C924     1.0000 0.48308  0.22678  0.74754  Biso   1.000  C
  C925     1.0000 0.23577  0.49904  0.27976  Biso   1.000  C
  C926     1.0000 0.25279  0.22201  0.53451  Biso   1.000  C
  C927     1.0000 0.50146  0.23840  0.25400  Biso   1.000  C
  C928     1.0000 0.73625  0.49780  0.26167  Biso   1.000  C
  C929     1.0000 0.74700  0.20864  0.03032  Biso   1.000  C
  C930     1.0000 0.99044  0.24697  0.28176  Biso   1.000  C
  C931     1.0000 0.23678  0.00195  0.29991  Biso   1.000  C
  C932     1.0000 0.23715  0.72427  0.53153  Biso   1.000  C
  C933     1.0000 0.01321  0.74890  0.26363  Biso   1.000  C
  C934     1.0000 0.73577  0.00777  0.23733  Biso   1.000  C
  C935     1.0000 0.74133  0.71540  0.03126  Biso   1.000  C
  C936     1.0000 0.48017  0.73891  0.28840  Biso   1.000  C
  C937     1.0000 0.72425  0.23225  0.03315  Biso   1.000  C
  C938     1.0000 0.01098  0.72961  0.28878  Biso   1.000  C
  C939     1.0000 0.27035  0.96110  0.77975  Biso   1.000  C
  C940     1.0000 0.23029  0.24492  0.53327  Biso   1.000  C
  C941     1.0000 0.48026  0.71605  0.26623  Biso   1.000  C
  C942     1.0000 0.76855  0.98891  0.76600  Biso   1.000  C
  C943     1.0000 0.76530  0.73657  0.02898  Biso   1.000  C
  C944     1.0000 0.50697  0.21445  0.27717  Biso   1.000  C
  C945     1.0000 0.23705  0.47228  0.76239  Biso   1.000  C
  C946     1.0000 0.26034  0.74668  0.53067  Biso   1.000  C
  C947     1.0000 0.98786  0.22328  0.26138  Biso   1.000  C
  C948     1.0000 0.74419  0.51125  0.78511  Biso   1.000  C
  C949     1.0000 0.26313  0.73614  0.02076  Biso   1.000  C
  C950     1.0000 0.97561  0.24507  0.75796  Biso   1.000  C
  C951     1.0000 0.71360  0.00535  0.26151  Biso   1.000  C
  C952     1.0000 0.76603  0.72222  0.53624  Biso   1.000  C
  C953     1.0000 0.48414  0.24810  0.77133  Biso   1.000  C
  C954     1.0000 0.21375  0.00501  0.27905  Biso   1.000  C
  C955     1.0000 0.22533  0.23184  0.02609  Biso   1.000  C
  C956     1.0000 0.50487  0.74502  0.76643  Biso   1.000  C
  C957     1.0000 0.75877  0.49783  0.28418  Biso   1.000  C
  C958     1.0000 0.73375  0.21854  0.51299  Biso   1.000  C
  C959     1.0000 0.99544  0.74223  0.78876  Biso   1.000  C
  C960     1.0000 0.25996  0.50151  0.25822  Biso   1.000  C
  Cu1      1.0000 0.00553  0.48521  0.67301  Biso   1.000  Cu
  Cu2      1.0000 0.64676  0.97880  0.50778  Biso   1.000  Cu
  Cu3      1.0000 0.49873  0.63407  0.02396  Biso   1.000  Cu
  Cu4      1.0000 0.50467  0.47905  0.86518  Biso   1.000  Cu
  Cu5      1.0000 0.14362  0.99424  0.03399  Biso   1.000  Cu
  Cu6      1.0000 0.00251  0.63225  0.52393  Biso   1.000  Cu
  Cu7      1.0000 0.50436  0.98683  0.67389  Biso   1.000  Cu
  Cu8      1.0000 0.84599  0.48011  0.52470  Biso   1.000  Cu
  Cu9      1.0000 0.98660  0.13665  0.02290  Biso   1.000  Cu
  Cu10     1.0000 0.00161  0.98296  0.87075  Biso   1.000  Cu
  Cu11     1.0000 0.34851  0.49117  0.01962  Biso   1.000  Cu
  Cu12     1.0000 0.49269  0.13395  0.51552  Biso   1.000  Cu
  Cu13     1.0000 0.99628  0.48801  0.36259  Biso   1.000  Cu
  Cu14     1.0000 0.34344  0.98268  0.53462  Biso   1.000  Cu
  Cu15     1.0000 0.48793  0.32626  0.01547  Biso   1.000  Cu
  Cu16     1.0000 0.49890  0.48331  0.17188  Biso   1.000  Cu
  Cu17     1.0000 0.83657  0.97457  0.00759  Biso   1.000  Cu
  Cu18     1.0000 0.99601  0.33192  0.51835  Biso   1.000  Cu
  Cu19     1.0000 0.47715  0.97789  0.36925  Biso   1.000  Cu
  Cu20     1.0000 0.15436  0.48776  0.51912  Biso   1.000  Cu
  Cu21     1.0000 0.99887  0.84022  0.02263  Biso   1.000  Cu
  Cu22     1.0000 0.98003  0.98754  0.17145  Biso   1.000  Cu
  Cu23     1.0000 0.65361  0.47574  0.02314  Biso   1.000  Cu
  Cu24     1.0000 0.50401  0.82487  0.52615  Biso   1.000  Cu
  Cu25     1.0000 0.19988  0.99352  0.03539  Biso   1.000  Cu
  Cu26     1.0000 0.98372  0.19209  0.02342  Biso   1.000  Cu
  Cu27     1.0000 0.97608  0.98532  0.22803  Biso   1.000  Cu
  Cu28     1.0000 0.70120  0.98230  0.50337  Biso   1.000  Cu
  Cu29     1.0000 0.49220  0.18983  0.51484  Biso   1.000  Cu
  Cu30     1.0000 0.47728  0.97606  0.31560  Biso   1.000  Cu
  Cu31     1.0000 0.29436  0.49324  0.02013  Biso   1.000  Cu
  Cu32     1.0000 0.50478  0.68839  0.02221  Biso   1.000  Cu
  Cu33     1.0000 0.49842  0.47813  0.22587  Biso   1.000  Cu
  Cu34     1.0000 0.79171  0.48025  0.52539  Biso   1.000  Cu
  Cu35     1.0000 0.00117  0.68597  0.52122  Biso   1.000  Cu
  Cu36     1.0000 0.99652  0.48781  0.30942  Biso   1.000  Cu
  Cu37     1.0000 0.78256  0.97410  0.00638  Biso   1.000  Cu
  Cu38     1.0000 0.00108  0.78520  0.02494  Biso   1.000  Cu
  Cu39     1.0000 0.00547  0.98081  0.81683  Biso   1.000  Cu
  Cu40     1.0000 0.28957  0.98035  0.54007  Biso   1.000  Cu
  Cu41     1.0000 0.50432  0.77127  0.52862  Biso   1.000  Cu
  Cu42     1.0000 0.50786  0.98762  0.73019  Biso   1.000  Cu
  Cu43     1.0000 0.70886  0.47283  0.01995  Biso   1.000  Cu
  Cu44     1.0000 0.48779  0.27248  0.01629  Biso   1.000  Cu
  Cu45     1.0000 0.50718  0.47963  0.80932  Biso   1.000  Cu
  Cu46     1.0000 0.20854  0.48423  0.51456  Biso   1.000  Cu
  Cu47     1.0000 0.99787  0.27940  0.51692  Biso   1.000  Cu
  Cu48     1.0000 0.00195  0.48205  0.72742  Biso   1.000  Cu
  H1       1.0000 0.23747  0.77280  0.56292  Biso   1.000  H
  H2       1.0000 0.52334  0.26305  0.75487  Biso   1.000  H
  H3       1.0000 0.73092  0.51994  0.31473  Biso   1.000  H
  H4       1.0000 0.74848  0.75721  0.98968  Biso   1.000  H
  H5       1.0000 0.95037  0.21979  0.72773  Biso   1.000  H
  H6       1.0000 0.29191  0.51856  0.28764  Biso   1.000  H
  H7       1.0000 0.25357  0.27135  0.56455  Biso   1.000  H
  H8       1.0000 0.96154  0.76544  0.76729  Biso   1.000  H
  H9       1.0000 0.67656  0.02635  0.23907  Biso   1.000  H
  H10      1.0000 0.75380  0.26305  0.05104  Biso   1.000  H
  H11      1.0000 0.47423  0.77408  0.78856  Biso   1.000  H
  H12      1.0000 0.24006  0.03107  0.25282  Biso   1.000  H
  H13      1.0000 0.70446  0.24484  0.48615  Biso   1.000  H
  H14      1.0000 0.51880  0.73499  0.24521  Biso   1.000  H
  H15      1.0000 0.26387  0.44764  0.73658  Biso   1.000  H
  H16      1.0000 0.24832  0.20332  0.05666  Biso   1.000  H
  H17      1.0000 0.04069  0.69905  0.26678  Biso   1.000  H
  H18      1.0000 0.71775  0.48834  0.75659  Biso   1.000  H
  H19      1.0000 0.79496  0.74600  0.50843  Biso   1.000  H
  H20      1.0000 0.02771  0.23493  0.23813  Biso   1.000  H
  H21      1.0000 0.24315  0.99118  0.75485  Biso   1.000  H
  H22      1.0000 0.24078  0.70964  0.05163  Biso   1.000  H
  H23      1.0000 0.52878  0.18261  0.25026  Biso   1.000  H
  H24      1.0000 0.80484  0.98163  0.73505  Biso   1.000  H
  H25      1.0000 0.26724  0.00080  0.82481  Biso   1.000  H
  H26      1.0000 0.76330  0.21778  0.07350  Biso   1.000  H
  H27      1.0000 0.98781  0.72308  0.23531  Biso   1.000  H
  H28      1.0000 0.77377  0.96099  0.71665  Biso   1.000  H
  H29      1.0000 0.22527  0.19035  0.51620  Biso   1.000  H
  H30      1.0000 0.49673  0.76957  0.25904  Biso   1.000  H
  H31      1.0000 0.28759  0.50381  0.75664  Biso   1.000  H
  H32      1.0000 0.76689  0.68697  0.05863  Biso   1.000  H
  H33      1.0000 0.47085  0.26513  0.27696  Biso   1.000  H
  H34      1.0000 0.74139  0.53274  0.73357  Biso   1.000  H
  H35      1.0000 0.21079  0.75046  0.50121  Biso   1.000  H
  H36      1.0000 0.97585  0.22142  0.31714  Biso   1.000  H
  H37      1.0000 0.70941  0.98143  0.21177  Biso   1.000  H
  H38      1.0000 0.27021  0.79674  0.01943  Biso   1.000  H
  H39      1.0000 0.94859  0.24193  0.81425  Biso   1.000  H
  H40      1.0000 0.21192  0.97004  0.32768  Biso   1.000  H
  H41      1.0000 0.77012  0.77596  0.55710  Biso   1.000  H
  H42      1.0000 0.45721  0.19671  0.77577  Biso   1.000  H
  H43      1.0000 0.70664  0.47830  0.29308  Biso   1.000  H
  H44      1.0000 0.22176  0.29250  0.01522  Biso   1.000  H
  H45      1.0000 0.54452  0.70020  0.77208  Biso   1.000  H
  H46      1.0000 0.25709  0.46074  0.29927  Biso   1.000  H
  H47      1.0000 0.73029  0.26575  0.54375  Biso   1.000  H
  H48      1.0000 0.03422  0.69762  0.78678  Biso   1.000  H
  H49      1.0000 0.21183  0.53516  0.26169  Biso   1.000  H
  H50      1.0000 0.28570  0.24537  0.55967  Biso   1.000  H
  H51      1.0000 0.53002  0.21637  0.22325  Biso   1.000  H
  H52      1.0000 0.76472  0.51602  0.22801  Biso   1.000  H
  H53      1.0000 0.72952  0.19231  0.98844  Biso   1.000  H
  H54      1.0000 0.00851  0.27976  0.24966  Biso   1.000  H
  H55      1.0000 0.26556  0.03703  0.28356  Biso   1.000  H
  H56      1.0000 0.25936  0.69885  0.56329  Biso   1.000  H
  H57      1.0000 0.03276  0.78109  0.28824  Biso   1.000  H
  H58      1.0000 0.76452  0.03552  0.26066  Biso   1.000  H
  H59      1.0000 0.71067  0.73783  0.00211  Biso   1.000  H
  H60      1.0000 0.46057  0.70861  0.32035  Biso   1.000  H
  H61      1.0000 0.80283  0.49873  0.79183  Biso   1.000  H
  H62      1.0000 0.71838  0.71599  0.51129  Biso   1.000  H
  H63      1.0000 0.46412  0.73667  0.80999  Biso   1.000  H
  H64      1.0000 0.23254  0.45392  0.81967  Biso   1.000  H
  H65      1.0000 0.20661  0.72827  0.02635  Biso   1.000  H
  H66      1.0000 0.96780  0.73758  0.73483  Biso   1.000  H
  H67      1.0000 0.71688  0.02090  0.76254  Biso   1.000  H
  H68      1.0000 0.78195  0.21984  0.48195  Biso   1.000  H
  H69      1.0000 0.01032  0.19893  0.75339  Biso   1.000  H
  H70      1.0000 0.22711  0.92528  0.78460  Biso   1.000  H
  H71      1.0000 0.28028  0.22486  0.04238  Biso   1.000  H
  H72      1.0000 0.50915  0.25087  0.71572  Biso   1.000  H
  H73      1.0000 0.77014  0.53035  0.82048  Biso   1.000  H
  H74      1.0000 0.73634  0.69629  0.56097  Biso   1.000  H
  H75      1.0000 0.53555  0.72201  0.74040  Biso   1.000  H
  H76      1.0000 0.20611  0.49608  0.78683  Biso   1.000  H
  H77      1.0000 0.29293  0.76213  0.99470  Biso   1.000  H
  H78      1.0000 0.02234  0.72129  0.81898  Biso   1.000  H
  H79      1.0000 0.73984  0.00563  0.79800  Biso   1.000  H
  H80      1.0000 0.76009  0.18981  0.53690  Biso   1.000  H
  H81      1.0000 0.00299  0.26548  0.78569  Biso   1.000  H
  H82      1.0000 0.29790  0.92976  0.80038  Biso   1.000  H
  H83      1.0000 0.20034  0.25736  0.99478  Biso   1.000  H
  H84      1.0000 0.44297  0.23433  0.79626  Biso   1.000  H
  H85      1.0000 0.22975  0.48845  0.22512  Biso   1.000  H
  H86      1.0000 0.20460  0.22288  0.50100  Biso   1.000  H
  H87      1.0000 0.48142  0.23929  0.30867  Biso   1.000  H
  H88      1.0000 0.78708  0.46850  0.26194  Biso   1.000  H
  H89      1.0000 0.69230  0.20705  0.01089  Biso   1.000  H
  H90      1.0000 0.94960  0.20335  0.28251  Biso   1.000  H
  H91      1.0000 0.18074  0.98072  0.30365  Biso   1.000  H
  H92      1.0000 0.28552  0.71944  0.50432  Biso   1.000  H
  H93      1.0000 0.98278  0.75581  0.31483  Biso   1.000  H
  H94      1.0000 0.74351  0.97637  0.28994  Biso   1.000  H
  H95      1.0000 0.78626  0.72176  0.06763  Biso   1.000  H
  H96      1.0000 0.44311  0.69281  0.28074  Biso   1.000  H
  H97      1.0000 0.86114  0.98566  0.92138  Biso   1.000  H
  H98      1.0000 0.90121  0.85568  0.03263  Biso   1.000  H
  H99      1.0000 0.99072  0.89091  0.89148  Biso   1.000  H
  H100     1.0000 0.37113  0.97020  0.62417  Biso   1.000  H
  H101     1.0000 0.40803  0.85210  0.52464  Biso   1.000  H
  H102     1.0000 0.51674  0.89548  0.66188  Biso   1.000  H
  H103     1.0000 0.63209  0.47671  0.92713  Biso   1.000  H
  H104     1.0000 0.58036  0.34470  0.01921  Biso   1.000  H
  H105     1.0000 0.51007  0.38597  0.88648  Biso   1.000  H
  H106     1.0000 0.13848  0.47747  0.61010  Biso   1.000  H
  H107     1.0000 0.08732  0.35213  0.52127  Biso   1.000  H
  H108     1.0000 0.99388  0.39258  0.64975  Biso   1.000  H
  H109     1.0000 0.12183  0.00850  0.12117  Biso   1.000  H
  H110     1.0000 0.08416  0.11918  0.02318  Biso   1.000  H
  H111     1.0000 0.96911  0.07672  0.15658  Biso   1.000  H
  H112     1.0000 0.62014  0.97673  0.42063  Biso   1.000  H
  H113     1.0000 0.58262  0.11150  0.51875  Biso   1.000  H
  H114     1.0000 0.48979  0.07013  0.38719  Biso   1.000  H
  H115     1.0000 0.36803  0.50347  0.11027  Biso   1.000  H
  H116     1.0000 0.41184  0.62943  0.00892  Biso   1.000  H
  H117     1.0000 0.49620  0.57564  0.15633  Biso   1.000  H
  H118     1.0000 0.86719  0.48477  0.43026  Biso   1.000  H
  H119     1.0000 0.91210  0.61212  0.52069  Biso   1.000  H
  H120     1.0000 0.99216  0.57575  0.38223  Biso   1.000  H
  H121     1.0000 0.09111  0.97566  0.89681  Biso   1.000  H
  H122     1.0000 0.85649  0.06700  0.00495  Biso   1.000  H
  H123     1.0000 0.00412  0.85789  0.11488  Biso   1.000  H
  H124     1.0000 0.59553  0.98782  0.64613  Biso   1.000  H
  H125     1.0000 0.35708  0.07071  0.53011  Biso   1.000  H
  H126     1.0000 0.49588  0.84703  0.43376  Biso   1.000  H
  H127     1.0000 0.40949  0.47508  0.88438  Biso   1.000  H
  H128     1.0000 0.63616  0.56561  0.02597  Biso   1.000  H
  H129     1.0000 0.49657  0.34765  0.10570  Biso   1.000  H
  H130     1.0000 0.91337  0.48050  0.65450  Biso   1.000  H
  H131     1.0000 0.13452  0.57605  0.51611  Biso   1.000  H
  H132     1.0000 0.00246  0.35888  0.42400  Biso   1.000  H
  H133     1.0000 0.89321  0.97165  0.15222  Biso   1.000  H
  H134     1.0000 0.12725  0.90160  0.03412  Biso   1.000  H
  H135     1.0000 0.99726  0.11547  0.93015  Biso   1.000  H
  H136     1.0000 0.39141  0.98343  0.39436  Biso   1.000  H
  H137     1.0000 0.63101  0.88554  0.50571  Biso   1.000  H
  H138     1.0000 0.49524  0.11388  0.60723  Biso   1.000  H
  H139     1.0000 0.59201  0.47417  0.15371  Biso   1.000  H
  H140     1.0000 0.36261  0.39945  0.02240  Biso   1.000  H
  H141     1.0000 0.50892  0.60986  0.93332  Biso   1.000  H
  H142     1.0000 0.08665  0.49207  0.38329  Biso   1.000  H
  H143     1.0000 0.86351  0.39113  0.51269  Biso   1.000  H
  H144     1.0000 0.00783  0.61746  0.61540  Biso   1.000  H
  H145     1.0000 0.59419  0.48707  0.88560  Biso   1.000  H
  H146     1.0000 0.86857  0.56972  0.53986  Biso   1.000  H
  H147     1.0000 0.51446  0.85096  0.61914  Biso   1.000  H
  H148     1.0000 0.09315  0.46670  0.65413  Biso   1.000  H
  H149     1.0000 0.37235  0.58877  0.01614  Biso   1.000  H
  H150     1.0000 0.98974  0.84957  0.93462  Biso   1.000  H
  H151     1.0000 0.91067  0.98486  0.88272  Biso   1.000  H
  H152     1.0000 0.62885  0.06609  0.50982  Biso   1.000  H
  H153     1.0000 0.97978  0.34654  0.60965  Biso   1.000  H
  H154     1.0000 0.41411  0.97162  0.66469  Biso   1.000  H
  H155     1.0000 0.12176  0.08217  0.02462  Biso   1.000  H
  H156     1.0000 0.48946  0.34599  0.92421  Biso   1.000  H
  H157     1.0000 0.40798  0.48822  0.15071  Biso   1.000  H
  H158     1.0000 0.13204  0.39398  0.51820  Biso   1.000  H
  H159     1.0000 0.49332  0.11018  0.42527  Biso   1.000  H
  H160     1.0000 0.90477  0.48206  0.38884  Biso   1.000  H
  H161     1.0000 0.62858  0.38817  0.02743  Biso   1.000  H
  H162     1.0000 0.97620  0.11838  0.11442  Biso   1.000  H
  H163     1.0000 0.07437  0.00038  0.15926  Biso   1.000  H
  H164     1.0000 0.36791  0.89296  0.52828  Biso   1.000  H
  H165     1.0000 0.99612  0.61646  0.42942  Biso   1.000  H
  H166     1.0000 0.57408  0.97452  0.38230  Biso   1.000  H
  H167     1.0000 0.85867  0.88950  0.01383  Biso   1.000  H
  H168     1.0000 0.48839  0.61552  0.11389  Biso   1.000  H
  H169     1.0000 0.00999  0.07629  0.88756  Biso   1.000  H
  H170     1.0000 0.84966  0.96706  0.10187  Biso   1.000  H
  H171     1.0000 0.08955  0.86038  0.02510  Biso   1.000  H
  H172     1.0000 0.49546  0.07668  0.64690  Biso   1.000  H
  H173     1.0000 0.35216  0.98028  0.44177  Biso   1.000  H
  H174     1.0000 0.59163  0.84051  0.50416  Biso   1.000  H
  H175     1.0000 0.50535  0.56515  0.88750  Biso   1.000  H
  H176     1.0000 0.63482  0.47775  0.11350  Biso   1.000  H
  H177     1.0000 0.40280  0.35352  0.01233  Biso   1.000  H
  H178     1.0000 0.01199  0.57306  0.65421  Biso   1.000  H
  H179     1.0000 0.13286  0.49086  0.42956  Biso   1.000  H
  H180     1.0000 0.90307  0.35108  0.50624  Biso   1.000  H
  H181     1.0000 0.99353  0.89618  0.15787  Biso   1.000  H
  H182     1.0000 0.12979  0.97336  0.94286  Biso   1.000  H
  H183     1.0000 0.90163  0.11417  0.01536  Biso   1.000  H
  H184     1.0000 0.49045  0.88996  0.39103  Biso   1.000  H
  H185     1.0000 0.63183  0.98099  0.60250  Biso   1.000  H
  H186     1.0000 0.40002  0.11625  0.51982  Biso   1.000  H
  H187     1.0000 0.49967  0.39243  0.15111  Biso   1.000  H
  H188     1.0000 0.36984  0.46580  0.92732  Biso   1.000  H
  H189     1.0000 0.59355  0.60602  0.03125  Biso   1.000  H
  H190     1.0000 0.99791  0.39635  0.38605  Biso   1.000  H
  H191     1.0000 0.86680  0.47291  0.61426  Biso   1.000  H
  H192     1.0000 0.09176  0.61778  0.51387  Biso   1.000  H
  H193     1.0000 0.27169  0.83945  0.52411  Biso   1.000  H
  H194     1.0000 0.47905  0.25293  0.86911  Biso   1.000  H
  H195     1.0000 0.85010  0.49998  0.29428  Biso   1.000  H
  H196     1.0000 0.76506  0.82928  0.02364  Biso   1.000  H
  H197     1.0000 0.98501  0.25194  0.66462  Biso   1.000  H
  H198     1.0000 0.35379  0.48256  0.24609  Biso   1.000  H
  H199     1.0000 0.22821  0.33892  0.52017  Biso   1.000  H
  H200     1.0000 0.98450  0.75303  0.88268  Biso   1.000  H
  H201     1.0000 0.61676  0.98458  0.27927  Biso   1.000  H
  H202     1.0000 0.72153  0.32730  0.02374  Biso   1.000  H
  H203     1.0000 0.51372  0.75511  0.67454  Biso   1.000  H
  H204     1.0000 0.11183  0.00836  0.26332  Biso   1.000  H
  H205     1.0000 0.72168  0.12729  0.49598  Biso   1.000  H
  H206     1.0000 0.49420  0.71106  0.16834  Biso   1.000  H
  H207     1.0000 0.14710  0.46903  0.74962  Biso   1.000  H
  H208     1.0000 0.21949  0.13572  0.02295  Biso   1.000  H
  H209     1.0000 0.00659  0.71309  0.37989  Biso   1.000  H
  H210     1.0000 0.65091  0.51200  0.79483  Biso   1.000  H
  H211     1.0000 0.77351  0.62353  0.53622  Biso   1.000  H
  H212     1.0000 0.98846  0.21323  0.16904  Biso   1.000  H
  H213     1.0000 0.36589  0.96494  0.76453  Biso   1.000  H
  H214     1.0000 0.27106  0.63464  0.01530  Biso   1.000  H
  H215     1.0000 0.52109  0.20297  0.36960  Biso   1.000  H
  H216     1.0000 0.86570  0.00095  0.78343  Biso   1.000  H
  H217     1.0000 0.22662  0.48328  0.37583  Biso   1.000  H
  H218     1.0000 0.34899  0.21416  0.52403  Biso   1.000  H
  H219     1.0000 0.50760  0.33370  0.24710  Biso   1.000  H
  H220     1.0000 0.73128  0.47415  0.16792  Biso   1.000  H
  H221     1.0000 0.83887  0.20498  0.03327  Biso   1.000  H
  H222     1.0000 0.98623  0.34515  0.29094  Biso   1.000  H
  H223     1.0000 0.25079  0.99014  0.39997  Biso   1.000  H
  H224     1.0000 0.14313  0.71304  0.53742  Biso   1.000  H
  H225     1.0000 0.99825  0.84381  0.25319  Biso   1.000  H
  H226     1.0000 0.75097  0.99497  0.14614  Biso   1.000  H
  H227     1.0000 0.64557  0.70230  0.04162  Biso   1.000  H
  H228     1.0000 0.46646  0.83371  0.29898  Biso   1.000  H
  H229     1.0000 0.76886  0.48460  0.67194  Biso   1.000  H
  H230     1.0000 0.64625  0.75263  0.54235  Biso   1.000  H
  H231     1.0000 0.50542  0.62704  0.79434  Biso   1.000  H
  H232     1.0000 0.27309  0.48479  0.87886  Biso   1.000  H
  H233     1.0000 0.14272  0.76532  0.00793  Biso   1.000  H
  H234     1.0000 0.00237  0.62826  0.74908  Biso   1.000  H
  H235     1.0000 0.73444  0.97248  0.64346  Biso   1.000  H
  H236     1.0000 0.85454  0.25128  0.51112  Biso   1.000  H
  H237     1.0000 0.99296  0.12874  0.78892  Biso   1.000  H
  H238     1.0000 0.22817  0.97031  0.89086  Biso   1.000  H
  H239     1.0000 0.34024  0.26181  0.01429  Biso   1.000  H
  H240     1.0000 0.49475  0.13113  0.74466  Biso   1.000  H
  H241     1.0000 0.73393  0.48941  0.87975  Biso   1.000  H
  H242     1.0000 0.86107  0.70954  0.53247  Biso   1.000  H
  H243     1.0000 0.50805  0.84571  0.75907  Biso   1.000  H
  H244     1.0000 0.23302  0.47913  0.66324  Biso   1.000  H
  H245     1.0000 0.36026  0.72295  0.01483  Biso   1.000  H
  H246     1.0000 0.99640  0.83776  0.79473  Biso   1.000  H
  H247     1.0000 0.77559  0.96738  0.85960  Biso   1.000  H
  H248     1.0000 0.63964  0.20712  0.52429  Biso   1.000  H
  H249     1.0000 0.98108  0.34056  0.74809  Biso   1.000  H
  H250     1.0000 0.27649  0.95318  0.67846  Biso   1.000  H
  H251     1.0000 0.12856  0.22226  0.01446  Biso   1.000  H
  H252     1.0000 0.50362  0.34099  0.78411  Biso   1.000  H
  H253     1.0000 0.27634  0.52090  0.16584  Biso   1.000  H
  H254     1.0000 0.13803  0.25694  0.53767  Biso   1.000  H
  H255     1.0000 0.50169  0.12013  0.28907  Biso   1.000  H
  H256     1.0000 0.76821  0.49405  0.38259  Biso   1.000  H
  H257     1.0000 0.62892  0.24489  0.04317  Biso   1.000  H
  H258     1.0000 0.97228  0.12689  0.25403  Biso   1.000  H
  H259     1.0000 0.21237  0.99700  0.18708  Biso   1.000  H
  H260     1.0000 0.35715  0.75208  0.53127  Biso   1.000  H
  H261     1.0000 0.99762  0.63329  0.29087  Biso   1.000  H
  H262     1.0000 0.70924  0.00393  0.35733  Biso   1.000  H
  H263     1.0000 0.85852  0.75409  0.03760  Biso   1.000  H
  H264     1.0000 0.48913  0.62274  0.25611  Biso   1.000  H
  H265     1.0000 0.98795  0.21117  0.87732  Biso   1.000  H
  H266     1.0000 0.83077  0.99461  0.24008  Biso   1.000  H
  H267     1.0000 0.22244  0.85139  0.05382  Biso   1.000  H
  H268     1.0000 0.47714  0.21213  0.65546  Biso   1.000  H
  H269     1.0000 0.32854  0.99065  0.30421  Biso   1.000  H
  H270     1.0000 0.73215  0.84199  0.52432  Biso   1.000  H
  H271     1.0000 0.49834  0.70842  0.88293  Biso   1.000  H
  H272     1.0000 0.64237  0.49926  0.25012  Biso   1.000  H
  H273     1.0000 0.26436  0.35287  0.04352  Biso   1.000  H
  H274     1.0000 0.00667  0.71369  0.66560  Biso   1.000  H
  H275     1.0000 0.14359  0.49936  0.29016  Biso   1.000  H
  H276     1.0000 0.76430  0.33803  0.51270  Biso   1.000  H
  H277     1.0000 0.02764  0.76214  0.16817  Biso   1.000  H
  H278     1.0000 0.15234  0.96072  0.80445  Biso   1.000  H
  H279     1.0000 0.75814  0.11702  0.01725  Biso   1.000  H
  H280     1.0000 0.49610  0.74725  0.38376  Biso   1.000  H
  H281     1.0000 0.65310  0.98758  0.73860  Biso   1.000  H
  H282     1.0000 0.26715  0.12882  0.55082  Biso   1.000  H
  H283     1.0000 0.49006  0.25081  0.16039  Biso   1.000  H
  H284     1.0000 0.35974  0.47326  0.78995  Biso   1.000  H
  H285     1.0000 0.73108  0.62083  0.02953  Biso   1.000  H
  H286     1.0000 0.01495  0.26271  0.37505  Biso   1.000  H
  H287     1.0000 0.86128  0.51033  0.75012  Biso   1.000  H
  H288     1.0000 0.23024  0.63384  0.52068  Biso   1.000  H
  H289     1.0000 0.07295  0.21625  0.01303  Biso   1.000  H
  H290     1.0000 0.97214  0.07208  0.25052  Biso   1.000  H
  H291     1.0000 0.21810  0.99590  0.13208  Biso   1.000  H
  H292     1.0000 0.58495  0.21011  0.53086  Biso   1.000  H
  H293     1.0000 0.49365  0.06587  0.28961  Biso   1.000  H
  H294     1.0000 0.71270  0.99772  0.41352  Biso   1.000  H
  H295     1.0000 0.41524  0.71945  0.00471  Biso   1.000  H
  H296     1.0000 0.48969  0.56806  0.24951  Biso   1.000  H
  H297     1.0000 0.27500  0.52470  0.11158  Biso   1.000  H
  H298     1.0000 0.91305  0.70758  0.52758  Biso   1.000  H
  H299     1.0000 0.98291  0.58046  0.29053  Biso   1.000  H
  H300     1.0000 0.77052  0.49078  0.43987  Biso   1.000  H
  H301     1.0000 0.91627  0.76192  0.04099  Biso   1.000  H
  H302     1.0000 0.99438  0.89205  0.79681  Biso   1.000  H
  H303     1.0000 0.76946  0.96300  0.91250  Biso   1.000  H
  H304     1.0000 0.41313  0.75430  0.53606  Biso   1.000  H
  H305     1.0000 0.51520  0.89724  0.75796  Biso   1.000  H
  H306     1.0000 0.27171  0.96126  0.63071  Biso   1.000  H
  H307     1.0000 0.57364  0.25271  0.04149  Biso   1.000  H
  H308     1.0000 0.51571  0.39242  0.78988  Biso   1.000  H
  H309     1.0000 0.73074  0.47602  0.93359  Biso   1.000  H
  H310     1.0000 0.08535  0.25832  0.53492  Biso   1.000  H
  H311     1.0000 0.98628  0.39524  0.74304  Biso   1.000  H
  H312     1.0000 0.23310  0.48306  0.60820  Biso   1.000  H
  H313     1.0000 0.22695  0.98274  0.94616  Biso   1.000  H
  H314     1.0000 0.89458  0.20435  0.03771  Biso   1.000  H
  H315     1.0000 0.99432  0.89736  0.25259  Biso   1.000  H
  H316     1.0000 0.72851  0.97084  0.58930  Biso   1.000  H
  H317     1.0000 0.40144  0.21434  0.51643  Biso   1.000  H
  H318     1.0000 0.46398  0.88690  0.29689  Biso   1.000  H
  H319     1.0000 0.27391  0.48836  0.93198  Biso   1.000  H
  H320     1.0000 0.59289  0.70271  0.03135  Biso   1.000  H
  H321     1.0000 0.50075  0.39165  0.24832  Biso   1.000  H
  H322     1.0000 0.77079  0.47037  0.61793  Biso   1.000  H
  H323     1.0000 0.08831  0.71201  0.52886  Biso   1.000  H
  H324     1.0000 0.98340  0.39746  0.29169  Biso   1.000  H
  H325     1.0000 0.75723  0.98687  0.09199  Biso   1.000  H
  H326     1.0000 0.08958  0.76591  0.00306  Biso   1.000  H
  H327     1.0000 0.00494  0.07370  0.79076  Biso   1.000  H
  H328     1.0000 0.26004  0.99254  0.45432  Biso   1.000  H
  H329     1.0000 0.59907  0.74810  0.53150  Biso   1.000  H
  H330     1.0000 0.50325  0.07860  0.74277  Biso   1.000  H
  H331     1.0000 0.72979  0.46749  0.11320  Biso   1.000  H
  H332     1.0000 0.39447  0.25799  0.00794  Biso   1.000  H
  H333     1.0000 0.50631  0.57554  0.79284  Biso   1.000  H
  H334     1.0000 0.22730  0.48343  0.42814  Biso   1.000  H
  H335     1.0000 0.90961  0.25538  0.50638  Biso   1.000  H
  H336     1.0000 0.01016  0.57223  0.74889  Biso   1.000  H
  H337     1.0000 0.98229  0.20995  0.92878  Biso   1.000  H
  H338     1.0000 0.88057  0.99102  0.24442  Biso   1.000  H
  H339     1.0000 0.21754  0.90348  0.06276  Biso   1.000  H
  H340     1.0000 0.48609  0.20936  0.60073  Biso   1.000  H
  H341     1.0000 0.38277  0.98813  0.29995  Biso   1.000  H
  H342     1.0000 0.72788  0.89281  0.51102  Biso   1.000  H
  H343     1.0000 0.50239  0.70476  0.93607  Biso   1.000  H
  H344     1.0000 0.58888  0.49189  0.24798  Biso   1.000  H
  H345     1.0000 0.26656  0.40474  0.04121  Biso   1.000  H
  H346     1.0000 0.00413  0.71254  0.61169  Biso   1.000  H
  H347     1.0000 0.08810  0.50161  0.28910  Biso   1.000  H
  H348     1.0000 0.76807  0.38935  0.51896  Biso   1.000  H
  H349     1.0000 0.03381  0.76554  0.11458  Biso   1.000  H
  H350     1.0000 0.09436  0.96974  0.80205  Biso   1.000  H
  H351     1.0000 0.76028  0.06595  0.99808  Biso   1.000  H
  H352     1.0000 0.50223  0.75177  0.43701  Biso   1.000  H
  H353     1.0000 0.60134  0.98551  0.74071  Biso   1.000  H
  H354     1.0000 0.26434  0.07374  0.55183  Biso   1.000  H
  H355     1.0000 0.48053  0.25442  0.10579  Biso   1.000  H
  H356     1.0000 0.41484  0.47387  0.78989  Biso   1.000  H
  H357     1.0000 0.73427  0.56532  0.02911  Biso   1.000  H
  H358     1.0000 0.02139  0.26510  0.42806  Biso   1.000  H
  H359     1.0000 0.91518  0.50233  0.74948  Biso   1.000  H
  H360     1.0000 0.23156  0.57953  0.51599  Biso   1.000  H
  H361     1.0000 0.99920  0.71155  0.43087  Biso   1.000  H
  H362     1.0000 0.41903  0.96806  0.75886  Biso   1.000  H
  H363     1.0000 0.72289  0.38106  0.01668  Biso   1.000  H
  H364     1.0000 0.49392  0.71154  0.11603  Biso   1.000  H
  H365     1.0000 0.91985  0.00523  0.78982  Biso   1.000  H
  H366     1.0000 0.22763  0.39265  0.51475  Biso   1.000  H
  H367     1.0000 0.51658  0.20359  0.42540  Biso   1.000  H
  H368     1.0000 0.09217  0.46700  0.74787  Biso   1.000  H
  H369     1.0000 0.76304  0.88029  0.01048  Biso   1.000  H
  H370     1.0000 0.99129  0.21391  0.11250  Biso   1.000  H
  H371     1.0000 0.59719  0.50294  0.79143  Biso   1.000  H
  H372     1.0000 0.27186  0.89047  0.52281  Biso   1.000  H
  H373     1.0000 0.99114  0.25350  0.60993  Biso   1.000  H
  H374     1.0000 0.56595  0.97944  0.28557  Biso   1.000  H
  H375     1.0000 0.27625  0.58280  0.02544  Biso   1.000  H
  H376     1.0000 0.48436  0.24984  0.92260  Biso   1.000  H
  H377     1.0000 0.06445  0.99685  0.25527  Biso   1.000  H
  H378     1.0000 0.77151  0.57243  0.53757  Biso   1.000  H
  H379     1.0000 0.51015  0.75359  0.62083  Biso   1.000  H
  H380     1.0000 0.90498  0.49728  0.29456  Biso   1.000  H
  H381     1.0000 0.21966  0.08123  0.01671  Biso   1.000  H
  H382     1.0000 0.98912  0.75403  0.93678  Biso   1.000  H
  H383     1.0000 0.40808  0.46909  0.24222  Biso   1.000  H
  H384     1.0000 0.72131  0.07238  0.48954  Biso   1.000  H
  H385     1.0000 0.22248  0.45360  0.33144  Biso   1.000  H
  H386     1.0000 0.26252  0.15471  0.51046  Biso   1.000  H
  H387     1.0000 0.47037  0.30560  0.24303  Biso   1.000  H
  H388     1.0000 0.67301  0.46668  0.25052  Biso   1.000  H
  H389     1.0000 0.80441  0.18211  0.06775  Biso   1.000  H
  H390     1.0000 0.97220  0.26459  0.35109  Biso   1.000  H
  H391     1.0000 0.25252  0.95924  0.35669  Biso   1.000  H
  H392     1.0000 0.17303  0.71413  0.49799  Biso   1.000  H
  H393     1.0000 0.98766  0.75783  0.19341  Biso   1.000  H
  H394     1.0000 0.75048  0.96540  0.17930  Biso   1.000  H
  H395     1.0000 0.73120  0.64934  0.06361  Biso   1.000  H
  H396     1.0000 0.49812  0.80985  0.29540  Biso   1.000  H
  H397     1.0000 0.77668  0.52725  0.69252  Biso   1.000  H
  H398     1.0000 0.73576  0.81378  0.55123  Biso   1.000  H
  H399     1.0000 0.54230  0.66001  0.80286  Biso   1.000  H
  H400     1.0000 0.32759  0.50518  0.79124  Biso   1.000  H
  H401     1.0000 0.22994  0.83281  0.00983  Biso   1.000  H
  H402     1.0000 0.04135  0.66273  0.74974  Biso   1.000  H
  H403     1.0000 0.73323  0.95220  0.68217  Biso   1.000  H
  H404     1.0000 0.76893  0.30440  0.54538  Biso   1.000  H
  H405     1.0000 0.95103  0.20051  0.84582  Biso   1.000  H
  H406     1.0000 0.22922  0.00212  0.85978  Biso   1.000  H
  H407     1.0000 0.26015  0.32839  0.01470  Biso   1.000  H
  H408     1.0000 0.45563  0.15817  0.74003  Biso   1.000  H
  H409     1.0000 0.26824  0.48464  0.18568  Biso   1.000  H
  H410     1.0000 0.16637  0.26368  0.49924  Biso   1.000  H
  H411     1.0000 0.48190  0.20226  0.34736  Biso   1.000  H
  H412     1.0000 0.82244  0.46480  0.30040  Biso   1.000  H
  H413     1.0000 0.65521  0.24266  0.00867  Biso   1.000  H
  H414     1.0000 0.94178  0.16664  0.24721  Biso   1.000  H
  H415     1.0000 0.14477  0.97804  0.26413  Biso   1.000  H
  H416     1.0000 0.32644  0.75816  0.49815  Biso   1.000  H
  H417     1.0000 0.97298  0.71780  0.35117  Biso   1.000  H
  H418     1.0000 0.71003  0.96908  0.32802  Biso   1.000  H
  H419     1.0000 0.82151  0.75827  0.06864  Biso   1.000  H
  H420     1.0000 0.44782  0.65321  0.24528  Biso   1.000  H
  H421     1.0000 0.73154  0.52655  0.85440  Biso   1.000  H
  H422     1.0000 0.77260  0.65330  0.56400  Biso   1.000  H
  H423     1.0000 0.54187  0.76375  0.70419  Biso   1.000  H
  H424     1.0000 0.17420  0.50599  0.74709  Biso   1.000  H
  H425     1.0000 0.32963  0.72312  0.98961  Biso   1.000  H
  H426     1.0000 0.02271  0.75967  0.85419  Biso   1.000  H
  H427     1.0000 0.77523  0.01215  0.83693  Biso   1.000  H
  H428     1.0000 0.72112  0.15240  0.53807  Biso   1.000  H
  H429     1.0000 0.01201  0.30748  0.74978  Biso   1.000  H
  H430     1.0000 0.33407  0.92864  0.76012  Biso   1.000  H
  H431     1.0000 0.16219  0.21904  0.99102  Biso   1.000  H
  H432     1.0000 0.45183  0.26198  0.83772  Biso   1.000  H
  H433     1.0000 0.27705  0.98953  0.71183  Biso   1.000  H
  H434     1.0000 0.71801  0.30082  0.05347  Biso   1.000  H
  H435     1.0000 0.03477  0.66174  0.30395  Biso   1.000  H
  H436     1.0000 0.83963  0.97674  0.77307  Biso   1.000  H
  H437     1.0000 0.22186  0.31217  0.55987  Biso   1.000  H
  H438     1.0000 0.52270  0.70355  0.20737  Biso   1.000  H
  H439     1.0000 0.23050  0.44907  0.69134  Biso   1.000  H
  H440     1.0000 0.78149  0.80072  0.99291  Biso   1.000  H
  H441     1.0000 0.53799  0.14907  0.28828  Biso   1.000  H
  H442     1.0000 0.67978  0.47496  0.79570  Biso   1.000  H
  H443     1.0000 0.27947  0.80878  0.56364  Biso   1.000  H
  H444     1.0000 0.02341  0.19771  0.20322  Biso   1.000  H
  H445     1.0000 0.64229  0.01750  0.27794  Biso   1.000  H
  H446     1.0000 0.27562  0.66826  0.04622  Biso   1.000  H
  H447     1.0000 0.95149  0.26167  0.69195  Biso   1.000  H
  H448     1.0000 0.20470  0.03741  0.21378  Biso   1.000  H
  H449     1.0000 0.82784  0.70424  0.50220  Biso   1.000  H
  H450     1.0000 0.52733  0.30274  0.79178  Biso   1.000  H
  H451     1.0000 0.76525  0.52346  0.35126  Biso   1.000  H
  H452     1.0000 0.21120  0.16653  0.05723  Biso   1.000  H
  H453     1.0000 0.48045  0.81360  0.75541  Biso   1.000  H
  H454     1.0000 0.33022  0.51887  0.25127  Biso   1.000  H
  H455     1.0000 0.66541  0.20653  0.48700  Biso   1.000  H
  H456     1.0000 0.95750  0.80393  0.80030  Biso   1.000  H
  H457     1.0000 0.68005  0.75097  0.50282  Biso   1.000  H
  H458     1.0000 0.46474  0.69845  0.84844  Biso   1.000  H
  H459     1.0000 0.83420  0.48086  0.75674  Biso   1.000  H
  H460     1.0000 0.16971  0.76351  0.04329  Biso   1.000  H
  H461     1.0000 0.97117  0.70375  0.69773  Biso   1.000  H
  H462     1.0000 0.27260  0.45382  0.85532  Biso   1.000  H
  H463     1.0000 0.82050  0.25997  0.47998  Biso   1.000  H
  H464     1.0000 0.02376  0.16582  0.79164  Biso   1.000  H
  H465     1.0000 0.68306  0.02499  0.72266  Biso   1.000  H
  H466     1.0000 0.31951  0.25984  0.04786  Biso   1.000  H
  H467     1.0000 0.51280  0.21207  0.68204  Biso   1.000  H
  H468     1.0000 0.18255  0.93042  0.81273  Biso   1.000  H
  H469     1.0000 0.32343  0.20851  0.55658  Biso   1.000  H
  H470     1.0000 0.52778  0.25439  0.18422  Biso   1.000  H
  H471     1.0000 0.17386  0.53335  0.30488  Biso   1.000  H
  H472     1.0000 0.76489  0.15622  0.98403  Biso   1.000  H
  H473     1.0000 0.01925  0.31515  0.28302  Biso   1.000  H
  H474     1.0000 0.72779  0.51299  0.19113  Biso   1.000  H
  H475     1.0000 0.22385  0.65790  0.55669  Biso   1.000  H
  H476     1.0000 0.03254  0.81754  0.24945  Biso   1.000  H
  H477     1.0000 0.30425  0.02925  0.31770  Biso   1.000  H
  H478     1.0000 0.67476  0.70224  0.00633  Biso   1.000  H
  H479     1.0000 0.46235  0.74640  0.36048  Biso   1.000  H
  H480     1.0000 0.80498  0.02845  0.23017  Biso   1.000  H
  N1       1.0000 0.67003  0.15635  0.51290  Biso   1.000  N
  N2       1.0000 0.48589  0.65713  0.20121  Biso   1.000  N
  N3       1.0000 0.17895  0.47708  0.69543  Biso   1.000  N
  N4       1.0000 0.16438  0.16916  0.02147  Biso   1.000  N
  N5       1.0000 0.99969  0.66302  0.34497  Biso   1.000  N
  N6       1.0000 0.68079  0.49676  0.84611  Biso   1.000  N
  N7       1.0000 0.82455  0.65642  0.53230  Biso   1.000  N
  N8       1.0000 0.97803  0.16089  0.20062  Biso   1.000  N
  N9       1.0000 0.32968  0.96311  0.71186  Biso   1.000  N
  N10      1.0000 0.32454  0.67021  0.01498  Biso   1.000  N
  N11      1.0000 0.50693  0.15091  0.34065  Biso   1.000  N
  N12      1.0000 0.82892  0.98804  0.83234  Biso   1.000  N
  N13      1.0000 0.32525  0.80535  0.52863  Biso   1.000  N
  N14      1.0000 0.49225  0.30522  0.83863  Biso   1.000  N
  N15      1.0000 0.81940  0.49084  0.34932  Biso   1.000  N
  N16      1.0000 0.82309  0.80183  0.02827  Biso   1.000  N
  N17      1.0000 0.98401  0.30642  0.69608  Biso   1.000  N
  N18      1.0000 0.32410  0.49945  0.19626  Biso   1.000  N
  N19      1.0000 0.17389  0.30992  0.52612  Biso   1.000  N
  N20      1.0000 0.99102  0.80597  0.84992  Biso   1.000  N
  N21      1.0000 0.65434  0.99064  0.32992  Biso   1.000  N
  N22      1.0000 0.66446  0.29929  0.03028  Biso   1.000  N
  N23      1.0000 0.51186  0.80996  0.70552  Biso   1.000  N
  N24      1.0000 0.15436  0.00417  0.21259  Biso   1.000  N
  N25      1.0000 0.82735  0.49472  0.69933  Biso   1.000  N
  N26      1.0000 0.68071  0.80471  0.52499  Biso   1.000  N
  N27      1.0000 0.50378  0.65554  0.84844  Biso   1.000  N
  N28      1.0000 0.32489  0.47727  0.84400  Biso   1.000  N
  N29      1.0000 0.17361  0.81824  0.02812  Biso   1.000  N
  N30      1.0000 0.00864  0.66043  0.69816  Biso   1.000  N
  N31      1.0000 0.68472  0.98427  0.68215  Biso   1.000  N
  N32      1.0000 0.81842  0.30443  0.51333  Biso   1.000  N
  N33      1.0000 0.99059  0.15881  0.84296  Biso   1.000  N
  N34      1.0000 0.17910  0.96685  0.85935  Biso   1.000  N
  N35      1.0000 0.31447  0.31700  0.02970  Biso   1.000  N
  N36      1.0000 0.48476  0.15967  0.68989  Biso   1.000  N
  N37      1.0000 0.17383  0.49081  0.34250  Biso   1.000  N
  N38      1.0000 0.31630  0.15996  0.53277  Biso   1.000  N
  N39      1.0000 0.50119  0.30575  0.19244  Biso   1.000  N
  N40      1.0000 0.67729  0.48736  0.19815  Biso   1.000  N
  N41      1.0000 0.81046  0.14903  0.02326  Biso   1.000  N
  N42      1.0000 0.99843  0.31247  0.34209  Biso   1.000  N
  N43      1.0000 0.30157  0.99074  0.35995  Biso   1.000  N
  N44      1.0000 0.17658  0.66205  0.52511  Biso   1.000  N
  N45      1.0000 0.00758  0.81197  0.19883  Biso   1.000  N
  N46      1.0000 0.80349  0.98882  0.18360  Biso   1.000  N
  N47      1.0000 0.67872  0.65117  0.03563  Biso   1.000  N
  N48      1.0000 0.48564  0.80068  0.35061  Biso   1.000  N
  O1       1.0000 0.34730  0.53265  0.01721  Biso   1.000  O
  O2       1.0000 0.99379  0.32693  0.56005  Biso   1.000  O
  O3       1.0000 0.52097  0.97540  0.36324  Biso   1.000  O
  O4       1.0000 0.84411  0.52237  0.52896  Biso   1.000  O
  O5       1.0000 0.49296  0.32257  0.97318  Biso   1.000  O
  O6       1.0000 0.02077  0.99344  0.17666  Biso   1.000  O
  O7       1.0000 0.14842  0.03334  0.02380  Biso   1.000  O
  O8       1.0000 0.50475  0.82642  0.56854  Biso   1.000  O
  O9       1.0000 0.95512  0.47932  0.36271  Biso   1.000  O
  O10      1.0000 0.64930  0.02356  0.50258  Biso   1.000  O
  O11      1.0000 0.99310  0.82941  0.98175  Biso   1.000  O
  O12      1.0000 0.45616  0.48057  0.17166  Biso   1.000  O
  O13      1.0000 0.65780  0.43366  0.02151  Biso   1.000  O
  O14      1.0000 0.00126  0.63628  0.48229  Biso   1.000  O
  O15      1.0000 0.46399  0.97985  0.68410  Biso   1.000  O
  O16      1.0000 0.15651  0.44328  0.52044  Biso   1.000  O
  O17      1.0000 0.49543  0.64168  0.06366  Biso   1.000  O
  O18      1.0000 0.96243  0.99104  0.86430  Biso   1.000  O
  O19      1.0000 0.83502  0.93283  0.00905  Biso   1.000  O
  O20      1.0000 0.48946  0.13827  0.47479  Biso   1.000  O
  O21      1.0000 0.04469  0.47231  0.67528  Biso   1.000  O
  O22      1.0000 0.34509  0.94111  0.53265  Biso   1.000  O
  O23      1.0000 0.98760  0.14151  0.06514  Biso   1.000  O
  O24      1.0000 0.54629  0.48083  0.86221  Biso   1.000  O
  O25      1.0000 0.93768  0.98004  0.17469  Biso   1.000  O
  O26      1.0000 0.14932  0.95364  0.03655  Biso   1.000  O
  O27      1.0000 0.98631  0.13747  0.97985  Biso   1.000  O
  O28      1.0000 0.43524  0.98196  0.36681  Biso   1.000  O
  O29      1.0000 0.65263  0.93745  0.50986  Biso   1.000  O
  O30      1.0000 0.49454  0.13718  0.55728  Biso   1.000  O
  O31      1.0000 0.54111  0.49231  0.17550  Biso   1.000  O
  O32      1.0000 0.34359  0.44749  0.02474  Biso   1.000  O
  O33      1.0000 0.50323  0.63111  0.98139  Biso   1.000  O
  O34      1.0000 0.03692  0.49355  0.36066  Biso   1.000  O
  O35      1.0000 0.84016  0.43881  0.52201  Biso   1.000  O
  O36      1.0000 0.00596  0.63717  0.56487  Biso   1.000  O
  O37      1.0000 0.04287  0.97635  0.86979  Biso   1.000  O
  O38      1.0000 0.83156  0.01590  0.00111  Biso   1.000  O
  O39      1.0000 0.00750  0.83577  0.06591  Biso   1.000  O
  O40      1.0000 0.54754  0.98734  0.67397  Biso   1.000  O
  O41      1.0000 0.33466  0.02389  0.53660  Biso   1.000  O
  O42      1.0000 0.50416  0.81993  0.48382  Biso   1.000  O
  O43      1.0000 0.46109  0.47570  0.86192  Biso   1.000  O
  O44      1.0000 0.66021  0.51793  0.02080  Biso   1.000  O
  O45      1.0000 0.48384  0.32449  0.05698  Biso   1.000  O
  O46      1.0000 0.96505  0.49462  0.67822  Biso   1.000  O
  O47      1.0000 0.15950  0.52851  0.52141  Biso   1.000  O
  O48      1.0000 0.00084  0.33483  0.47485  Biso   1.000  O
  O49      1.0000 0.98267  0.94521  0.17768  Biso   1.000  O
  O50      1.0000 0.14907  0.99034  0.99032  Biso   1.000  O
  O51      1.0000 0.94528  0.13777  0.02264  Biso   1.000  O
  O52      1.0000 0.47379  0.93581  0.36727  Biso   1.000  O
  O53      1.0000 0.65407  0.98032  0.54851  Biso   1.000  O
  O54      1.0000 0.45109  0.13934  0.51937  Biso   1.000  O
  O55      1.0000 0.50118  0.43904  0.17628  Biso   1.000  O
  O56      1.0000 0.34737  0.48611  0.97814  Biso   1.000  O
  O57      1.0000 0.54149  0.63141  0.02810  Biso   1.000  O
  O58      1.0000 0.00353  0.44794  0.36029  Biso   1.000  O
  O59      1.0000 0.84202  0.47541  0.56656  Biso   1.000  O
  O60      1.0000 0.04316  0.64067  0.52181  Biso   1.000  O
  O61      1.0000 0.00796  0.02283  0.86466  Biso   1.000  O
  O62      1.0000 0.83109  0.97720  0.05107  Biso   1.000  O
  O63      1.0000 0.03989  0.83609  0.01458  Biso   1.000  O
  O64      1.0000 0.49968  0.02617  0.67273  Biso   1.000  O
  O65      1.0000 0.33691  0.98467  0.49242  Biso   1.000  O
  O66      1.0000 0.54675  0.81960  0.52594  Biso   1.000  O
  O67      1.0000 0.50116  0.52016  0.86189  Biso   1.000  O
  O68      1.0000 0.65883  0.47823  0.06321  Biso   1.000  O
  O69      1.0000 0.44777  0.32584  0.01621  Biso   1.000  O
  O70      1.0000 0.01470  0.52559  0.67605  Biso   1.000  O
  O71      1.0000 0.15452  0.48933  0.47726  Biso   1.000  O
  O72      1.0000 0.95448  0.33041  0.51761  Biso   1.000  O
  O73      1.0000 0.99755  0.44354  0.67297  Biso   1.000  O
  O74      1.0000 0.64511  0.97783  0.46547  Biso   1.000  O
  O75      1.0000 0.45862  0.64611  0.01764  Biso   1.000  O
  O76      1.0000 0.50792  0.43811  0.86323  Biso   1.000  O
  O77      1.0000 0.14842  0.99928  0.07780  Biso   1.000  O
  O78      1.0000 0.96133  0.63394  0.52524  Biso   1.000  O
  O79      1.0000 0.50796  0.94390  0.68434  Biso   1.000  O
  O80      1.0000 0.84463  0.48489  0.48272  Biso   1.000  O
  O81      1.0000 0.03047  0.13672  0.01934  Biso   1.000  O
  O82      1.0000 0.99810  0.94322  0.86536  Biso   1.000  O
  O83      1.0000 0.34450  0.49458  0.06218  Biso   1.000  O
  O84      1.0000 0.53564  0.13509  0.51721  Biso   1.000  O
  O85      1.0000 0.98814  0.52919  0.35830  Biso   1.000  O
  O86      1.0000 0.34507  0.97899  0.57626  Biso   1.000  O
  O87      1.0000 0.53034  0.32517  0.02066  Biso   1.000  O
  O88      1.0000 0.49383  0.52387  0.17675  Biso   1.000  O
  O89      1.0000 0.83836  0.97084  0.96526  Biso   1.000  O
  O90      1.0000 0.03823  0.32932  0.52034  Biso   1.000  O
  O91      1.0000 0.48330  0.01908  0.36727  Biso   1.000  O
  O92      1.0000 0.15929  0.48519  0.56212  Biso   1.000  O
  O93      1.0000 0.95813  0.83441  0.03081  Biso   1.000  O
  O94      1.0000 0.97146  0.02782  0.17695  Biso   1.000  O
  O95      1.0000 0.65604  0.47333  0.97911  Biso   1.000  O
  O96      1.0000 0.46145  0.82657  0.52887  Biso   1.000  O
  O97      1.0000 0.45082  0.18796  0.51258  Biso   1.000  O
  O98      1.0000 0.50286  0.43755  0.22388  Biso   1.000  O
  O99      1.0000 0.20255  0.48096  0.47559  Biso   1.000  O
  O100     1.0000 0.94198  0.18665  0.02488  Biso   1.000  O
  O101     1.0000 0.99979  0.44717  0.31137  Biso   1.000  O
  O102     1.0000 0.70642  0.47017  0.06311  Biso   1.000  O
  O103     1.0000 0.04243  0.68779  0.51419  Biso   1.000  O
  O104     1.0000 0.98109  0.94494  0.22725  Biso   1.000  O
  O105     1.0000 0.28859  0.98106  0.49968  Biso   1.000  O
  O106     1.0000 0.54564  0.68073  0.03144  Biso   1.000  O
  O107     1.0000 0.47408  0.93442  0.31785  Biso   1.000  O
  O108     1.0000 0.78336  0.97866  0.04690  Biso   1.000  O
  O109     1.0000 0.54753  0.77020  0.52538  Biso   1.000  O
  O110     1.0000 0.50590  0.52338  0.81304  Biso   1.000  O
  O111     1.0000 0.79333  0.47530  0.56604  Biso   1.000  O
  O112     1.0000 0.04018  0.78732  0.01436  Biso   1.000  O
  O113     1.0000 0.00990  0.52457  0.72330  Biso   1.000  O
  O114     1.0000 0.29708  0.48538  0.97795  Biso   1.000  O
  O115     1.0000 0.95617  0.28091  0.51881  Biso   1.000  O
  O116     1.0000 0.00576  0.02264  0.81626  Biso   1.000  O
  O117     1.0000 0.70267  0.98201  0.54447  Biso   1.000  O
  O118     1.0000 0.44757  0.27884  0.01084  Biso   1.000  O
  O119     1.0000 0.50077  0.02964  0.72322  Biso   1.000  O
  O120     1.0000 0.19727  0.98259  0.99464  Biso   1.000  O
  O121     1.0000 0.04376  0.47554  0.72414  Biso   1.000  O
  O122     1.0000 0.69678  0.02355  0.50069  Biso   1.000  O
  O123     1.0000 0.49473  0.68880  0.06535  Biso   1.000  O
  O124     1.0000 0.54699  0.48631  0.81461  Biso   1.000  O
  O125     1.0000 0.19670  0.03435  0.02442  Biso   1.000  O
  O126     1.0000 0.99592  0.68418  0.48180  Biso   1.000  O
  O127     1.0000 0.46728  0.97990  0.73300  Biso   1.000  O
  O128     1.0000 0.79485  0.52061  0.53442  Biso   1.000  O
  O129     1.0000 0.98618  0.18964  0.06543  Biso   1.000  O
  O130     1.0000 0.96459  0.98429  0.81516  Biso   1.000  O
  O131     1.0000 0.29964  0.53358  0.01293  Biso   1.000  O
  O132     1.0000 0.49435  0.18519  0.47160  Biso   1.000  O
  O133     1.0000 0.95273  0.48745  0.31476  Biso   1.000  O
  O134     1.0000 0.29466  0.93851  0.53518  Biso   1.000  O
  O135     1.0000 0.49173  0.27505  0.97366  Biso   1.000  O
  O136     1.0000 0.45605  0.47469  0.22110  Biso   1.000  O
  O137     1.0000 0.78552  0.93193  0.00747  Biso   1.000  O
  O138     1.0000 0.99712  0.27865  0.55914  Biso   1.000  O
  O139     1.0000 0.52031  0.97353  0.31460  Biso   1.000  O
  O140     1.0000 0.20508  0.44259  0.51533  Biso   1.000  O
  O141     1.0000 0.99404  0.78141  0.98511  Biso   1.000  O
  O142     1.0000 0.01688  0.99328  0.22538  Biso   1.000  O
  O143     1.0000 0.70592  0.43130  0.02087  Biso   1.000  O
  O144     1.0000 0.50689  0.77664  0.57059  Biso   1.000  O
  O145     1.0000 0.53949  0.48331  0.22300  Biso   1.000  O
  O146     1.0000 0.20776  0.52695  0.50967  Biso   1.000  O
  O147     1.0000 0.48999  0.18682  0.55591  Biso   1.000  O
  O148     1.0000 0.03898  0.48680  0.31255  Biso   1.000  O
  O149     1.0000 0.70832  0.51618  0.02091  Biso   1.000  O
  O150     1.0000 0.97867  0.18577  0.97923  Biso   1.000  O
  O151     1.0000 0.93456  0.97945  0.22371  Biso   1.000  O
  O152     1.0000 0.28747  0.02233  0.54073  Biso   1.000  O
  O153     1.0000 0.00387  0.68542  0.56179  Biso   1.000  O
  O154     1.0000 0.43552  0.97888  0.31915  Biso   1.000  O
  O155     1.0000 0.78456  0.01709  0.00261  Biso   1.000  O
  O156     1.0000 0.51441  0.68062  0.98144  Biso   1.000  O
  O157     1.0000 0.46347  0.47580  0.81197  Biso   1.000  O
  O158     1.0000 0.79197  0.44037  0.51892  Biso   1.000  O
  O159     1.0000 0.50072  0.77255  0.48653  Biso   1.000  O
  O160     1.0000 0.96106  0.48790  0.72695  Biso   1.000  O
  O161     1.0000 0.29518  0.45221  0.02944  Biso   1.000  O
  O162     1.0000 0.00751  0.78640  0.06555  Biso   1.000  O
  O163     1.0000 0.04872  0.98135  0.82139  Biso   1.000  O
  O164     1.0000 0.70128  0.94013  0.50196  Biso   1.000  O
  O165     1.0000 0.99820  0.28512  0.47512  Biso   1.000  O
  O166     1.0000 0.55078  0.99077  0.72118  Biso   1.000  O
  O167     1.0000 0.19871  0.95275  0.04366  Biso   1.000  O
  O168     1.0000 0.48775  0.27526  0.05781  Biso   1.000  O
  O169     1.0000 0.96589  0.02555  0.22633  Biso   1.000  O
  O170     1.0000 0.19724  0.00257  0.07751  Biso   1.000  O
  O171     1.0000 0.02464  0.18606  0.01899  Biso   1.000  O
  O172     1.0000 0.48056  0.02065  0.31712  Biso   1.000  O
  O173     1.0000 0.69378  0.98209  0.46204  Biso   1.000  O
  O174     1.0000 0.53596  0.18440  0.51484  Biso   1.000  O
  O175     1.0000 0.49482  0.52145  0.22435  Biso   1.000  O
  O176     1.0000 0.29623  0.50220  0.06167  Biso   1.000  O
  O177     1.0000 0.46340  0.69444  0.01612  Biso   1.000  O
  O178     1.0000 0.99545  0.53144  0.31059  Biso   1.000  O
  O179     1.0000 0.79563  0.48808  0.48280  Biso   1.000  O
  O180     1.0000 0.96056  0.68312  0.52654  Biso   1.000  O
  O181     1.0000 0.00226  0.93979  0.81741  Biso   1.000  O
  O182     1.0000 0.78944  0.97019  0.96630  Biso   1.000  O
  O183     1.0000 0.95977  0.78653  0.03489  Biso   1.000  O
  O184     1.0000 0.51302  0.94649  0.73141  Biso   1.000  O
  O185     1.0000 0.29535  0.97577  0.58158  Biso   1.000  O
  O186     1.0000 0.46188  0.77707  0.53001  Biso   1.000  O
  O187     1.0000 0.51107  0.43835  0.81399  Biso   1.000  O
  O188     1.0000 0.70419  0.47673  0.97858  Biso   1.000  O
  O189     1.0000 0.52924  0.27640  0.02207  Biso   1.000  O
  O190     1.0000 0.99141  0.44121  0.72183  Biso   1.000  O
  O191     1.0000 0.20728  0.48446  0.55662  Biso   1.000  O
  O192     1.0000 0.04059  0.27931  0.52005  Biso   1.000  O
