data_image0
_cell_length_a       46.6828
_cell_length_b       46.6275
_cell_length_c       46.5897
_cell_angle_alpha    90
_cell_angle_beta     90
_cell_angle_gamma    90

_symmetry_space_group_name_H-M    "P 1"
_symmetry_int_tables_number       1

loop_
  _symmetry_equiv_pos_as_xyz
  'x, y, z'

loop_
  _atom_site_label
  _atom_site_occupancy
  _atom_site_fract_x
  _atom_site_fract_y
  _atom_site_fract_z
  _atom_site_thermal_displace_type
  _atom_site_B_iso_or_equiv
  _atom_site_type_symbol
  C1       1.0000 0.57447  0.00003  0.32378  Biso   1.000  C
  C2       1.0000 0.33450  0.55484  0.01264  Biso   1.000  C
  C3       1.0000 0.01712  0.32740  0.56257  Biso   1.000  C
  C4       1.0000 0.07105  0.98952  0.17731  Biso   1.000  C
  C5       1.0000 0.83067  0.56018  0.50100  Biso   1.000  C
  C6       1.0000 0.49847  0.31550  0.94944  Biso   1.000  C
  C7       1.0000 0.95969  0.49110  0.31566  Biso   1.000  C
  C8       1.0000 0.19299  0.05064  0.99848  Biso   1.000  C
  C9       1.0000 0.51061  0.82122  0.55795  Biso   1.000  C
  C10      1.0000 0.45896  0.49016  0.18815  Biso   1.000  C
  C11      1.0000 0.69252  0.05653  0.50752  Biso   1.000  C
  C12      1.0000 0.02090  0.81391  0.94372  Biso   1.000  C
  C13      1.0000 0.44866  0.00704  0.68431  Biso   1.000  C
  C14      1.0000 0.69172  0.43484  0.99281  Biso   1.000  C
  C15      1.0000 0.01902  0.67831  0.44067  Biso   1.000  C
  C16      1.0000 0.95246  0.00364  0.82345  Biso   1.000  C
  C17      1.0000 0.18774  0.44765  0.51365  Biso   1.000  C
  C18      1.0000 0.52156  0.67409  0.06088  Biso   1.000  C
  C19      1.0000 0.06232  0.50051  0.68479  Biso   1.000  C
  C20      1.0000 0.83253  0.93434  0.00543  Biso   1.000  C
  C21      1.0000 0.50506  0.17659  0.45356  Biso   1.000  C
  C22      1.0000 0.56283  0.50554  0.82523  Biso   1.000  C
  C23      1.0000 0.33349  0.94937  0.49415  Biso   1.000  C
  C24      1.0000 0.00629  0.16877  0.06360  Biso   1.000  C
  C25      1.0000 0.32660  0.05822  0.50226  Biso   1.000  C
  C26      1.0000 0.50447  0.31321  0.05981  Biso   1.000  C
  C27      1.0000 0.06745  0.49525  0.32322  Biso   1.000  C
  C28      1.0000 0.83286  0.04681  0.01034  Biso   1.000  C
  C29      1.0000 0.00886  0.32532  0.45396  Biso   1.000  C
  C30      1.0000 0.56604  0.49853  0.18304  Biso   1.000  C
  C31      1.0000 0.19422  0.55675  0.49884  Biso   1.000  C
  C32      1.0000 0.01454  0.80954  0.05036  Biso   1.000  C
  C33      1.0000 0.46817  0.98866  0.32755  Biso   1.000  C
  C34      1.0000 0.69186  0.54370  0.00567  Biso   1.000  C
  C35      1.0000 0.51528  0.81976  0.45051  Biso   1.000  C
  C36      1.0000 0.96231  0.98451  0.18422  Biso   1.000  C
  C37      1.0000 0.69595  0.94838  0.50634  Biso   1.000  C
  C38      1.0000 0.51679  0.67652  0.95034  Biso   1.000  C
  C39      1.0000 0.95557  0.50584  0.68435  Biso   1.000  C
  C40      1.0000 0.19624  0.94119  0.00691  Biso   1.000  C
  C41      1.0000 0.01416  0.68275  0.54703  Biso   1.000  C
  C42      1.0000 0.45371  0.49971  0.82860  Biso   1.000  C
  C43      1.0000 0.82898  0.45112  0.49910  Biso   1.000  C
  C44      1.0000 0.01136  0.17375  0.95435  Biso   1.000  C
  C45      1.0000 0.55855  0.99091  0.68165  Biso   1.000  C
  C46      1.0000 0.32717  0.44690  0.00136  Biso   1.000  C
  C47      1.0000 0.50795  0.18109  0.56202  Biso   1.000  C
  C48      1.0000 0.05913  0.99534  0.81863  Biso   1.000  C
  C49      1.0000 0.00911  0.05467  0.82499  Biso   1.000  C
  C50      1.0000 0.83450  0.98921  0.05982  Biso   1.000  C
  C51      1.0000 0.07146  0.81192  0.00263  Biso   1.000  C
  C52      1.0000 0.51232  0.05381  0.68773  Biso   1.000  C
  C53      1.0000 0.33554  0.00622  0.44559  Biso   1.000  C
  C54      1.0000 0.56760  0.81806  0.50587  Biso   1.000  C
  C55      1.0000 0.50670  0.55477  0.82472  Biso   1.000  C
  C56      1.0000 0.69055  0.48176  0.05256  Biso   1.000  C
  C57      1.0000 0.44840  0.31783  0.00641  Biso   1.000  C
  C58      1.0000 0.01144  0.55672  0.67768  Biso   1.000  C
  C59      1.0000 0.19271  0.49587  0.45533  Biso   1.000  C
  C60      1.0000 0.95540  0.32678  0.51290  Biso   1.000  C
  C61      1.0000 0.01308  0.93496  0.17789  Biso   1.000  C
  C62      1.0000 0.19062  0.99149  0.94749  Biso   1.000  C
  C63      1.0000 0.95435  0.17505  0.00840  Biso   1.000  C
  C64      1.0000 0.52108  0.94086  0.32339  Biso   1.000  C
  C65      1.0000 0.69352  0.99586  0.56049  Biso   1.000  C
  C66      1.0000 0.45446  0.18506  0.50415  Biso   1.000  C
  C67      1.0000 0.51700  0.43600  0.18347  Biso   1.000  C
  C68      1.0000 0.33145  0.50753  0.95452  Biso   1.000  C
  C69      1.0000 0.57222  0.67666  0.00354  Biso   1.000  C
  C70      1.0000 0.01611  0.44039  0.31840  Biso   1.000  C
  C71      1.0000 0.83086  0.50277  0.55407  Biso   1.000  C
  C72      1.0000 0.07092  0.68213  0.49373  Biso   1.000  C
  C73      1.0000 0.00950  0.54701  0.32089  Biso   1.000  C
  C74      1.0000 0.32829  0.99299  0.55293  Biso   1.000  C
  C75      1.0000 0.55693  0.31213  0.00489  Biso   1.000  C
  C76      1.0000 0.50954  0.54599  0.18357  Biso   1.000  C
  C77      1.0000 0.82777  0.99160  0.95122  Biso   1.000  C
  C78      1.0000 0.06173  0.32609  0.50667  Biso   1.000  C
  C79      1.0000 0.52030  0.04719  0.32804  Biso   1.000  C
  C80      1.0000 0.19019  0.51100  0.56443  Biso   1.000  C
  C81      1.0000 0.96537  0.81079  0.99381  Biso   1.000  C
  C82      1.0000 0.01675  0.04210  0.18415  Biso   1.000  C
  C83      1.0000 0.69456  0.49554  0.94452  Biso   1.000  C
  C84      1.0000 0.45877  0.82287  0.50170  Biso   1.000  C
  C85      1.0000 0.00902  0.44743  0.68969  Biso   1.000  C
  C86      1.0000 0.69601  0.00343  0.45419  Biso   1.000  C
  C87      1.0000 0.46395  0.67735  0.01040  Biso   1.000  C
  C88      1.0000 0.50711  0.44732  0.82451  Biso   1.000  C
  C89      1.0000 0.19775  0.99865  0.05414  Biso   1.000  C
  C90      1.0000 0.95950  0.68345  0.49090  Biso   1.000  C
  C91      1.0000 0.49763  0.94635  0.68494  Biso   1.000  C
  C92      1.0000 0.83152  0.50714  0.44291  Biso   1.000  C
  C93      1.0000 0.06346  0.16941  0.01730  Biso   1.000  C
  C94      1.0000 0.00393  0.94529  0.82183  Biso   1.000  C
  C95      1.0000 0.33653  0.49642  0.06348  Biso   1.000  C
  C96      1.0000 0.56335  0.18317  0.50732  Biso   1.000  C
  C97      1.0000 0.69079  0.08869  0.50710  Biso   1.000  C
  C98      1.0000 0.52209  0.67306  0.09347  Biso   1.000  C
  C99      1.0000 0.09443  0.50028  0.68798  Biso   1.000  C
  C100     1.0000 0.19341  0.08353  0.00215  Biso   1.000  C
  C101     1.0000 0.01503  0.67503  0.40909  Biso   1.000  C
  C102     1.0000 0.59535  0.50435  0.82341  Biso   1.000  C
  C103     1.0000 0.83238  0.59250  0.50240  Biso   1.000  C
  C104     1.0000 0.00914  0.16973  0.09678  Biso   1.000  C
  C105     1.0000 0.41576  0.00572  0.68343  Biso   1.000  C
  C106     1.0000 0.33473  0.58589  0.00782  Biso   1.000  C
  C107     1.0000 0.50723  0.17634  0.42067  Biso   1.000  C
  C108     1.0000 0.92053  0.00336  0.82479  Biso   1.000  C
  C109     1.0000 0.33260  0.91699  0.49210  Biso   1.000  C
  C110     1.0000 0.49590  0.31760  0.91756  Biso   1.000  C
  C111     1.0000 0.92823  0.49192  0.31686  Biso   1.000  C
  C112     1.0000 0.83284  0.90245  0.00510  Biso   1.000  C
  C113     1.0000 0.02082  0.32467  0.59412  Biso   1.000  C
  C114     1.0000 0.42787  0.49269  0.19055  Biso   1.000  C
  C115     1.0000 0.19084  0.41674  0.51172  Biso   1.000  C
  C116     1.0000 0.02899  0.81584  0.91335  Biso   1.000  C
  C117     1.0000 0.60540  0.00441  0.32453  Biso   1.000  C
  C118     1.0000 0.68934  0.40261  0.99645  Biso   1.000  C
  C119     1.0000 0.50774  0.82025  0.58925  Biso   1.000  C
  C120     1.0000 0.10356  0.98943  0.17762  Biso   1.000  C
  C121     1.0000 0.83519  0.98825  0.09183  Biso   1.000  C
  C122     1.0000 0.10310  0.81157  0.00604  Biso   1.000  C
  C123     1.0000 0.01201  0.08667  0.82439  Biso   1.000  C
  C124     1.0000 0.33771  0.00052  0.41450  Biso   1.000  C
  C125     1.0000 0.60009  0.81693  0.50527  Biso   1.000  C
  C126     1.0000 0.51494  0.08533  0.68640  Biso   1.000  C
  C127     1.0000 0.68986  0.47997  0.08493  Biso   1.000  C
  C128     1.0000 0.41556  0.31886  0.00856  Biso   1.000  C
  C129     1.0000 0.50614  0.58544  0.82478  Biso   1.000  C
  C130     1.0000 0.19310  0.49492  0.42289  Biso   1.000  C
  C131     1.0000 0.92303  0.32299  0.50998  Biso   1.000  C
  C132     1.0000 0.01432  0.58996  0.67515  Biso   1.000  C
  C133     1.0000 0.18891  0.98621  0.91536  Biso   1.000  C
  C134     1.0000 0.92185  0.17665  0.01016  Biso   1.000  C
  C135     1.0000 0.00839  0.90293  0.17634  Biso   1.000  C
  C136     1.0000 0.69158  0.98951  0.59097  Biso   1.000  C
  C137     1.0000 0.42315  0.18629  0.50141  Biso   1.000  C
  C138     1.0000 0.51991  0.90819  0.32386  Biso   1.000  C
  C139     1.0000 0.32921  0.51070  0.92275  Biso   1.000  C
  C140     1.0000 0.60414  0.67475  0.00124  Biso   1.000  C
  C141     1.0000 0.51463  0.40364  0.18506  Biso   1.000  C
  C142     1.0000 0.82973  0.49797  0.58583  Biso   1.000  C
  C143     1.0000 0.10236  0.68288  0.49379  Biso   1.000  C
  C144     1.0000 0.01939  0.40808  0.31931  Biso   1.000  C
  C145     1.0000 0.33575  0.50127  0.09513  Biso   1.000  C
  C146     1.0000 0.09439  0.32662  0.50796  Biso   1.000  C
  C147     1.0000 0.51604  0.08006  0.32851  Biso   1.000  C
  C148     1.0000 0.83024  0.50391  0.41054  Biso   1.000  C
  C149     1.0000 0.58815  0.31240  0.01174  Biso   1.000  C
  C150     1.0000 0.01744  0.07468  0.18804  Biso   1.000  C
  C151     1.0000 0.19738  0.99464  0.08548  Biso   1.000  C
  C152     1.0000 0.42744  0.82481  0.50457  Biso   1.000  C
  C153     1.0000 0.00302  0.57743  0.31797  Biso   1.000  C
  C154     1.0000 0.69645  0.00185  0.42244  Biso   1.000  C
  C155     1.0000 0.93412  0.81337  0.99676  Biso   1.000  C
  C156     1.0000 0.50980  0.57796  0.18525  Biso   1.000  C
  C157     1.0000 0.69374  0.49683  0.91302  Biso   1.000  C
  C158     1.0000 0.92781  0.68445  0.49348  Biso   1.000  C
  C159     1.0000 0.49486  0.91458  0.68522  Biso   1.000  C
  C160     1.0000 0.19135  0.51241  0.59769  Biso   1.000  C
  C161     1.0000 0.43220  0.67845  0.01196  Biso   1.000  C
  C162     1.0000 0.00554  0.91307  0.82274  Biso   1.000  C
  C163     1.0000 0.82763  0.98938  0.91917  Biso   1.000  C
  C164     1.0000 0.59575  0.18160  0.51390  Biso   1.000  C
  C165     1.0000 0.00939  0.41519  0.69007  Biso   1.000  C
  C166     1.0000 0.32640  0.98986  0.58534  Biso   1.000  C
  C167     1.0000 0.09519  0.17060  0.02410  Biso   1.000  C
  C168     1.0000 0.50345  0.41534  0.82408  Biso   1.000  C
  C169     1.0000 0.01155  0.80879  0.08216  Biso   1.000  C
  C170     1.0000 0.09155  0.99145  0.81874  Biso   1.000  C
  C171     1.0000 0.83059  0.07804  0.01909  Biso   1.000  C
  C172     1.0000 0.52388  0.81741  0.42099  Biso   1.000  C
  C173     1.0000 0.59020  0.98428  0.68248  Biso   1.000  C
  C174     1.0000 0.32755  0.08995  0.50005  Biso   1.000  C
  C175     1.0000 0.50624  0.31032  0.09184  Biso   1.000  C
  C176     1.0000 0.42106  0.50010  0.82746  Biso   1.000  C
  C177     1.0000 0.69358  0.57542  0.00700  Biso   1.000  C
  C178     1.0000 0.01417  0.32053  0.42200  Biso   1.000  C
  C179     1.0000 0.92305  0.50350  0.68349  Biso   1.000  C
  C180     1.0000 0.19512  0.58682  0.49020  Biso   1.000  C
  C181     1.0000 0.01300  0.17528  0.92248  Biso   1.000  C
  C182     1.0000 0.92976  0.98617  0.18496  Biso   1.000  C
  C183     1.0000 0.19672  0.90968  0.01174  Biso   1.000  C
  C184     1.0000 0.50735  0.18215  0.59485  Biso   1.000  C
  C185     1.0000 0.43655  0.98302  0.32450  Biso   1.000  C
  C186     1.0000 0.69529  0.91707  0.50295  Biso   1.000  C
  C187     1.0000 0.51671  0.67907  0.91833  Biso   1.000  C
  C188     1.0000 0.59790  0.50198  0.18017  Biso   1.000  C
  C189     1.0000 0.32479  0.41449  0.00043  Biso   1.000  C
  C190     1.0000 0.01019  0.68494  0.57877  Biso   1.000  C
  C191     1.0000 0.10107  0.49729  0.32350  Biso   1.000  C
  C192     1.0000 0.82756  0.41883  0.50375  Biso   1.000  C
  C193     1.0000 0.85449  0.99219  0.90300  Biso   1.000  C
  C194     1.0000 0.91607  0.83886  0.99683  Biso   1.000  C
  C195     1.0000 0.01056  0.89761  0.84927  Biso   1.000  C
  C196     1.0000 0.35184  0.99545  0.60310  Biso   1.000  C
  C197     1.0000 0.41124  0.85041  0.50155  Biso   1.000  C
  C198     1.0000 0.49634  0.89865  0.65824  Biso   1.000  C
  C199     1.0000 0.66625  0.49888  0.89884  Biso   1.000  C
  C200     1.0000 0.60561  0.33850  0.00691  Biso   1.000  C
  C201     1.0000 0.49981  0.40002  0.85091  Biso   1.000  C
  C202     1.0000 0.16321  0.51247  0.61168  Biso   1.000  C
  C203     1.0000 0.11119  0.35313  0.50881  Biso   1.000  C
  C204     1.0000 0.01339  0.39956  0.66330  Biso   1.000  C
  C205     1.0000 0.17072  0.99312  0.10198  Biso   1.000  C
  C206     1.0000 0.11207  0.14504  0.01634  Biso   1.000  C
  C207     1.0000 0.01665  0.09247  0.16278  Biso   1.000  C
  C208     1.0000 0.67023  0.00315  0.40428  Biso   1.000  C
  C209     1.0000 0.61137  0.15465  0.51194  Biso   1.000  C
  C210     1.0000 0.51553  0.09714  0.35542  Biso   1.000  C
  C211     1.0000 0.36230  0.49803  0.11208  Biso   1.000  C
  C212     1.0000 0.41546  0.65189  0.01005  Biso   1.000  C
  C213     1.0000 0.51128  0.59432  0.15800  Biso   1.000  C
  C214     1.0000 0.85963  0.50591  0.39681  Biso   1.000  C
  C215     1.0000 0.91026  0.65834  0.49696  Biso   1.000  C
  C216     1.0000 0.00727  0.59426  0.34527  Biso   1.000  C
  C217     1.0000 0.10576  0.98965  0.84632  Biso   1.000  C
  C218     1.0000 0.85563  0.09581  0.02078  Biso   1.000  C
  C219     1.0000 0.00870  0.83702  0.09670  Biso   1.000  C
  C220     1.0000 0.60668  0.98948  0.65528  Biso   1.000  C
  C221     1.0000 0.35488  0.10655  0.49729  Biso   1.000  C
  C222     1.0000 0.52522  0.84374  0.40392  Biso   1.000  C
  C223     1.0000 0.40565  0.50323  0.85419  Biso   1.000  C
  C224     1.0000 0.66782  0.59225  0.00594  Biso   1.000  C
  C225     1.0000 0.50565  0.33587  0.10864  Biso   1.000  C
  C226     1.0000 0.90777  0.50295  0.65600  Biso   1.000  C
  C227     1.0000 0.16742  0.60331  0.48913  Biso   1.000  C
  C228     1.0000 0.01586  0.34649  0.40256  Biso   1.000  C
  C229     1.0000 0.91303  0.98718  0.15845  Biso   1.000  C
  C230     1.0000 0.17134  0.89224  0.00996  Biso   1.000  C
  C231     1.0000 0.01037  0.15038  0.90441  Biso   1.000  C
  C232     1.0000 0.41653  0.98413  0.34859  Biso   1.000  C
  C233     1.0000 0.66874  0.89919  0.50693  Biso   1.000  C
  C234     1.0000 0.50684  0.15423  0.60873  Biso   1.000  C
  C235     1.0000 0.61234  0.49667  0.15227  Biso   1.000  C
  C236     1.0000 0.35129  0.39758  0.00082  Biso   1.000  C
  C237     1.0000 0.51792  0.65425  0.90010  Biso   1.000  C
  C238     1.0000 0.11536  0.49774  0.35136  Biso   1.000  C
  C239     1.0000 0.85474  0.40351  0.50113  Biso   1.000  C
  C240     1.0000 0.00818  0.65806  0.59518  Biso   1.000  C
  C241     1.0000 0.61345  0.50148  0.84856  Biso   1.000  C
  C242     1.0000 0.85951  0.60960  0.50007  Biso   1.000  C
  C243     1.0000 0.50478  0.84718  0.60534  Biso   1.000  C
  C244     1.0000 0.11073  0.50084  0.66132  Biso   1.000  C
  C245     1.0000 0.36275  0.60178  0.00521  Biso   1.000  C
  C246     1.0000 0.02477  0.84299  0.89831  Biso   1.000  C
  C247     1.0000 0.90397  0.99781  0.85094  Biso   1.000  C
  C248     1.0000 0.66388  0.10443  0.50552  Biso   1.000  C
  C249     1.0000 0.02035  0.35191  0.61163  Biso   1.000  C
  C250     1.0000 0.40133  0.00414  0.65559  Biso   1.000  C
  C251     1.0000 0.16543  0.09628  0.00586  Biso   1.000  C
  C252     1.0000 0.49972  0.34692  0.90358  Biso   1.000  C
  C253     1.0000 0.41203  0.49504  0.16337  Biso   1.000  C
  C254     1.0000 0.16426  0.40137  0.50958  Biso   1.000  C
  C255     1.0000 0.50873  0.14868  0.40672  Biso   1.000  C
  C256     1.0000 0.91049  0.49436  0.34416  Biso   1.000  C
  C257     1.0000 0.66066  0.38700  0.00205  Biso   1.000  C
  C258     1.0000 0.01015  0.14343  0.11266  Biso   1.000  C
  C259     1.0000 0.12046  0.99176  0.15162  Biso   1.000  C
  C260     1.0000 0.35863  0.90118  0.49656  Biso   1.000  C
  C261     1.0000 0.01236  0.64701  0.39512  Biso   1.000  C
  C262     1.0000 0.62179  0.00496  0.35251  Biso   1.000  C
  C263     1.0000 0.86184  0.88939  0.00177  Biso   1.000  C
  C264     1.0000 0.51622  0.64599  0.10812  Biso   1.000  C
  C265     1.0000 0.01500  0.10265  0.85212  Biso   1.000  C
  C266     1.0000 0.86198  0.98503  0.10676  Biso   1.000  C
  C267     1.0000 0.11902  0.83865  0.00963  Biso   1.000  C
  C268     1.0000 0.51251  0.10127  0.66000  Biso   1.000  C
  C269     1.0000 0.36412  0.99060  0.39916  Biso   1.000  C
  C270     1.0000 0.61821  0.84432  0.50696  Biso   1.000  C
  C271     1.0000 0.51129  0.60178  0.85132  Biso   1.000  C
  C272     1.0000 0.66341  0.47975  0.10110  Biso   1.000  C
  C273     1.0000 0.39989  0.34545  0.00821  Biso   1.000  C
  C274     1.0000 0.01200  0.60609  0.64777  Biso   1.000  C
  C275     1.0000 0.16533  0.49565  0.40473  Biso   1.000  C
  C276     1.0000 0.90539  0.35039  0.50596  Biso   1.000  C
  C277     1.0000 0.00934  0.88801  0.14878  Biso   1.000  C
  C278     1.0000 0.16128  0.98837  0.89998  Biso   1.000  C
  C279     1.0000 0.90543  0.14971  0.01369  Biso   1.000  C
  C280     1.0000 0.52401  0.89089  0.34948  Biso   1.000  C
  C281     1.0000 0.66361  0.98989  0.60629  Biso   1.000  C
  C282     1.0000 0.40627  0.16041  0.49924  Biso   1.000  C
  C283     1.0000 0.51055  0.38704  0.15931  Biso   1.000  C
  C284     1.0000 0.35548  0.51036  0.90762  Biso   1.000  C
  C285     1.0000 0.61821  0.64643  0.99973  Biso   1.000  C
  C286     1.0000 0.01963  0.39168  0.34763  Biso   1.000  C
  C287     1.0000 0.85511  0.50070  0.60307  Biso   1.000  C
  C288     1.0000 0.11688  0.65599  0.49446  Biso   1.000  C
  C289     1.0000 0.35796  0.86998  0.49774  Biso   1.000  C
  C290     1.0000 0.50005  0.34622  0.87201  Biso   1.000  C
  C291     1.0000 0.87960  0.50100  0.34440  Biso   1.000  C
  C292     1.0000 0.86253  0.85807  0.00351  Biso   1.000  C
  C293     1.0000 0.01665  0.34735  0.64266  Biso   1.000  C
  C294     1.0000 0.38153  0.49139  0.16375  Biso   1.000  C
  C295     1.0000 0.16388  0.37046  0.51056  Biso   1.000  C
  C296     1.0000 0.01905  0.84443  0.86817  Biso   1.000  C
  C297     1.0000 0.65414  0.00157  0.35025  Biso   1.000  C
  C298     1.0000 0.65895  0.35509  0.00238  Biso   1.000  C
  C299     1.0000 0.50133  0.84635  0.63715  Biso   1.000  C
  C300     1.0000 0.15130  0.99171  0.15305  Biso   1.000  C
  C301     1.0000 0.66478  0.13489  0.51217  Biso   1.000  C
  C302     1.0000 0.51185  0.64675  0.13908  Biso   1.000  C
  C303     1.0000 0.14225  0.50460  0.66410  Biso   1.000  C
  C304     1.0000 0.16601  0.12806  0.00931  Biso   1.000  C
  C305     1.0000 0.01078  0.64719  0.36322  Biso   1.000  C
  C306     1.0000 0.64474  0.50369  0.84686  Biso   1.000  C
  C307     1.0000 0.85717  0.63991  0.49826  Biso   1.000  C
  C308     1.0000 0.01080  0.14407  0.14433  Biso   1.000  C
  C309     1.0000 0.37094  0.00081  0.65616  Biso   1.000  C
  C310     1.0000 0.36305  0.63245  0.00898  Biso   1.000  C
  C311     1.0000 0.50909  0.15009  0.37504  Biso   1.000  C
  C312     1.0000 0.87327  0.99241  0.85005  Biso   1.000  C
  C313     1.0000 0.16724  0.49603  0.37398  Biso   1.000  C
  C314     1.0000 0.37498  0.16155  0.50018  Biso   1.000  C
  C315     1.0000 0.50925  0.35668  0.16163  Biso   1.000  C
  C316     1.0000 0.66458  0.49166  0.13105  Biso   1.000  C
  C317     1.0000 0.87465  0.14942  0.01762  Biso   1.000  C
  C318     1.0000 0.01689  0.36153  0.34732  Biso   1.000  C
  C319     1.0000 0.36394  0.98876  0.36688  Biso   1.000  C
  C320     1.0000 0.14767  0.65659  0.49169  Biso   1.000  C
  C321     1.0000 0.00790  0.85653  0.14994  Biso   1.000  C
  C322     1.0000 0.85959  0.98623  0.13811  Biso   1.000  C
  C323     1.0000 0.65021  0.64618  0.00074  Biso   1.000  C
  C324     1.0000 0.52204  0.86082  0.34859  Biso   1.000  C
  C325     1.0000 0.85546  0.50208  0.63435  Biso   1.000  C
  C326     1.0000 0.64980  0.84372  0.50775  Biso   1.000  C
  C327     1.0000 0.51114  0.63407  0.84902  Biso   1.000  C
  C328     1.0000 0.35383  0.50560  0.87611  Biso   1.000  C
  C329     1.0000 0.15103  0.84024  0.01145  Biso   1.000  C
  C330     1.0000 0.01312  0.63770  0.64880  Biso   1.000  C
  C331     1.0000 0.66141  0.98557  0.63742  Biso   1.000  C
  C332     1.0000 0.87392  0.35012  0.50535  Biso   1.000  C
  C333     1.0000 0.01155  0.13401  0.85183  Biso   1.000  C
  C334     1.0000 0.15995  0.98678  0.86927  Biso   1.000  C
  C335     1.0000 0.36809  0.34399  0.00394  Biso   1.000  C
  C336     1.0000 0.50811  0.13152  0.66306  Biso   1.000  C
  C337     1.0000 0.66721  0.50314  0.86756  Biso   1.000  C
  C338     1.0000 0.87877  0.66030  0.49512  Biso   1.000  C
  C339     1.0000 0.49920  0.86742  0.65896  Biso   1.000  C
  C340     1.0000 0.16420  0.50825  0.64322  Biso   1.000  C
  C341     1.0000 0.38435  0.65335  0.00954  Biso   1.000  C
  C342     1.0000 0.01332  0.86614  0.84724  Biso   1.000  C
  C343     1.0000 0.85252  0.98875  0.87143  Biso   1.000  C
  C344     1.0000 0.64372  0.15673  0.51308  Biso   1.000  C
  C345     1.0000 0.01346  0.36828  0.66443  Biso   1.000  C
  C346     1.0000 0.34956  0.99628  0.63452  Biso   1.000  C
  C347     1.0000 0.14396  0.14726  0.01425  Biso   1.000  C
  C348     1.0000 0.50023  0.36864  0.85103  Biso   1.000  C
  C349     1.0000 0.36051  0.49569  0.14261  Biso   1.000  C
  C350     1.0000 0.14155  0.34970  0.51038  Biso   1.000  C
  C351     1.0000 0.51060  0.12805  0.35387  Biso   1.000  C
  C352     1.0000 0.85886  0.50507  0.36573  Biso   1.000  C
  C353     1.0000 0.63617  0.33508  0.00512  Biso   1.000  C
  C354     1.0000 0.01432  0.12233  0.16568  Biso   1.000  C
  C355     1.0000 0.17263  0.99210  0.13219  Biso   1.000  C
  C356     1.0000 0.38038  0.84938  0.49982  Biso   1.000  C
  C357     1.0000 0.00805  0.62487  0.34338  Biso   1.000  C
  C358     1.0000 0.67522  0.00176  0.37194  Biso   1.000  C
  C359     1.0000 0.88458  0.83734  0.00136  Biso   1.000  C
  C360     1.0000 0.51243  0.62458  0.16077  Biso   1.000  C
  C361     1.0000 0.01038  0.15462  0.87367  Biso   1.000  C
  C362     1.0000 0.88137  0.98700  0.15987  Biso   1.000  C
  C363     1.0000 0.17269  0.86183  0.01119  Biso   1.000  C
  C364     1.0000 0.50578  0.15292  0.64040  Biso   1.000  C
  C365     1.0000 0.38627  0.98666  0.34636  Biso   1.000  C
  C366     1.0000 0.67008  0.86704  0.50615  Biso   1.000  C
  C367     1.0000 0.51321  0.65600  0.86996  Biso   1.000  C
  C368     1.0000 0.64377  0.49900  0.15256  Biso   1.000  C
  C369     1.0000 0.34864  0.36670  0.99855  Biso   1.000  C
  C370     1.0000 0.01144  0.65813  0.62645  Biso   1.000  C
  C371     1.0000 0.14728  0.49799  0.35110  Biso   1.000  C
  C372     1.0000 0.85274  0.37154  0.50392  Biso   1.000  C
  C373     1.0000 0.00801  0.83550  0.12724  Biso   1.000  C
  C374     1.0000 0.13754  0.98853  0.84764  Biso   1.000  C
  C375     1.0000 0.85321  0.12787  0.01929  Biso   1.000  C
  C376     1.0000 0.52367  0.84067  0.37149  Biso   1.000  C
  C377     1.0000 0.63850  0.98507  0.65681  Biso   1.000  C
  C378     1.0000 0.35338  0.13852  0.49950  Biso   1.000  C
  C379     1.0000 0.50926  0.33573  0.14065  Biso   1.000  C
  C380     1.0000 0.37505  0.50215  0.85278  Biso   1.000  C
  C381     1.0000 0.67031  0.62401  0.00343  Biso   1.000  C
  C382     1.0000 0.01626  0.34239  0.37078  Biso   1.000  C
  C383     1.0000 0.87667  0.50091  0.65593  Biso   1.000  C
  C384     1.0000 0.16778  0.63499  0.48954  Biso   1.000  C
  C385     1.0000 0.19245  0.14484  0.01069  Biso   1.000  C
  C386     1.0000 0.00954  0.17063  0.15994  Biso   1.000  C
  C387     1.0000 0.16676  0.99042  0.18002  Biso   1.000  C
  C388     1.0000 0.69107  0.15116  0.51634  Biso   1.000  C
  C389     1.0000 0.50738  0.17720  0.35860  Biso   1.000  C
  C390     1.0000 0.66989  0.00147  0.32324  Biso   1.000  C
  C391     1.0000 0.33679  0.64741  0.01080  Biso   1.000  C
  C392     1.0000 0.51226  0.67325  0.15602  Biso   1.000  C
  C393     1.0000 0.36570  0.48795  0.19166  Biso   1.000  C
  C394     1.0000 0.83104  0.65531  0.49491  Biso   1.000  C
  C395     1.0000 0.00932  0.67260  0.34525  Biso   1.000  C
  C396     1.0000 0.86430  0.50319  0.31642  Biso   1.000  C
  C397     1.0000 0.83605  0.84171  0.00552  Biso   1.000  C
  C398     1.0000 0.02244  0.81842  0.85179  Biso   1.000  C
  C399     1.0000 0.85699  0.99200  0.82223  Biso   1.000  C
  C400     1.0000 0.33186  0.85407  0.49454  Biso   1.000  C
  C401     1.0000 0.50053  0.82019  0.65353  Biso   1.000  C
  C402     1.0000 0.35548  0.99623  0.68284  Biso   1.000  C
  C403     1.0000 0.68499  0.33861  0.99910  Biso   1.000  C
  C404     1.0000 0.49879  0.31904  0.85431  Biso   1.000  C
  C405     1.0000 0.65952  0.50593  0.81921  Biso   1.000  C
  C406     1.0000 0.19059  0.35336  0.51087  Biso   1.000  C
  C407     1.0000 0.01481  0.31997  0.65732  Biso   1.000  C
  C408     1.0000 0.15657  0.50202  0.69183  Biso   1.000  C
  C409     1.0000 0.15341  0.98680  0.82108  Biso   1.000  C
  C410     1.0000 0.82543  0.14186  0.01639  Biso   1.000  C
  C411     1.0000 0.01049  0.80917  0.14396  Biso   1.000  C
  C412     1.0000 0.65143  0.97809  0.68453  Biso   1.000  C
  C413     1.0000 0.32695  0.15343  0.50267  Biso   1.000  C
  C414     1.0000 0.52222  0.81315  0.35748  Biso   1.000  C
  C415     1.0000 0.35837  0.49963  0.82686  Biso   1.000  C
  C416     1.0000 0.69712  0.63966  0.00202  Biso   1.000  C
  C417     1.0000 0.51528  0.30841  0.15528  Biso   1.000  C
  C418     1.0000 0.86145  0.50185  0.68249  Biso   1.000  C
  C419     1.0000 0.19434  0.65117  0.48894  Biso   1.000  C
  C420     1.0000 0.01475  0.31427  0.35777  Biso   1.000  C
  C421     1.0000 0.86726  0.98821  0.18735  Biso   1.000  C
  C422     1.0000 0.19937  0.84772  0.01391  Biso   1.000  C
  C423     1.0000 0.00981  0.18328  0.85892  Biso   1.000  C
  C424     1.0000 0.37264  0.98577  0.31831  Biso   1.000  C
  C425     1.0000 0.69644  0.85224  0.49965  Biso   1.000  C
  C426     1.0000 0.50470  0.17979  0.65710  Biso   1.000  C
  C427     1.0000 0.65996  0.50767  0.17832  Biso   1.000  C
  C428     1.0000 0.32058  0.35193  0.99610  Biso   1.000  C
  C429     1.0000 0.50612  0.68246  0.85390  Biso   1.000  C
  C430     1.0000 0.16430  0.49878  0.32534  Biso   1.000  C
  C431     1.0000 0.82647  0.35593  0.50804  Biso   1.000  C
  C432     1.0000 0.01263  0.68598  0.64278  Biso   1.000  C
  C433     1.0000 0.00965  0.15022  0.82559  Biso   1.000  C
  C434     1.0000 0.83343  0.98874  0.15400  Biso   1.000  C
  C435     1.0000 0.16611  0.81344  0.01422  Biso   1.000  C
  C436     1.0000 0.50840  0.14782  0.69016  Biso   1.000  C
  C437     1.0000 0.33882  0.99182  0.34980  Biso   1.000  C
  C438     1.0000 0.66437  0.81810  0.50206  Biso   1.000  C
  C439     1.0000 0.50492  0.64990  0.82265  Biso   1.000  C
  C440     1.0000 0.69107  0.49767  0.14654  Biso   1.000  C
  C441     1.0000 0.35073  0.31904  0.00195  Biso   1.000  C
  C442     1.0000 0.01603  0.65339  0.67541  Biso   1.000  C
  C443     1.0000 0.19516  0.49670  0.36009  Biso   1.000  C
  C444     1.0000 0.85871  0.32282  0.50727  Biso   1.000  C
  C445     1.0000 0.00759  0.84082  0.17753  Biso   1.000  C
  C446     1.0000 0.18662  0.98459  0.85303  Biso   1.000  C
  C447     1.0000 0.85814  0.17557  0.01322  Biso   1.000  C
  C448     1.0000 0.52013  0.84498  0.32283  Biso   1.000  C
  C449     1.0000 0.68727  0.98029  0.65508  Biso   1.000  C
  C450     1.0000 0.35849  0.18679  0.50185  Biso   1.000  C
  C451     1.0000 0.51579  0.34206  0.18932  Biso   1.000  C
  C452     1.0000 0.32796  0.50258  0.85981  Biso   1.000  C
  C453     1.0000 0.66663  0.67224  0.99866  Biso   1.000  C
  C454     1.0000 0.01613  0.34414  0.32206  Biso   1.000  C
  C455     1.0000 0.82798  0.50056  0.65028  Biso   1.000  C
  C456     1.0000 0.16336  0.68368  0.49015  Biso   1.000  C
  C457     1.0000 0.00457  0.63835  0.31526  Biso   1.000  C
  C458     1.0000 0.32348  0.99194  0.64945  Biso   1.000  C
  C459     1.0000 0.64938  0.30641  0.00372  Biso   1.000  C
  C460     1.0000 0.50963  0.64102  0.18871  Biso   1.000  C
  C461     1.0000 0.82522  0.98428  0.85607  Biso   1.000  C
  C462     1.0000 0.15662  0.32284  0.51100  Biso   1.000  C
  C463     1.0000 0.50819  0.14283  0.32618  Biso   1.000  C
  C464     1.0000 0.18942  0.50505  0.65973  Biso   1.000  C
  C465     1.0000 0.86872  0.81004  0.00274  Biso   1.000  C
  C466     1.0000 0.01229  0.13742  0.19278  Biso   1.000  C
  C467     1.0000 0.69477  0.50420  0.85081  Biso   1.000  C
  C468     1.0000 0.36571  0.82170  0.49818  Biso   1.000  C
  C469     1.0000 0.01109  0.35150  0.69030  Biso   1.000  C
  C470     1.0000 0.70291  0.99902  0.35895  Biso   1.000  C
  C471     1.0000 0.36945  0.68033  0.00982  Biso   1.000  C
  C472     1.0000 0.50071  0.35345  0.82397  Biso   1.000  C
  C473     1.0000 0.19992  0.99298  0.14752  Biso   1.000  C
  C474     1.0000 0.86394  0.68720  0.49149  Biso   1.000  C
  C475     1.0000 0.49915  0.85250  0.68676  Biso   1.000  C
  C476     1.0000 0.83097  0.50640  0.34812  Biso   1.000  C
  C477     1.0000 0.15799  0.17388  0.02012  Biso   1.000  C
  C478     1.0000 0.01142  0.85094  0.82107  Biso   1.000  C
  C479     1.0000 0.33371  0.49666  0.15857  Biso   1.000  C
  C480     1.0000 0.65826  0.18283  0.51720  Biso   1.000  C
  C481     1.0000 0.37997  0.79487  0.50143  Biso   1.000  C
  C482     1.0000 0.49843  0.36946  0.79607  Biso   1.000  C
  C483     1.0000 0.80346  0.50715  0.36368  Biso   1.000  C
  C484     1.0000 0.88645  0.78421  0.00156  Biso   1.000  C
  C485     1.0000 0.00474  0.36815  0.71697  Biso   1.000  C
  C486     1.0000 0.30649  0.50387  0.14254  Biso   1.000  C
  C487     1.0000 0.13931  0.29647  0.51250  Biso   1.000  C
  C488     1.0000 0.00871  0.86616  0.79436  Biso   1.000  C
  C489     1.0000 0.72791  0.99971  0.37776  Biso   1.000  C
  C490     1.0000 0.63259  0.28042  0.00964  Biso   1.000  C
  C491     1.0000 0.49876  0.86746  0.71403  Biso   1.000  C
  C492     1.0000 0.22709  0.99407  0.13247  Biso   1.000  C
  C493     1.0000 0.64277  0.20868  0.52105  Biso   1.000  C
  C494     1.0000 0.50906  0.62461  0.21442  Biso   1.000  C
  C495     1.0000 0.21841  0.50739  0.64384  Biso   1.000  C
  C496     1.0000 0.14118  0.19898  0.02860  Biso   1.000  C
  C497     1.0000 0.00009  0.62322  0.28893  Biso   1.000  C
  C498     1.0000 0.72091  0.50107  0.86640  Biso   1.000  C
  C499     1.0000 0.88178  0.71299  0.49092  Biso   1.000  C
  C500     1.0000 0.01307  0.12054  0.21944  Biso   1.000  C
  C501     1.0000 0.29729  0.98465  0.63156  Biso   1.000  C
  C502     1.0000 0.38648  0.70732  0.01068  Biso   1.000  C
  C503     1.0000 0.50781  0.12587  0.29990  Biso   1.000  C
  C504     1.0000 0.79751  0.97996  0.87264  Biso   1.000  C
  C505     1.0000 0.64199  0.50882  0.79403  Biso   1.000  C
  C506     1.0000 0.80457  0.63853  0.49455  Biso   1.000  C
  C507     1.0000 0.50337  0.79433  0.63691  Biso   1.000  C
  C508     1.0000 0.13950  0.49599  0.71739  Biso   1.000  C
  C509     1.0000 0.30856  0.63180  0.01202  Biso   1.000  C
  C510     1.0000 0.02871  0.79170  0.86559  Biso   1.000  C
  C511     1.0000 0.87317  0.99712  0.79680  Biso   1.000  C
  C512     1.0000 0.71898  0.13552  0.51650  Biso   1.000  C
  C513     1.0000 0.01603  0.29339  0.64006  Biso   1.000  C
  C514     1.0000 0.37061  0.99849  0.70977  Biso   1.000  C
  C515     1.0000 0.22045  0.13059  0.00467  Biso   1.000  C
  C516     1.0000 0.49330  0.29212  0.86886  Biso   1.000  C
  C517     1.0000 0.38165  0.48668  0.21941  Biso   1.000  C
  C518     1.0000 0.21744  0.36880  0.51205  Biso   1.000  C
  C519     1.0000 0.50806  0.20536  0.37253  Biso   1.000  C
  C520     1.0000 0.88159  0.50223  0.28884  Biso   1.000  C
  C521     1.0000 0.71269  0.35438  0.99567  Biso   1.000  C
  C522     1.0000 0.01103  0.19696  0.14375  Biso   1.000  C
  C523     1.0000 0.15003  0.98874  0.20610  Biso   1.000  C
  C524     1.0000 0.30665  0.87023  0.48740  Biso   1.000  C
  C525     1.0000 0.00888  0.70083  0.36016  Biso   1.000  C
  C526     1.0000 0.65308  0.00223  0.29628  Biso   1.000  C
  C527     1.0000 0.80849  0.85473  0.01026  Biso   1.000  C
  C528     1.0000 0.51607  0.70114  0.14042  Biso   1.000  C
  C529     1.0000 0.80005  0.12336  0.01969  Biso   1.000  C
  C530     1.0000 0.01462  0.78211  0.12990  Biso   1.000  C
  C531     1.0000 0.13756  0.98860  0.79331  Biso   1.000  C
  C532     1.0000 0.29920  0.13722  0.50451  Biso   1.000  C
  C533     1.0000 0.52254  0.78674  0.37564  Biso   1.000  C
  C534     1.0000 0.63497  0.97122  0.70965  Biso   1.000  C
  C535     1.0000 0.72446  0.62274  0.00418  Biso   1.000  C
  C536     1.0000 0.51395  0.28250  0.13829  Biso   1.000  C
  C537     1.0000 0.37289  0.49202  0.80087  Biso   1.000  C
  C538     1.0000 0.22095  0.63553  0.48646  Biso   1.000  C
  C539     1.0000 0.01931  0.28863  0.37521  Biso   1.000  C
  C540     1.0000 0.87566  0.50566  0.71062  Biso   1.000  C
  C541     1.0000 0.22590  0.86316  0.01672  Biso   1.000  C
  C542     1.0000 0.01109  0.20869  0.87725  Biso   1.000  C
  C543     1.0000 0.88544  0.98709  0.21504  Biso   1.000  C
  C544     1.0000 0.72281  0.86987  0.49181  Biso   1.000  C
  C545     1.0000 0.50267  0.20805  0.64203  Biso   1.000  C
  C546     1.0000 0.39091  0.97892  0.29332  Biso   1.000  C
  C547     1.0000 0.29438  0.36786  0.99343  Biso   1.000  C
  C548     1.0000 0.50879  0.70799  0.87216  Biso   1.000  C
  C549     1.0000 0.64494  0.51448  0.20521  Biso   1.000  C
  C550     1.0000 0.79993  0.37168  0.50818  Biso   1.000  C
  C551     1.0000 0.00859  0.71305  0.62604  Biso   1.000  C
  C552     1.0000 0.14901  0.49909  0.29728  Biso   1.000  C
  C553     1.0000 0.00404  0.13445  0.79812  Biso   1.000  C
  C554     1.0000 0.80603  0.99424  0.13916  Biso   1.000  C
  C555     1.0000 0.15007  0.78525  0.01315  Biso   1.000  C
  C556     1.0000 0.51479  0.13289  0.71622  Biso   1.000  C
  C557     1.0000 0.31233  0.00096  0.36296  Biso   1.000  C
  C558     1.0000 0.64749  0.79042  0.50407  Biso   1.000  C
  C559     1.0000 0.49812  0.63234  0.79582  Biso   1.000  C
  C560     1.0000 0.71778  0.49164  0.13292  Biso   1.000  C
  C561     1.0000 0.36653  0.29081  0.00422  Biso   1.000  C
  C562     1.0000 0.01700  0.63748  0.70264  Biso   1.000  C
  C563     1.0000 0.22255  0.49773  0.37710  Biso   1.000  C
  C564     1.0000 0.87578  0.29601  0.51322  Biso   1.000  C
  C565     1.0000 0.00342  0.85738  0.20353  Biso   1.000  C
  C566     1.0000 0.21415  0.98189  0.86784  Biso   1.000  C
  C567     1.0000 0.87434  0.20390  0.00776  Biso   1.000  C
  C568     1.0000 0.51870  0.86152  0.29650  Biso   1.000  C
  C569     1.0000 0.71479  0.97760  0.64008  Biso   1.000  C
  C570     1.0000 0.37590  0.21378  0.50251  Biso   1.000  C
  C571     1.0000 0.51914  0.35886  0.21632  Biso   1.000  C
  C572     1.0000 0.30179  0.50658  0.87609  Biso   1.000  C
  C573     1.0000 0.65110  0.70097  0.00139  Biso   1.000  C
  C574     1.0000 0.01589  0.35860  0.29456  Biso   1.000  C
  C575     1.0000 0.80146  0.49449  0.63349  Biso   1.000  C
  C576     1.0000 0.14717  0.71014  0.49157  Biso   1.000  C
  C577     1.0000 0.30846  0.50708  0.11058  Biso   1.000  C
  C578     1.0000 0.10826  0.29867  0.51211  Biso   1.000  C
  C579     1.0000 0.51216  0.09398  0.30115  Biso   1.000  C
  C580     1.0000 0.80243  0.50601  0.39489  Biso   1.000  C
  C581     1.0000 0.60174  0.28409  0.01521  Biso   1.000  C
  C582     1.0000 0.01748  0.08955  0.21560  Biso   1.000  C
  C583     1.0000 0.22550  0.99345  0.10120  Biso   1.000  C
  C584     1.0000 0.41098  0.79544  0.50593  Biso   1.000  C
  C585     1.0000 0.99917  0.59181  0.29044  Biso   1.000  C
  C586     1.0000 0.72489  0.99908  0.40935  Biso   1.000  C
  C587     1.0000 0.91714  0.78629  0.99794  Biso   1.000  C
  C588     1.0000 0.50993  0.59286  0.21449  Biso   1.000  C
  C589     1.0000 0.72183  0.49782  0.89746  Biso   1.000  C
  C590     1.0000 0.91317  0.71194  0.49012  Biso   1.000  C
  C591     1.0000 0.49480  0.89860  0.71311  Biso   1.000  C
  C592     1.0000 0.21871  0.51075  0.61287  Biso   1.000  C
  C593     1.0000 0.41835  0.70622  0.01165  Biso   1.000  C
  C594     1.0000 0.00440  0.89847  0.79463  Biso   1.000  C
  C595     1.0000 0.79888  0.98312  0.90403  Biso   1.000  C
  C596     1.0000 0.61218  0.20844  0.51827  Biso   1.000  C
  C597     1.0000 0.00386  0.39972  0.71627  Biso   1.000  C
  C598     1.0000 0.29923  0.98405  0.59987  Biso   1.000  C
  C599     1.0000 0.11037  0.19788  0.03050  Biso   1.000  C
  C600     1.0000 0.50153  0.39994  0.79653  Biso   1.000  C
  C601     1.0000 0.21516  0.98341  0.89920  Biso   1.000  C
  C602     1.0000 0.90648  0.20408  0.00860  Biso   1.000  C
  C603     1.0000 0.00342  0.88860  0.20328  Biso   1.000  C
  C604     1.0000 0.71697  0.98573  0.60975  Biso   1.000  C
  C605     1.0000 0.40727  0.21284  0.50423  Biso   1.000  C
  C606     1.0000 0.51918  0.89346  0.29624  Biso   1.000  C
  C607     1.0000 0.30177  0.50935  0.90751  Biso   1.000  C
  C608     1.0000 0.61990  0.70142  0.00281  Biso   1.000  C
  C609     1.0000 0.51611  0.38967  0.21431  Biso   1.000  C
  C610     1.0000 0.80307  0.49538  0.60113  Biso   1.000  C
  C611     1.0000 0.11597  0.71074  0.49430  Biso   1.000  C
  C612     1.0000 0.01632  0.39023  0.29197  Biso   1.000  C
  C613     1.0000 0.80696  0.99342  0.10840  Biso   1.000  C
  C614     1.0000 0.11928  0.78482  0.00822  Biso   1.000  C
  C615     1.0000 0.00576  0.10190  0.79911  Biso   1.000  C
  C616     1.0000 0.31293  0.00311  0.39499  Biso   1.000  C
  C617     1.0000 0.61608  0.79053  0.50428  Biso   1.000  C
  C618     1.0000 0.51663  0.10146  0.71364  Biso   1.000  C
  C619     1.0000 0.71757  0.48378  0.10111  Biso   1.000  C
  C620     1.0000 0.39883  0.29155  0.00804  Biso   1.000  C
  C621     1.0000 0.50049  0.60132  0.79667  Biso   1.000  C
  C622     1.0000 0.22147  0.49712  0.40917  Biso   1.000  C
  C623     1.0000 0.90779  0.29538  0.51264  Biso   1.000  C
  C624     1.0000 0.01917  0.60591  0.70156  Biso   1.000  C
  C625     1.0000 0.01263  0.20388  0.90834  Biso   1.000  C
  C626     1.0000 0.91588  0.98599  0.21340  Biso   1.000  C
  C627     1.0000 0.22525  0.89509  0.01505  Biso   1.000  C
  C628     1.0000 0.50396  0.20940  0.61070  Biso   1.000  C
  C629     1.0000 0.42263  0.97909  0.29609  Biso   1.000  C
  C630     1.0000 0.72072  0.90112  0.49459  Biso   1.000  C
  C631     1.0000 0.51246  0.70687  0.90339  Biso   1.000  C
  C632     1.0000 0.61431  0.51097  0.20503  Biso   1.000  C
  C633     1.0000 0.29662  0.40041  0.99503  Biso   1.000  C
  C634     1.0000 0.00827  0.71344  0.59437  Biso   1.000  C
  C635     1.0000 0.11675  0.49921  0.29588  Biso   1.000  C
  C636     1.0000 0.80125  0.40302  0.50846  Biso   1.000  C
  C637     1.0000 0.01460  0.78169  0.09906  Biso   1.000  C
  C638     1.0000 0.10730  0.99074  0.79178  Biso   1.000  C
  C639     1.0000 0.80249  0.09247  0.02332  Biso   1.000  C
  C640     1.0000 0.52553  0.78949  0.40681  Biso   1.000  C
  C641     1.0000 0.60420  0.97479  0.70903  Biso   1.000  C
  C642     1.0000 0.30048  0.10553  0.50383  Biso   1.000  C
  C643     1.0000 0.50853  0.28329  0.10727  Biso   1.000  C
  C644     1.0000 0.40512  0.49431  0.80040  Biso   1.000  C
  C645     1.0000 0.72262  0.59045  0.00674  Biso   1.000  C
  C646     1.0000 0.01752  0.29173  0.40723  Biso   1.000  C
  C647     1.0000 0.90759  0.50572  0.71047  Biso   1.000  C
  C648     1.0000 0.22173  0.60323  0.48754  Biso   1.000  C
  C649     1.0000 0.01014  0.70149  0.39206  Biso   1.000  C
  C650     1.0000 0.40144  0.00207  0.71138  Biso   1.000  C
  C651     1.0000 0.71517  0.38576  0.99671  Biso   1.000  C
  C652     1.0000 0.52097  0.70030  0.10979  Biso   1.000  C
  C653     1.0000 0.90422  0.00331  0.79718  Biso   1.000  C
  C654     1.0000 0.21802  0.40042  0.51023  Biso   1.000  C
  C655     1.0000 0.50966  0.20436  0.40383  Biso   1.000  C
  C656     1.0000 0.10784  0.49602  0.71634  Biso   1.000  C
  C657     1.0000 0.80690  0.88555  0.00934  Biso   1.000  C
  C658     1.0000 0.00878  0.19734  0.11201  Biso   1.000  C
  C659     1.0000 0.61015  0.50821  0.79620  Biso   1.000  C
  C660     1.0000 0.30564  0.90143  0.48564  Biso   1.000  C
  C661     1.0000 0.01878  0.29679  0.60888  Biso   1.000  C
  C662     1.0000 0.62136  0.00455  0.29758  Biso   1.000  C
  C663     1.0000 0.30758  0.59977  0.01183  Biso   1.000  C
  C664     1.0000 0.49175  0.29126  0.89990  Biso   1.000  C
  C665     1.0000 0.11799  0.98644  0.20569  Biso   1.000  C
  C666     1.0000 0.80534  0.60695  0.49916  Biso   1.000  C
  C667     1.0000 0.50656  0.79233  0.60578  Biso   1.000  C
  C668     1.0000 0.91394  0.49772  0.28987  Biso   1.000  C
  C669     1.0000 0.22011  0.09954  0.00069  Biso   1.000  C
  C670     1.0000 0.03001  0.78974  0.89687  Biso   1.000  C
  C671     1.0000 0.41410  0.48714  0.21828  Biso   1.000  C
  C672     1.0000 0.71867  0.10418  0.51229  Biso   1.000  C
  C673     1.0000 0.19870  0.98189  0.80504  Biso   1.000  C
  C674     1.0000 0.81206  0.18853  0.01060  Biso   1.000  C
  C675     1.0000 0.00697  0.79309  0.19005  Biso   1.000  C
  C676     1.0000 0.69908  0.97503  0.70368  Biso   1.000  C
  C677     1.0000 0.31041  0.19917  0.50542  Biso   1.000  C
  C678     1.0000 0.51706  0.79627  0.31223  Biso   1.000  C
  C679     1.0000 0.31159  0.49782  0.81306  Biso   1.000  C
  C680     1.0000 0.71166  0.68683  0.99745  Biso   1.000  C
  C681     1.0000 0.52115  0.29334  0.20076  Biso   1.000  C
  C682     1.0000 0.81302  0.49937  0.69551  Biso   1.000  C
  C683     1.0000 0.20871  0.69857  0.48891  Biso   1.000  C
  C684     1.0000 0.01650  0.29705  0.31176  Biso   1.000  C
  C685     1.0000 0.82277  0.99063  0.20314  Biso   1.000  C
  C686     1.0000 0.21299  0.80239  0.01635  Biso   1.000  C
  C687     1.0000 0.00843  0.19652  0.81236  Biso   1.000  C
  C688     1.0000 0.32407  0.98661  0.30357  Biso   1.000  C
  C689     1.0000 0.70956  0.80380  0.49165  Biso   1.000  C
  C690     1.0000 0.50405  0.19464  0.70288  Biso   1.000  C
  C691     1.0000 0.70764  0.50588  0.19215  Biso   1.000  C
  C692     1.0000 0.30384  0.30589  0.99939  Biso   1.000  C
  C693     1.0000 0.50355  0.69630  0.80827  Biso   1.000  C
  C694     1.0000 0.20909  0.49799  0.31174  Biso   1.000  C
  C695     1.0000 0.81289  0.30841  0.51293  Biso   1.000  C
  C696     1.0000 0.01393  0.69907  0.68928  Biso   1.000  C
  C697     1.0000 0.71724  0.99927  0.31320  Biso   1.000  C
  C698     1.0000 0.32318  0.69486  0.00999  Biso   1.000  C
  C699     1.0000 0.00895  0.30457  0.70465  Biso   1.000  C
  C700     1.0000 0.21232  0.98872  0.19551  Biso   1.000  C
  C701     1.0000 0.81827  0.70166  0.48953  Biso   1.000  C
  C702     1.0000 0.50015  0.30634  0.80719  Biso   1.000  C
  C703     1.0000 0.81705  0.50808  0.30098  Biso   1.000  C
  C704     1.0000 0.20259  0.19148  0.01581  Biso   1.000  C
  C705     1.0000 0.50125  0.80529  0.70015  Biso   1.000  C
  C706     1.0000 0.31830  0.49046  0.20448  Biso   1.000  C
  C707     1.0000 0.70387  0.19904  0.51977  Biso   1.000  C
  C708     1.0000 0.01524  0.80435  0.80479  Biso   1.000  C
  C709     1.0000 0.30884  0.98636  0.69651  Biso   1.000  C
  C710     1.0000 0.69523  0.29085  0.00283  Biso   1.000  C
  C711     1.0000 0.00674  0.68418  0.29923  Biso   1.000  C
  C712     1.0000 0.81048  0.98522  0.80892  Biso   1.000  C
  C713     1.0000 0.20273  0.30568  0.51107  Biso   1.000  C
  C714     1.0000 0.50659  0.68586  0.20293  Biso   1.000  C
  C715     1.0000 0.20187  0.49591  0.70762  Biso   1.000  C
  C716     1.0000 0.82254  0.79574  0.00477  Biso   1.000  C
  C717     1.0000 0.50931  0.18918  0.31066  Biso   1.000  C
  C718     1.0000 0.70438  0.50548  0.80135  Biso   1.000  C
  C719     1.0000 0.31742  0.80701  0.48893  Biso   1.000  C
  C720     1.0000 0.01237  0.18297  0.20788  Biso   1.000  C
  C721     1.0000 0.52935  0.79847  0.28310  Biso   1.000  C
  C722     1.0000 0.31551  0.50639  0.78395  Biso   1.000  C
  C723     1.0000 0.78575  0.31467  0.52744  Biso   1.000  C
  C724     1.0000 0.99067  0.76551  0.18571  Biso   1.000  C
  C725     1.0000 0.78527  0.51400  0.68875  Biso   1.000  C
  C726     1.0000 0.27944  0.30311  0.98052  Biso   1.000  C
  C727     1.0000 0.00002  0.27020  0.31582  Biso   1.000  C
  C728     1.0000 0.22763  0.99461  0.80812  Biso   1.000  C
  C729     1.0000 0.73779  0.80734  0.50353  Biso   1.000  C
  C730     1.0000 0.51050  0.29894  0.23030  Biso   1.000  C
  C731     1.0000 0.72496  0.95798  0.70104  Biso   1.000  C
  C732     1.0000 0.23818  0.80556  0.99930  Biso   1.000  C
  C733     1.0000 0.49126  0.19033  0.73097  Biso   1.000  C
  C734     1.0000 0.70094  0.49168  0.21966  Biso   1.000  C
  C735     1.0000 0.20686  0.72415  0.46968  Biso   1.000  C
  C736     1.0000 0.99346  0.22396  0.81564  Biso   1.000  C
  C737     1.0000 0.23117  0.47613  0.31373  Biso   1.000  C
  C738     1.0000 0.73904  0.68414  0.01547  Biso   1.000  C
  C739     1.0000 0.03567  0.69649  0.71273  Biso   1.000  C
  C740     1.0000 0.79434  0.97671  0.20101  Biso   1.000  C
  C741     1.0000 0.28246  0.19462  0.49040  Biso   1.000  C
  C742     1.0000 0.51495  0.69218  0.77854  Biso   1.000  C
  C743     1.0000 0.29542  0.97403  0.30907  Biso   1.000  C
  C744     1.0000 0.81327  0.21597  0.02394  Biso   1.000  C
  C745     1.0000 0.02836  0.70718  0.29730  Biso   1.000  C
  C746     1.0000 0.28076  0.99860  0.69367  Biso   1.000  C
  C747     1.0000 0.72272  0.29755  0.01838  Biso   1.000  C
  C748     1.0000 0.52774  0.70893  0.20200  Biso   1.000  C
  C749     1.0000 0.81431  0.96805  0.78307  Biso   1.000  C
  C750     1.0000 0.22714  0.30578  0.53129  Biso   1.000  C
  C751     1.0000 0.52897  0.18429  0.28745  Biso   1.000  C
  C752     1.0000 0.22834  0.48117  0.70223  Biso   1.000  C
  C753     1.0000 0.79709  0.79940  0.98490  Biso   1.000  C
  C754     1.0000 0.03328  0.18339  0.23279  Biso   1.000  C
  C755     1.0000 0.69550  0.49183  0.77418  Biso   1.000  C
  C756     1.0000 0.29052  0.81098  0.50406  Biso   1.000  C
  C757     1.0000 0.99455  0.27702  0.69751  Biso   1.000  C
  C758     1.0000 0.71745  0.01617  0.28665  Biso   1.000  C
  C759     1.0000 0.29932  0.69284  0.03086  Biso   1.000  C
  C760     1.0000 0.52112  0.30773  0.78406  Biso   1.000  C
  C761     1.0000 0.23707  0.00830  0.19489  Biso   1.000  C
  C762     1.0000 0.82251  0.72789  0.47277  Biso   1.000  C
  C763     1.0000 0.48045  0.80563  0.72309  Biso   1.000  C
  C764     1.0000 0.79213  0.52761  0.30319  Biso   1.000  C
  C765     1.0000 0.23238  0.19017  0.02958  Biso   1.000  C
  C766     1.0000 0.99496  0.80481  0.78236  Biso   1.000  C
  C767     1.0000 0.32228  0.50124  0.23588  Biso   1.000  C
  C768     1.0000 0.69883  0.22468  0.50259  Biso   1.000  C
  C769     1.0000 0.49084  0.72527  0.81325  Biso   1.000  C
  C770     1.0000 0.81366  0.48100  0.72136  Biso   1.000  C
  C771     1.0000 0.70351  0.77640  0.47746  Biso   1.000  C
  C772     1.0000 0.99733  0.72653  0.68931  Biso   1.000  C
  C773     1.0000 0.28479  0.48196  0.82039  Biso   1.000  C
  C774     1.0000 0.21268  0.77744  0.03465  Biso   1.000  C
  C775     1.0000 0.02609  0.19233  0.78705  Biso   1.000  C
  C776     1.0000 0.69347  0.99021  0.72957  Biso   1.000  C
  C777     1.0000 0.81693  0.27811  0.50269  Biso   1.000  C
  C778     1.0000 0.51904  0.22176  0.69938  Biso   1.000  C
  C779     1.0000 0.19454  0.96704  0.77709  Biso   1.000  C
  C780     1.0000 0.30659  0.28384  0.02294  Biso   1.000  C
  C781     1.0000 0.53490  0.26579  0.19583  Biso   1.000  C
  C782     1.0000 0.20977  0.51747  0.28676  Biso   1.000  C
  C783     1.0000 0.31367  0.22435  0.52119  Biso   1.000  C
  C784     1.0000 0.03236  0.29964  0.28504  Biso   1.000  C
  C785     1.0000 0.73691  0.51860  0.18843  Biso   1.000  C
  C786     1.0000 0.78740  0.18305  0.99173  Biso   1.000  C
  C787     1.0000 0.02133  0.79617  0.21829  Biso   1.000  C
  C788     1.0000 0.33009  0.99573  0.27401  Biso   1.000  C
  C789     1.0000 0.23258  0.69493  0.50845  Biso   1.000  C
  C790     1.0000 0.50172  0.76929  0.31827  Biso   1.000  C
  C791     1.0000 0.82940  0.00468  0.23097  Biso   1.000  C
  C792     1.0000 0.71252  0.71233  0.97997  Biso   1.000  C
  C793     1.0000 0.49281  0.21672  0.31188  Biso   1.000  C
  C794     1.0000 0.28825  0.48079  0.19792  Biso   1.000  C
  C795     1.0000 0.20022  0.28257  0.48880  Biso   1.000  C
  C796     1.0000 0.99361  0.20746  0.20272  Biso   1.000  C
  C797     1.0000 0.81899  0.48965  0.27575  Biso   1.000  C
  C798     1.0000 0.69315  0.26064  0.99023  Biso   1.000  C
  C799     1.0000 0.98503  0.68238  0.27682  Biso   1.000  C
  C800     1.0000 0.21147  0.96744  0.21841  Biso   1.000  C
  C801     1.0000 0.32190  0.78016  0.47215  Biso   1.000  C
  C802     1.0000 0.48592  0.68574  0.22741  Biso   1.000  C
  C803     1.0000 0.73938  0.97707  0.31692  Biso   1.000  C
  C804     1.0000 0.82596  0.77016  0.02093  Biso   1.000  C
  C805     1.0000 0.52027  0.78150  0.69645  Biso   1.000  C
  C806     1.0000 0.73541  0.51369  0.80203  Biso   1.000  C
  C807     1.0000 0.79059  0.69717  0.50423  Biso   1.000  C
  C808     1.0000 0.03748  0.78141  0.80392  Biso   1.000  C
  C809     1.0000 0.19869  0.50723  0.73747  Biso   1.000  C
  C810     1.0000 0.32625  0.72290  0.99453  Biso   1.000  C
  C811     1.0000 0.02174  0.30904  0.73279  Biso   1.000  C
  C812     1.0000 0.78421  0.00013  0.81209  Biso   1.000  C
  C813     1.0000 0.72998  0.19802  0.53823  Biso   1.000  C
  C814     1.0000 0.47965  0.28173  0.80715  Biso   1.000  C
  C815     1.0000 0.31483  0.97251  0.72382  Biso   1.000  C
  C816     1.0000 0.19545  0.21813  0.00217  Biso   1.000  C
  C817     1.0000 0.99324  0.24268  0.79317  Biso   1.000  C
  C818     1.0000 0.77558  0.97510  0.22466  Biso   1.000  C
  C819     1.0000 0.26119  0.78640  0.00016  Biso   1.000  C
  C820     1.0000 0.49086  0.21126  0.75201  Biso   1.000  C
  C821     1.0000 0.27387  0.97542  0.28863  Biso   1.000  C
  C822     1.0000 0.75932  0.78816  0.49788  Biso   1.000  C
  C823     1.0000 0.51563  0.71322  0.75843  Biso   1.000  C
  C824     1.0000 0.72297  0.49415  0.23994  Biso   1.000  C
  C825     1.0000 0.26000  0.28090  0.98398  Biso   1.000  C
  C826     1.0000 0.03651  0.71783  0.73564  Biso   1.000  C
  C827     1.0000 0.25083  0.47144  0.29238  Biso   1.000  C
  C828     1.0000 0.76264  0.29448  0.52731  Biso   1.000  C
  C829     1.0000 0.99129  0.74275  0.20610  Biso   1.000  C
  C830     1.0000 0.24811  0.99232  0.78703  Biso   1.000  C
  C831     1.0000 0.79066  0.23555  0.02144  Biso   1.000  C
  C832     1.0000 0.52487  0.77692  0.26284  Biso   1.000  C
  C833     1.0000 0.74583  0.95847  0.72284  Biso   1.000  C
  C834     1.0000 0.26000  0.21433  0.49386  Biso   1.000  C
  C835     1.0000 0.50944  0.27747  0.25007  Biso   1.000  C
  C836     1.0000 0.29385  0.50275  0.76396  Biso   1.000  C
  C837     1.0000 0.76153  0.70315  0.01262  Biso   1.000  C
  C838     1.0000 0.99754  0.25173  0.29347  Biso   1.000  C
  C839     1.0000 0.76201  0.51287  0.70808  Biso   1.000  C
  C840     1.0000 0.22848  0.74472  0.47103  Biso   1.000  C
  C841     1.0000 0.21669  0.96514  0.75734  Biso   1.000  C
  C842     1.0000 0.76585  0.20364  0.98812  Biso   1.000  C
  C843     1.0000 0.01944  0.77459  0.23875  Biso   1.000  C
  C844     1.0000 0.71528  0.99091  0.75031  Biso   1.000  C
  C845     1.0000 0.29204  0.24512  0.52214  Biso   1.000  C
  C846     1.0000 0.49726  0.74806  0.29619  Biso   1.000  C
  C847     1.0000 0.26388  0.47777  0.80012  Biso   1.000  C
  C848     1.0000 0.73520  0.73279  0.97883  Biso   1.000  C
  C849     1.0000 0.53311  0.24452  0.21732  Biso   1.000  C
  C850     1.0000 0.78926  0.47996  0.73870  Biso   1.000  C
  C851     1.0000 0.25411  0.71714  0.50785  Biso   1.000  C
  C852     1.0000 0.03148  0.27711  0.26547  Biso   1.000  C
  C853     1.0000 0.81037  0.00499  0.25359  Biso   1.000  C
  C854     1.0000 0.23621  0.75878  0.03671  Biso   1.000  C
  C855     1.0000 0.02382  0.21175  0.76352  Biso   1.000  C
  C856     1.0000 0.30842  0.99614  0.25353  Biso   1.000  C
  C857     1.0000 0.72379  0.75530  0.47522  Biso   1.000  C
  C858     1.0000 0.51675  0.24291  0.71935  Biso   1.000  C
  C859     1.0000 0.75643  0.52178  0.21094  Biso   1.000  C
  C860     1.0000 0.28559  0.26289  0.02734  Biso   1.000  C
  C861     1.0000 0.48986  0.74551  0.79042  Biso   1.000  C
  C862     1.0000 0.22954  0.51257  0.26450  Biso   1.000  C
  C863     1.0000 0.79405  0.25868  0.50587  Biso   1.000  C
  C864     1.0000 0.99889  0.74606  0.71136  Biso   1.000  C
  C865     1.0000 0.71468  0.48950  0.75081  Biso   1.000  C
  C866     1.0000 0.80081  0.74679  0.46817  Biso   1.000  C
  C867     1.0000 0.48101  0.78365  0.74385  Biso   1.000  C
  C868     1.0000 0.24999  0.47963  0.72275  Biso   1.000  C
  C869     1.0000 0.27931  0.71349  0.03051  Biso   1.000  C
  C870     1.0000 0.99476  0.78282  0.76183  Biso   1.000  C
  C871     1.0000 0.79233  0.96533  0.76254  Biso   1.000  C
  C872     1.0000 0.72092  0.24586  0.50292  Biso   1.000  C
  C873     1.0000 0.99360  0.25569  0.71857  Biso   1.000  C
  C874     1.0000 0.25923  0.99509  0.71398  Biso   1.000  C
  C875     1.0000 0.25123  0.21399  0.02926  Biso   1.000  C
  C876     1.0000 0.52170  0.28477  0.76431  Biso   1.000  C
  C877     1.0000 0.30030  0.49911  0.25555  Biso   1.000  C
  C878     1.0000 0.24485  0.28265  0.53108  Biso   1.000  C
  C879     1.0000 0.53133  0.20467  0.26589  Biso   1.000  C
  C880     1.0000 0.77038  0.52698  0.28326  Biso   1.000  C
  C881     1.0000 0.74633  0.27771  0.01949  Biso   1.000  C
  C882     1.0000 0.03157  0.20734  0.25200  Biso   1.000  C
  C883     1.0000 0.25640  0.00760  0.21719  Biso   1.000  C
  C884     1.0000 0.27040  0.78811  0.50531  Biso   1.000  C
  C885     1.0000 0.02668  0.72756  0.27550  Biso   1.000  C
  C886     1.0000 0.73928  0.01275  0.26716  Biso   1.000  C
  C887     1.0000 0.77707  0.77625  0.98107  Biso   1.000  C
  C888     1.0000 0.52702  0.73011  0.22331  Biso   1.000  C
  C889     1.0000 0.76123  0.97524  0.29672  Biso   1.000  C
  C890     1.0000 0.30660  0.74435  0.99774  Biso   1.000  C
  C891     1.0000 0.02163  0.28647  0.75163  Biso   1.000  C
  C892     1.0000 0.23391  0.96641  0.23885  Biso   1.000  C
  C893     1.0000 0.76988  0.71837  0.50166  Biso   1.000  C
  C894     1.0000 0.48057  0.26018  0.78687  Biso   1.000  C
  C895     1.0000 0.79510  0.48843  0.25764  Biso   1.000  C
  C896     1.0000 0.21588  0.23959  0.00072  Biso   1.000  C
  C897     1.0000 0.51993  0.75924  0.71628  Biso   1.000  C
  C898     1.0000 0.26637  0.48225  0.21787  Biso   1.000  C
  C899     1.0000 0.75153  0.21987  0.53787  Biso   1.000  C
  C900     1.0000 0.03677  0.76109  0.78193  Biso   1.000  C
  C901     1.0000 0.29235  0.96749  0.74373  Biso   1.000  C
  C902     1.0000 0.71770  0.24352  0.98918  Biso   1.000  C
  C903     1.0000 0.98442  0.70429  0.25597  Biso   1.000  C
  C904     1.0000 0.76107  0.99571  0.79271  Biso   1.000  C
  C905     1.0000 0.22072  0.26149  0.49010  Biso   1.000  C
  C906     1.0000 0.48781  0.70666  0.24825  Biso   1.000  C
  C907     1.0000 0.21887  0.50180  0.75835  Biso   1.000  C
  C908     1.0000 0.80479  0.74855  0.01766  Biso   1.000  C
  C909     1.0000 0.49518  0.23443  0.28797  Biso   1.000  C
  C910     1.0000 0.75282  0.51097  0.77887  Biso   1.000  C
  C911     1.0000 0.30018  0.75851  0.47341  Biso   1.000  C
  C912     1.0000 0.99466  0.23265  0.22151  Biso   1.000  C
  C913     1.0000 0.76505  0.49570  0.73149  Biso   1.000  C
  C914     1.0000 0.75338  0.76342  0.48229  Biso   1.000  C
  C915     1.0000 0.50158  0.73934  0.76381  Biso   1.000  C
  C916     1.0000 0.26789  0.48901  0.77135  Biso   1.000  C
  C917     1.0000 0.26095  0.76241  0.01818  Biso   1.000  C
  C918     1.0000 0.01840  0.74091  0.73635  Biso   1.000  C
  C919     1.0000 0.74071  0.97572  0.74705  Biso   1.000  C
  C920     1.0000 0.76764  0.26610  0.51784  Biso   1.000  C
  C921     1.0000 0.00720  0.23649  0.76740  Biso   1.000  C
  C922     1.0000 0.24345  0.97736  0.76216  Biso   1.000  C
  C923     1.0000 0.26232  0.26215  0.00822  Biso   1.000  C
  C924     1.0000 0.50311  0.23826  0.74560  Biso   1.000  C
  C925     1.0000 0.25035  0.49006  0.26771  Biso   1.000  C
  C926     1.0000 0.26438  0.23763  0.51166  Biso   1.000  C
  C927     1.0000 0.51957  0.25100  0.24326  Biso   1.000  C
  C928     1.0000 0.75030  0.50720  0.23626  Biso   1.000  C
  C929     1.0000 0.76742  0.22920  0.00496  Biso   1.000  C
  C930     1.0000 0.01332  0.25416  0.26819  Biso   1.000  C
  C931     1.0000 0.27972  0.98603  0.26041  Biso   1.000  C
  C932     1.0000 0.25190  0.74029  0.48959  Biso   1.000  C
  C933     1.0000 0.00583  0.74911  0.23197  Biso   1.000  C
  C934     1.0000 0.78462  0.98934  0.25082  Biso   1.000  C
  C935     1.0000 0.75900  0.72819  0.99625  Biso   1.000  C
  C936     1.0000 0.50958  0.75223  0.26929  Biso   1.000  C
  C937     1.0000 0.74385  0.25132  0.00403  Biso   1.000  C
  C938     1.0000 0.00536  0.72676  0.25427  Biso   1.000  C
  C939     1.0000 0.26528  0.97881  0.73894  Biso   1.000  C
  C940     1.0000 0.24312  0.26048  0.51039  Biso   1.000  C
  C941     1.0000 0.50779  0.72927  0.24620  Biso   1.000  C
  C942     1.0000 0.76607  0.97912  0.76748  Biso   1.000  C
  C943     1.0000 0.78088  0.75105  0.99876  Biso   1.000  C
  C944     1.0000 0.51539  0.22932  0.26734  Biso   1.000  C
  C945     1.0000 0.24364  0.48804  0.75083  Biso   1.000  C
  C946     1.0000 0.27496  0.76214  0.48931  Biso   1.000  C
  C947     1.0000 0.01175  0.23040  0.24622  Biso   1.000  C
  C948     1.0000 0.74346  0.49771  0.75322  Biso   1.000  C
  C949     1.0000 0.28246  0.73952  0.01418  Biso   1.000  C
  C950     1.0000 0.00636  0.25996  0.74585  Biso   1.000  C
  C951     1.0000 0.76201  0.99371  0.27186  Biso   1.000  C
  C952     1.0000 0.77524  0.74103  0.48206  Biso   1.000  C
  C953     1.0000 0.50114  0.26150  0.76583  Biso   1.000  C
  C954     1.0000 0.25685  0.98641  0.23805  Biso   1.000  C
  C955     1.0000 0.24383  0.23791  0.01440  Biso   1.000  C
  C956     1.0000 0.49944  0.75994  0.73946  Biso   1.000  C
  C957     1.0000 0.77210  0.50659  0.26082  Biso   1.000  C
  C958     1.0000 0.74665  0.24306  0.51858  Biso   1.000  C
  C959     1.0000 0.01529  0.76089  0.76079  Biso   1.000  C
  C960     1.0000 0.27380  0.49035  0.24530  Biso   1.000  C
  Cu1      1.0000 0.01060  0.50084  0.65668  Biso   1.000  Cu
  Cu2      1.0000 0.66876  0.00270  0.50736  Biso   1.000  Cu
  Cu3      1.0000 0.51757  0.64808  0.00621  Biso   1.000  Cu
  Cu4      1.0000 0.50879  0.50187  0.85209  Biso   1.000  Cu
  Cu5      1.0000 0.16759  0.99544  0.00282  Biso   1.000  Cu
  Cu6      1.0000 0.01558  0.65353  0.49552  Biso   1.000  Cu
  Cu7      1.0000 0.50464  0.00046  0.65889  Biso   1.000  Cu
  Cu8      1.0000 0.85767  0.50605  0.49837  Biso   1.000  Cu
  Cu9      1.0000 0.00990  0.14301  0.01044  Biso   1.000  Cu
  Cu10     1.0000 0.00801  0.99988  0.84886  Biso   1.000  Cu
  Cu11     1.0000 0.36052  0.50102  0.00703  Biso   1.000  Cu
  Cu12     1.0000 0.50600  0.15390  0.50794  Biso   1.000  Cu
  Cu13     1.0000 0.01255  0.49357  0.34680  Biso   1.000  Cu
  Cu14     1.0000 0.35824  0.00442  0.50176  Biso   1.000  Cu
  Cu15     1.0000 0.50356  0.33961  0.00572  Biso   1.000  Cu
  Cu16     1.0000 0.51244  0.49145  0.15485  Biso   1.000  Cu
  Cu17     1.0000 0.85726  0.99230  0.00418  Biso   1.000  Cu
  Cu18     1.0000 0.01030  0.35520  0.50844  Biso   1.000  Cu
  Cu19     1.0000 0.52154  0.99403  0.35378  Biso   1.000  Cu
  Cu20     1.0000 0.16162  0.50186  0.50858  Biso   1.000  Cu
  Cu21     1.0000 0.01761  0.83866  0.99855  Biso   1.000  Cu
  Cu22     1.0000 0.01614  0.98895  0.15439  Biso   1.000  Cu
  Cu23     1.0000 0.66517  0.49001  0.99641  Biso   1.000  Cu
  Cu24     1.0000 0.51444  0.84607  0.50329  Biso   1.000  Cu
  Cu25     1.0000 0.22368  0.99669  0.99821  Biso   1.000  Cu
  Cu26     1.0000 0.00842  0.19763  0.01038  Biso   1.000  Cu
  Cu27     1.0000 0.01597  0.98751  0.20754  Biso   1.000  Cu
  Cu28     1.0000 0.72278  0.00438  0.50822  Biso   1.000  Cu
  Cu29     1.0000 0.50903  0.20658  0.50476  Biso   1.000  Cu
  Cu30     1.0000 0.52259  0.99496  0.29835  Biso   1.000  Cu
  Cu31     1.0000 0.30481  0.50247  0.00877  Biso   1.000  Cu
  Cu32     1.0000 0.51921  0.70385  0.00595  Biso   1.000  Cu
  Cu33     1.0000 0.51440  0.49111  0.20996  Biso   1.000  Cu
  Cu34     1.0000 0.80490  0.50606  0.49836  Biso   1.000  Cu
  Cu35     1.0000 0.01509  0.70805  0.49241  Biso   1.000  Cu
  Cu36     1.0000 0.01384  0.49220  0.29313  Biso   1.000  Cu
  Cu37     1.0000 0.80345  0.98958  0.00722  Biso   1.000  Cu
  Cu38     1.0000 0.01853  0.78440  0.99703  Biso   1.000  Cu
  Cu39     1.0000 0.00468  0.00163  0.79666  Biso   1.000  Cu
  Cu40     1.0000 0.30444  0.00195  0.49640  Biso   1.000  Cu
  Cu41     1.0000 0.51299  0.79251  0.50309  Biso   1.000  Cu
  Cu42     1.0000 0.50255  0.00083  0.71232  Biso   1.000  Cu
  Cu43     1.0000 0.71796  0.49082  0.00005  Biso   1.000  Cu
  Cu44     1.0000 0.50043  0.28645  0.00363  Biso   1.000  Cu
  Cu45     1.0000 0.50910  0.50095  0.79768  Biso   1.000  Cu
  Cu46     1.0000 0.21655  0.50285  0.50908  Biso   1.000  Cu
  Cu47     1.0000 0.01129  0.30265  0.50957  Biso   1.000  Cu
  Cu48     1.0000 0.00747  0.50471  0.71116  Biso   1.000  Cu
  H1       1.0000 0.25058  0.79138  0.51767  Biso   1.000  H
  H2       1.0000 0.53915  0.28467  0.74885  Biso   1.000  H
  H3       1.0000 0.75143  0.53994  0.28440  Biso   1.000  H
  H4       1.0000 0.75924  0.78074  0.96533  Biso   1.000  H
  H5       1.0000 0.98418  0.23468  0.71409  Biso   1.000  H
  H6       1.0000 0.30546  0.50333  0.27793  Biso   1.000  H
  H7       1.0000 0.26080  0.28339  0.54831  Biso   1.000  H
  H8       1.0000 0.97740  0.78541  0.74565  Biso   1.000  H
  H9       1.0000 0.73691  0.02370  0.24562  Biso   1.000  H
  H10      1.0000 0.76689  0.28387  0.03004  Biso   1.000  H
  H11      1.0000 0.46505  0.78312  0.76166  Biso   1.000  H
  H12      1.0000 0.27292  0.02435  0.21889  Biso   1.000  H
  H13      1.0000 0.71815  0.26655  0.48872  Biso   1.000  H
  H14      1.0000 0.54574  0.74368  0.22067  Biso   1.000  H
  H15      1.0000 0.26935  0.46800  0.71698  Biso   1.000  H
  H16      1.0000 0.27209  0.21447  0.04050  Biso   1.000  H
  H17      1.0000 0.04368  0.74371  0.27537  Biso   1.000  H
  H18      1.0000 0.70505  0.47802  0.73330  Biso   1.000  H
  H19      1.0000 0.80486  0.76681  0.45558  Biso   1.000  H
  H20      1.0000 0.04368  0.20585  0.27155  Biso   1.000  H
  H21      1.0000 0.23730  0.99987  0.71123  Biso   1.000  H
  H22      1.0000 0.26086  0.70709  0.04381  Biso   1.000  H
  H23      1.0000 0.54718  0.20193  0.24890  Biso   1.000  H
  H24      1.0000 0.79692  0.95078  0.74392  Biso   1.000  H
  H25      1.0000 0.27065  0.00001  0.79093  Biso   1.000  H
  H26      1.0000 0.79425  0.25697  0.03121  Biso   1.000  H
  H27      1.0000 0.97993  0.72289  0.20084  Biso   1.000  H
  H28      1.0000 0.76587  0.94625  0.71920  Biso   1.000  H
  H29      1.0000 0.23976  0.20990  0.48344  Biso   1.000  H
  H30      1.0000 0.53458  0.78047  0.24259  Biso   1.000  H
  H31      1.0000 0.29404  0.51085  0.74129  Biso   1.000  H
  H32      1.0000 0.78214  0.69923  0.02346  Biso   1.000  H
  H33      1.0000 0.50289  0.28259  0.27171  Biso   1.000  H
  H34      1.0000 0.74167  0.52400  0.70159  Biso   1.000  H
  H35      1.0000 0.22694  0.76449  0.45785  Biso   1.000  H
  H36      1.0000 0.98126  0.23415  0.29535  Biso   1.000  H
  H37      1.0000 0.75375  0.96460  0.22333  Biso   1.000  H
  H38      1.0000 0.27970  0.79012  0.98562  Biso   1.000  H
  H39      1.0000 0.98019  0.26079  0.79509  Biso   1.000  H
  H40      1.0000 0.25236  0.96826  0.29575  Biso   1.000  H
  H41      1.0000 0.78092  0.79391  0.50786  Biso   1.000  H
  H42      1.0000 0.48145  0.20525  0.77294  Biso   1.000  H
  H43      1.0000 0.72030  0.48578  0.26210  Biso   1.000  H
  H44      1.0000 0.24405  0.27785  0.96591  Biso   1.000  H
  H45      1.0000 0.52908  0.70972  0.73940  Biso   1.000  H
  H46      1.0000 0.26641  0.45441  0.29208  Biso   1.000  H
  H47      1.0000 0.74250  0.30026  0.53856  Biso   1.000  H
  H48      1.0000 0.05205  0.71474  0.75279  Biso   1.000  H
  H49      1.0000 0.23109  0.52619  0.24549  Biso   1.000  H
  H50      1.0000 0.29738  0.26468  0.53309  Biso   1.000  H
  H51      1.0000 0.54260  0.22346  0.21378  Biso   1.000  H
  H52      1.0000 0.77742  0.53090  0.20684  Biso   1.000  H
  H53      1.0000 0.74853  0.19855  0.97274  Biso   1.000  H
  H54      1.0000 0.04668  0.28008  0.24712  Biso   1.000  H
  H55      1.0000 0.31158  0.00719  0.23296  Biso   1.000  H
  H56      1.0000 0.27013  0.71466  0.52623  Biso   1.000  H
  H57      1.0000 0.02950  0.78162  0.25994  Biso   1.000  H
  H58      1.0000 0.81550  0.01444  0.27531  Biso   1.000  H
  H59      1.0000 0.73254  0.75169  0.96526  Biso   1.000  H
  H60      1.0000 0.48749  0.72697  0.30118  Biso   1.000  H
  H61      1.0000 0.78806  0.46548  0.75760  Biso   1.000  H
  H62      1.0000 0.71855  0.73586  0.46211  Biso   1.000  H
  H63      1.0000 0.47896  0.76377  0.79536  Biso   1.000  H
  H64      1.0000 0.24322  0.46458  0.80480  Biso   1.000  H
  H65      1.0000 0.23431  0.74103  0.05185  Biso   1.000  H
  H66      1.0000 0.98716  0.76572  0.70789  Biso   1.000  H
  H67      1.0000 0.71013  0.99951  0.77129  Biso   1.000  H
  H68      1.0000 0.79634  0.23551  0.49926  Biso   1.000  H
  H69      1.0000 0.03269  0.20357  0.74334  Biso   1.000  H
  H70      1.0000 0.21190  0.95175  0.73828  Biso   1.000  H
  H71      1.0000 0.28752  0.24987  0.04588  Biso   1.000  H
  H72      1.0000 0.52795  0.26216  0.71104  Biso   1.000  H
  H73      1.0000 0.77492  0.52140  0.78195  Biso   1.000  H
  H74      1.0000 0.74896  0.71670  0.51268  Biso   1.000  H
  H75      1.0000 0.53491  0.74214  0.71343  Biso   1.000  H
  H76      1.0000 0.21481  0.50781  0.78136  Biso   1.000  H
  H77      1.0000 0.31109  0.76520  0.98670  Biso   1.000  H
  H78      1.0000 0.05576  0.74668  0.78020  Biso   1.000  H
  H79      1.0000 0.74111  0.00689  0.79774  Biso   1.000  H
  H80      1.0000 0.76824  0.22160  0.55390  Biso   1.000  H
  H81      1.0000 0.03348  0.29223  0.77332  Biso   1.000  H
  H82      1.0000 0.29876  0.95165  0.76107  Biso   1.000  H
  H83      1.0000 0.20974  0.26031  0.98943  Biso   1.000  H
  H84      1.0000 0.46287  0.24391  0.78646  Biso   1.000  H
  H85      1.0000 0.24343  0.47724  0.21321  Biso   1.000  H
  H86      1.0000 0.21845  0.24726  0.47105  Biso   1.000  H
  H87      1.0000 0.47875  0.25069  0.28717  Biso   1.000  H
  H88      1.0000 0.79642  0.47325  0.23913  Biso   1.000  H
  H89      1.0000 0.71431  0.22169  0.98069  Biso   1.000  H
  H90      1.0000 0.98164  0.25127  0.21971  Biso   1.000  H
  H91      1.0000 0.23469  0.94851  0.25419  Biso   1.000  H
  H92      1.0000 0.30247  0.73904  0.46274  Biso   1.000  H
  H93      1.0000 0.96786  0.70256  0.23824  Biso   1.000  H
  H94      1.0000 0.77593  0.95763  0.29979  Biso   1.000  H
  H95      1.0000 0.80846  0.73065  0.03511  Biso   1.000  H
  H96      1.0000 0.47196  0.70729  0.26478  Biso   1.000  H
  H97      1.0000 0.87541  0.99120  0.91379  Biso   1.000  H
  H98      1.0000 0.92793  0.85860  0.99364  Biso   1.000  H
  H99      1.0000 0.01323  0.91089  0.86949  Biso   1.000  H
  H100     1.0000 0.37240  0.99987  0.59221  Biso   1.000  H
  H101     1.0000 0.42253  0.87096  0.50089  Biso   1.000  H
  H102     1.0000 0.49303  0.91068  0.63785  Biso   1.000  H
  H103     1.0000 0.64559  0.49816  0.91007  Biso   1.000  H
  H104     1.0000 0.59412  0.35946  0.00496  Biso   1.000  H
  H105     1.0000 0.50209  0.41317  0.87056  Biso   1.000  H
  H106     1.0000 0.14248  0.51631  0.60043  Biso   1.000  H
  H107     1.0000 0.10196  0.37575  0.50540  Biso   1.000  H
  H108     1.0000 0.01610  0.41047  0.64289  Biso   1.000  H
  H109     1.0000 0.14998  0.99124  0.09290  Biso   1.000  H
  H110     1.0000 0.10097  0.12462  0.01083  Biso   1.000  H
  H111     1.0000 0.01750  0.08429  0.14039  Biso   1.000  H
  H112     1.0000 0.64705  0.00150  0.41132  Biso   1.000  H
  H113     1.0000 0.59972  0.13524  0.51065  Biso   1.000  H
  H114     1.0000 0.51697  0.08724  0.37710  Biso   1.000  H
  H115     1.0000 0.38303  0.50006  0.10251  Biso   1.000  H
  H116     1.0000 0.42750  0.63131  0.00695  Biso   1.000  H
  H117     1.0000 0.51072  0.58607  0.13579  Biso   1.000  H
  H118     1.0000 0.87979  0.50475  0.40771  Biso   1.000  H
  H119     1.0000 0.92115  0.63792  0.50097  Biso   1.000  H
  H120     1.0000 0.00818  0.58472  0.36660  Biso   1.000  H
  H121     1.0000 0.09390  0.98908  0.86597  Biso   1.000  H
  H122     1.0000 0.87814  0.08689  0.02080  Biso   1.000  H
  H123     1.0000 0.00383  0.85656  0.08403  Biso   1.000  H
  H124     1.0000 0.59276  0.99499  0.63574  Biso   1.000  H
  H125     1.0000 0.37701  0.09621  0.49443  Biso   1.000  H
  H126     1.0000 0.52706  0.86570  0.41421  Biso   1.000  H
  H127     1.0000 0.41830  0.50506  0.87537  Biso   1.000  H
  H128     1.0000 0.64694  0.58251  0.00780  Biso   1.000  H
  H129     1.0000 0.50391  0.35875  0.10098  Biso   1.000  H
  H130     1.0000 0.91890  0.50254  0.63716  Biso   1.000  H
  H131     1.0000 0.14573  0.59212  0.48704  Biso   1.000  H
  H132     1.0000 0.01776  0.36784  0.41216  Biso   1.000  H
  H133     1.0000 0.92441  0.98544  0.13925  Biso   1.000  H
  H134     1.0000 0.15025  0.90187  0.00836  Biso   1.000  H
  H135     1.0000 0.01299  0.12941  0.91435  Biso   1.000  H
  H136     1.0000 0.42547  0.98385  0.37020  Biso   1.000  H
  H137     1.0000 0.64951  0.91066  0.51441  Biso   1.000  H
  H138     1.0000 0.50814  0.13378  0.59718  Biso   1.000  H
  H139     1.0000 0.60072  0.49269  0.13230  Biso   1.000  H
  H140     1.0000 0.37170  0.40963  0.00454  Biso   1.000  H
  H141     1.0000 0.51858  0.63219  0.90804  Biso   1.000  H
  H142     1.0000 0.10337  0.49665  0.37202  Biso   1.000  H
  H143     1.0000 0.87595  0.41467  0.49599  Biso   1.000  H
  H144     1.0000 0.00779  0.63645  0.58355  Biso   1.000  H
  H145     1.0000 0.60387  0.49911  0.87109  Biso   1.000  H
  H146     1.0000 0.88053  0.60030  0.50421  Biso   1.000  H
  H147     1.0000 0.50348  0.86781  0.59358  Biso   1.000  H
  H148     1.0000 0.09987  0.50400  0.64027  Biso   1.000  H
  H149     1.0000 0.38333  0.59146  0.00094  Biso   1.000  H
  H150     1.0000 0.02453  0.86265  0.90930  Biso   1.000  H
  H151     1.0000 0.91531  0.00231  0.87070  Biso   1.000  H
  H152     1.0000 0.64308  0.09370  0.50084  Biso   1.000  H
  H153     1.0000 0.02123  0.37434  0.60101  Biso   1.000  H
  H154     1.0000 0.41231  0.00708  0.63553  Biso   1.000  H
  H155     1.0000 0.14380  0.08605  0.00419  Biso   1.000  H
  H156     1.0000 0.50044  0.36692  0.91676  Biso   1.000  H
  H157     1.0000 0.42274  0.50106  0.14288  Biso   1.000  H
  H158     1.0000 0.14322  0.41278  0.50976  Biso   1.000  H
  H159     1.0000 0.50929  0.12762  0.41851  Biso   1.000  H
  H160     1.0000 0.92061  0.49237  0.36491  Biso   1.000  H
  H161     1.0000 0.64137  0.39902  0.00357  Biso   1.000  H
  H162     1.0000 0.01048  0.12367  0.10104  Biso   1.000  H
  H163     1.0000 0.11098  0.99593  0.12980  Biso   1.000  H
  H164     1.0000 0.37723  0.91303  0.50316  Biso   1.000  H
  H165     1.0000 0.01067  0.62640  0.40634  Biso   1.000  H
  H166     1.0000 0.60951  0.00477  0.37190  Biso   1.000  H
  H167     1.0000 0.88366  0.90252  0.00222  Biso   1.000  H
  H168     1.0000 0.51577  0.62585  0.09633  Biso   1.000  H
  H169     1.0000 0.02040  0.09109  0.87312  Biso   1.000  H
  H170     1.0000 0.88249  0.98862  0.09655  Biso   1.000  H
  H171     1.0000 0.10653  0.85888  0.01123  Biso   1.000  H
  H172     1.0000 0.50847  0.08805  0.64056  Biso   1.000  H
  H173     1.0000 0.38272  0.98315  0.41252  Biso   1.000  H
  H174     1.0000 0.60475  0.86344  0.50692  Biso   1.000  H
  H175     1.0000 0.51464  0.58927  0.87131  Biso   1.000  H
  H176     1.0000 0.64305  0.47285  0.09367  Biso   1.000  H
  H177     1.0000 0.41215  0.36478  0.01146  Biso   1.000  H
  H178     1.0000 0.00864  0.59578  0.62818  Biso   1.000  H
  H179     1.0000 0.14415  0.49594  0.41657  Biso   1.000  H
  H180     1.0000 0.91583  0.37073  0.50467  Biso   1.000  H
  H181     1.0000 0.00996  0.90075  0.12898  Biso   1.000  H
  H182     1.0000 0.14269  0.99313  0.91338  Biso   1.000  H
  H183     1.0000 0.91662  0.12868  0.01542  Biso   1.000  H
  H184     1.0000 0.52778  0.90124  0.37064  Biso   1.000  H
  H185     1.0000 0.64469  0.99258  0.59352  Biso   1.000  H
  H186     1.0000 0.41341  0.13859  0.49988  Biso   1.000  H
  H187     1.0000 0.50858  0.39700  0.13808  Biso   1.000  H
  H188     1.0000 0.37401  0.51593  0.92046  Biso   1.000  H
  H189     1.0000 0.60562  0.62603  0.99970  Biso   1.000  H
  H190     1.0000 0.02263  0.40307  0.36785  Biso   1.000  H
  H191     1.0000 0.87687  0.49921  0.59364  Biso   1.000  H
  H192     1.0000 0.10435  0.63691  0.49653  Biso   1.000  H
  H193     1.0000 0.28618  0.85735  0.48280  Biso   1.000  H
  H194     1.0000 0.48992  0.27188  0.85766  Biso   1.000  H
  H195     1.0000 0.87071  0.50608  0.26821  Biso   1.000  H
  H196     1.0000 0.78899  0.84349  0.01417  Biso   1.000  H
  H197     1.0000 0.01825  0.27157  0.65094  Biso   1.000  H
  H198     1.0000 0.37166  0.48496  0.24042  Biso   1.000  H
  H199     1.0000 0.23765  0.35750  0.51553  Biso   1.000  H
  H200     1.0000 0.03083  0.77136  0.85287  Biso   1.000  H
  H201     1.0000 0.66356  0.99966  0.27532  Biso   1.000  H
  H202     1.0000 0.73190  0.34143  0.99366  Biso   1.000  H
  H203     1.0000 0.50181  0.77345  0.64768  Biso   1.000  H
  H204     1.0000 0.16119  0.98612  0.22665  Biso   1.000  H
  H205     1.0000 0.73926  0.14608  0.51938  Biso   1.000  H
  H206     1.0000 0.51445  0.72091  0.15237  Biso   1.000  H
  H207     1.0000 0.15250  0.49077  0.73705  Biso   1.000  H
  H208     1.0000 0.24082  0.14211  0.00137  Biso   1.000  H
  H209     1.0000 0.00631  0.72329  0.35164  Biso   1.000  H
  H210     1.0000 0.65022  0.51361  0.77268  Biso   1.000  H
  H211     1.0000 0.78481  0.64819  0.49007  Biso   1.000  H
  H212     1.0000 0.00911  0.21890  0.15369  Biso   1.000  H
  H213     1.0000 0.36066  0.00117  0.72998  Biso   1.000  H
  H214     1.0000 0.28843  0.64184  0.01453  Biso   1.000  H
  H215     1.0000 0.50926  0.22582  0.36056  Biso   1.000  H
  H216     1.0000 0.86013  0.99986  0.77723  Biso   1.000  H
  H217     1.0000 0.24259  0.50049  0.36447  Biso   1.000  H
  H218     1.0000 0.36755  0.23537  0.50283  Biso   1.000  H
  H219     1.0000 0.52783  0.34908  0.23466  Biso   1.000  H
  H220     1.0000 0.73830  0.49501  0.14390  Biso   1.000  H
  H221     1.0000 0.86277  0.22441  0.00277  Biso   1.000  H
  H222     1.0000 0.01427  0.34682  0.27338  Biso   1.000  H
  H223     1.0000 0.29317  0.00621  0.35044  Biso   1.000  H
  H224     1.0000 0.15834  0.73036  0.49151  Biso   1.000  H
  H225     1.0000 0.00277  0.85053  0.22589  Biso   1.000  H
  H226     1.0000 0.78541  0.99845  0.15061  Biso   1.000  H
  H227     1.0000 0.66517  0.71990  0.00356  Biso   1.000  H
  H228     1.0000 0.51878  0.85111  0.27506  Biso   1.000  H
  H229     1.0000 0.78008  0.48735  0.64201  Biso   1.000  H
  H230     1.0000 0.65786  0.77096  0.50186  Biso   1.000  H
  H231     1.0000 0.49264  0.64148  0.77511  Biso   1.000  H
  H232     1.0000 0.28038  0.50870  0.86545  Biso   1.000  H
  H233     1.0000 0.16017  0.76341  0.01587  Biso   1.000  H
  H234     1.0000 0.01778  0.64876  0.72415  Biso   1.000  H
  H235     1.0000 0.73262  0.97213  0.65358  Biso   1.000  H
  H236     1.0000 0.86586  0.27496  0.51944  Biso   1.000  H
  H237     1.0000 0.99637  0.14570  0.77892  Biso   1.000  H
  H238     1.0000 0.23532  0.97934  0.85891  Biso   1.000  H
  H239     1.0000 0.35655  0.26967  0.00354  Biso   1.000  H
  H240     1.0000 0.51606  0.14297  0.73662  Biso   1.000  H
  H241     1.0000 0.74141  0.49758  0.85531  Biso   1.000  H
  H242     1.0000 0.87223  0.73389  0.49219  Biso   1.000  H
  H243     1.0000 0.50231  0.85801  0.73512  Biso   1.000  H
  H244     1.0000 0.23855  0.50823  0.65782  Biso   1.000  H
  H245     1.0000 0.37769  0.72852  0.01237  Biso   1.000  H
  H246     1.0000 0.00848  0.85697  0.77298  Biso   1.000  H
  H247     1.0000 0.77638  0.97572  0.86077  Biso   1.000  H
  H248     1.0000 0.65506  0.22782  0.52536  Biso   1.000  H
  H249     1.0000 0.99837  0.35970  0.73787  Biso   1.000  H
  H250     1.0000 0.27721  0.97875  0.64304  Biso   1.000  H
  H251     1.0000 0.15030  0.22038  0.03531  Biso   1.000  H
  H252     1.0000 0.50080  0.35942  0.77440  Biso   1.000  H
  H253     1.0000 0.28457  0.50582  0.15151  Biso   1.000  H
  H254     1.0000 0.14886  0.27543  0.51046  Biso   1.000  H
  H255     1.0000 0.50739  0.13512  0.27989  Biso   1.000  H
  H256     1.0000 0.78292  0.50789  0.35253  Biso   1.000  H
  H257     1.0000 0.64053  0.25760  0.00881  Biso   1.000  H
  H258     1.0000 0.01019  0.12864  0.24124  Biso   1.000  H
  H259     1.0000 0.24891  0.99499  0.14441  Biso   1.000  H
  H260     1.0000 0.36843  0.77471  0.50185  Biso   1.000  H
  H261     1.0000 0.99804  0.63418  0.26730  Biso   1.000  H
  H262     1.0000 0.74853  0.99987  0.36651  Biso   1.000  H
  H263     1.0000 0.87531  0.76373  0.00429  Biso   1.000  H
  H264     1.0000 0.50992  0.63551  0.23520  Biso   1.000  H
  H265     1.0000 0.01408  0.22979  0.86701  Biso   1.000  H
  H266     1.0000 0.87588  0.98723  0.23629  Biso   1.000  H
  H267     1.0000 0.24671  0.85280  0.02097  Biso   1.000  H
  H268     1.0000 0.49703  0.22736  0.65301  Biso   1.000  H
  H269     1.0000 0.38278  0.97322  0.27160  Biso   1.000  H
  H270     1.0000 0.74140  0.86000  0.48350  Biso   1.000  H
  H271     1.0000 0.50719  0.72861  0.86164  Biso   1.000  H
  H272     1.0000 0.65821  0.52006  0.22455  Biso   1.000  H
  H273     1.0000 0.27218  0.35919  0.99333  Biso   1.000  H
  H274     1.0000 0.00493  0.73400  0.63742  Biso   1.000  H
  H275     1.0000 0.15817  0.49784  0.27574  Biso   1.000  H
  H276     1.0000 0.77960  0.36223  0.51295  Biso   1.000  H
  H277     1.0000 0.02042  0.76405  0.14332  Biso   1.000  H
  H278     1.0000 0.14948  0.99022  0.77298  Biso   1.000  H
  H279     1.0000 0.77996  0.13276  0.02064  Biso   1.000  H
  H280     1.0000 0.52187  0.76434  0.36877  Biso   1.000  H
  H281     1.0000 0.64588  0.96396  0.72925  Biso   1.000  H
  H282     1.0000 0.27829  0.14793  0.50792  Biso   1.000  H
  H283     1.0000 0.51463  0.26141  0.14729  Biso   1.000  H
  H284     1.0000 0.36140  0.48797  0.78127  Biso   1.000  H
  H285     1.0000 0.74496  0.63262  0.00280  Biso   1.000  H
  H286     1.0000 0.02254  0.26802  0.36540  Biso   1.000  H
  H287     1.0000 0.86422  0.51038  0.73056  Biso   1.000  H
  H288     1.0000 0.24275  0.64516  0.48631  Biso   1.000  H
  H289     1.0000 0.09762  0.21506  0.04112  Biso   1.000  H
  H290     1.0000 0.02005  0.07584  0.23443  Biso   1.000  H
  H291     1.0000 0.24632  0.99569  0.09017  Biso   1.000  H
  H292     1.0000 0.60361  0.22929  0.51910  Biso   1.000  H
  H293     1.0000 0.51181  0.08291  0.28070  Biso   1.000  H
  H294     1.0000 0.74396  0.99543  0.42179  Biso   1.000  H
  H295     1.0000 0.42895  0.72684  0.00757  Biso   1.000  H
  H296     1.0000 0.50762  0.58123  0.23621  Biso   1.000  H
  H297     1.0000 0.28916  0.51316  0.09892  Biso   1.000  H
  H298     1.0000 0.92599  0.73265  0.48688  Biso   1.000  H
  H299     1.0000 0.99680  0.58097  0.26912  Biso   1.000  H
  H300     1.0000 0.78182  0.51055  0.40329  Biso   1.000  H
  H301     1.0000 0.92905  0.76521  0.99722  Biso   1.000  H
  H302     1.0000 0.00374  0.90881  0.77426  Biso   1.000  H
  H303     1.0000 0.77947  0.97876  0.91650  Biso   1.000  H
  H304     1.0000 0.42136  0.77510  0.51085  Biso   1.000  H
  H305     1.0000 0.49196  0.91048  0.73258  Biso   1.000  H
  H306     1.0000 0.27707  0.98119  0.59137  Biso   1.000  H
  H307     1.0000 0.58769  0.26554  0.02099  Biso   1.000  H
  H308     1.0000 0.50438  0.41005  0.77640  Biso   1.000  H
  H309     1.0000 0.74156  0.49160  0.90956  Biso   1.000  H
  H310     1.0000 0.09693  0.27795  0.50925  Biso   1.000  H
  H311     1.0000 0.99890  0.41136  0.73778  Biso   1.000  H
  H312     1.0000 0.23923  0.51375  0.59955  Biso   1.000  H
  H313     1.0000 0.23611  0.98134  0.90862  Biso   1.000  H
  H314     1.0000 0.91790  0.22448  0.00657  Biso   1.000  H
  H315     1.0000 0.00315  0.89970  0.22369  Biso   1.000  H
  H316     1.0000 0.73940  0.98653  0.59968  Biso   1.000  H
  H317     1.0000 0.41772  0.23360  0.49956  Biso   1.000  H
  H318     1.0000 0.51962  0.90321  0.27539  Biso   1.000  H
  H319     1.0000 0.28154  0.51017  0.91973  Biso   1.000  H
  H320     1.0000 0.60860  0.72169  0.00645  Biso   1.000  H
  H321     1.0000 0.52101  0.40226  0.23350  Biso   1.000  H
  H322     1.0000 0.78561  0.48662  0.58791  Biso   1.000  H
  H323     1.0000 0.10402  0.73169  0.49542  Biso   1.000  H
  H324     1.0000 0.01872  0.40033  0.27039  Biso   1.000  H
  H325     1.0000 0.78790  0.99570  0.09466  Biso   1.000  H
  H326     1.0000 0.10703  0.76492  0.00461  Biso   1.000  H
  H327     1.0000 0.99794  0.08863  0.78070  Biso   1.000  H
  H328     1.0000 0.29459  0.01387  0.40541  Biso   1.000  H
  H329     1.0000 0.60303  0.76988  0.50485  Biso   1.000  H
  H330     1.0000 0.52332  0.08908  0.73270  Biso   1.000  H
  H331     1.0000 0.73860  0.47966  0.08984  Biso   1.000  H
  H332     1.0000 0.40879  0.27160  0.01058  Biso   1.000  H
  H333     1.0000 0.49539  0.58890  0.77652  Biso   1.000  H
  H334     1.0000 0.24088  0.49644  0.42002  Biso   1.000  H
  H335     1.0000 0.92009  0.27629  0.51726  Biso   1.000  H
  H336     1.0000 0.02223  0.59373  0.72164  Biso   1.000  H
  H337     1.0000 0.01429  0.22281  0.92275  Biso   1.000  H
  H338     1.0000 0.93017  0.98324  0.23248  Biso   1.000  H
  H339     1.0000 0.24491  0.90746  0.01913  Biso   1.000  H
  H340     1.0000 0.50200  0.23139  0.60164  Biso   1.000  H
  H341     1.0000 0.43643  0.97513  0.27661  Biso   1.000  H
  H342     1.0000 0.74186  0.91108  0.49122  Biso   1.000  H
  H343     1.0000 0.51037  0.72655  0.91572  Biso   1.000  H
  H344     1.0000 0.60420  0.51130  0.22596  Biso   1.000  H
  H345     1.0000 0.27709  0.41366  0.99315  Biso   1.000  H
  H346     1.0000 0.00565  0.73265  0.58135  Biso   1.000  H
  H347     1.0000 0.10683  0.50286  0.27482  Biso   1.000  H
  H348     1.0000 0.78201  0.41500  0.51118  Biso   1.000  H
  H349     1.0000 0.01799  0.76149  0.08678  Biso   1.000  H
  H350     1.0000 0.09656  0.98889  0.77081  Biso   1.000  H
  H351     1.0000 0.78209  0.08002  0.02551  Biso   1.000  H
  H352     1.0000 0.52720  0.76998  0.42111  Biso   1.000  H
  H353     1.0000 0.59229  0.97316  0.72831  Biso   1.000  H
  H354     1.0000 0.28152  0.09230  0.50697  Biso   1.000  H
  H355     1.0000 0.50412  0.26307  0.09700  Biso   1.000  H
  H356     1.0000 0.41737  0.49040  0.77970  Biso   1.000  H
  H357     1.0000 0.74332  0.57679  0.00837  Biso   1.000  H
  H358     1.0000 0.02119  0.27241  0.42098  Biso   1.000  H
  H359     1.0000 0.91844  0.50520  0.73154  Biso   1.000  H
  H360     1.0000 0.24277  0.59270  0.48703  Biso   1.000  H
  H361     1.0000 0.01335  0.72279  0.40056  Biso   1.000  H
  H362     1.0000 0.41138  0.00089  0.73293  Biso   1.000  H
  H363     1.0000 0.73693  0.39624  0.99920  Biso   1.000  H
  H364     1.0000 0.52225  0.72200  0.09733  Biso   1.000  H
  H365     1.0000 0.91658  0.00887  0.77741  Biso   1.000  H
  H366     1.0000 0.23869  0.41196  0.51042  Biso   1.000  H
  H367     1.0000 0.51229  0.22501  0.41694  Biso   1.000  H
  H368     1.0000 0.09654  0.49068  0.73573  Biso   1.000  H
  H369     1.0000 0.78564  0.89600  0.00985  Biso   1.000  H
  H370     1.0000 0.00632  0.21830  0.09907  Biso   1.000  H
  H371     1.0000 0.59783  0.51369  0.77721  Biso   1.000  H
  H372     1.0000 0.28585  0.91395  0.47824  Biso   1.000  H
  H373     1.0000 0.02032  0.27645  0.59829  Biso   1.000  H
  H374     1.0000 0.61140  0.00312  0.27580  Biso   1.000  H
  H375     1.0000 0.28809  0.58636  0.01264  Biso   1.000  H
  H376     1.0000 0.48957  0.26918  0.91223  Biso   1.000  H
  H377     1.0000 0.10554  0.98171  0.22337  Biso   1.000  H
  H378     1.0000 0.78651  0.59159  0.50123  Biso   1.000  H
  H379     1.0000 0.50606  0.77135  0.59373  Biso   1.000  H
  H380     1.0000 0.92616  0.49687  0.27067  Biso   1.000  H
  H381     1.0000 0.24133  0.09075  0.99726  Biso   1.000  H
  H382     1.0000 0.03242  0.76895  0.90775  Biso   1.000  H
  H383     1.0000 0.42658  0.48295  0.23819  Biso   1.000  H
  H384     1.0000 0.73983  0.09369  0.51280  Biso   1.000  H
  H385     1.0000 0.23286  0.46068  0.33206  Biso   1.000  H
  H386     1.0000 0.27810  0.17665  0.47500  Biso   1.000  H
  H387     1.0000 0.50079  0.31951  0.24017  Biso   1.000  H
  H388     1.0000 0.68062  0.48147  0.22361  Biso   1.000  H
  H389     1.0000 0.83180  0.22138  0.03841  Biso   1.000  H
  H390     1.0000 0.99074  0.26536  0.33727  Biso   1.000  H
  H391     1.0000 0.29187  0.96401  0.32979  Biso   1.000  H
  H392     1.0000 0.18837  0.72884  0.45535  Biso   1.000  H
  H393     1.0000 0.97847  0.76165  0.16578  Biso   1.000  H
  H394     1.0000 0.78507  0.96633  0.18227  Biso   1.000  H
  H395     1.0000 0.74135  0.66864  0.03232  Biso   1.000  H
  H396     1.0000 0.54356  0.81700  0.27820  Biso   1.000  H
  H397     1.0000 0.78232  0.52606  0.67056  Biso   1.000  H
  H398     1.0000 0.74487  0.82688  0.51660  Biso   1.000  H
  H399     1.0000 0.52652  0.67085  0.77404  Biso   1.000  H
  H400     1.0000 0.33470  0.51794  0.77528  Biso   1.000  H
  H401     1.0000 0.23843  0.82412  0.98492  Biso   1.000  H
  H402     1.0000 0.04857  0.67821  0.71416  Biso   1.000  H
  H403     1.0000 0.72680  0.94649  0.68159  Biso   1.000  H
  H404     1.0000 0.78222  0.33387  0.54059  Biso   1.000  H
  H405     1.0000 0.98142  0.22766  0.83520  Biso   1.000  H
  H406     1.0000 0.23280  0.00799  0.82683  Biso   1.000  H
  H407     1.0000 0.27580  0.31658  0.96113  Biso   1.000  H
  H408     1.0000 0.47962  0.16964  0.73578  Biso   1.000  H
  H409     1.0000 0.28272  0.47047  0.17670  Biso   1.000  H
  H410     1.0000 0.18244  0.28326  0.47375  Biso   1.000  H
  H411     1.0000 0.47880  0.22179  0.32982  Biso   1.000  H
  H412     1.0000 0.83683  0.47508  0.27342  Biso   1.000  H
  H413     1.0000 0.67335  0.25079  0.98000  Biso   1.000  H
  H414     1.0000 0.98032  0.20572  0.18419  Biso   1.000  H
  H415     1.0000 0.19484  0.95167  0.22031  Biso   1.000  H
  H416     1.0000 0.34061  0.77763  0.46045  Biso   1.000  H
  H417     1.0000 0.96822  0.66575  0.27714  Biso   1.000  H
  H418     1.0000 0.73860  0.96213  0.33548  Biso   1.000  H
  H419     1.0000 0.84312  0.76569  0.03608  Biso   1.000  H
  H420     1.0000 0.47091  0.66747  0.23118  Biso   1.000  H
  H421     1.0000 0.74241  0.52415  0.82142  Biso   1.000  H
  H422     1.0000 0.78989  0.68041  0.52113  Biso   1.000  H
  H423     1.0000 0.53546  0.78297  0.67980  Biso   1.000  H
  H424     1.0000 0.18279  0.52287  0.74426  Biso   1.000  H
  H425     1.0000 0.34502  0.72801  0.98071  Biso   1.000  H
  H426     1.0000 0.05518  0.77984  0.81987  Biso   1.000  H
  H427     1.0000 0.78280  0.01553  0.82941  Biso   1.000  H
  H428     1.0000 0.73095  0.18067  0.55390  Biso   1.000  H
  H429     1.0000 0.03504  0.32764  0.73697  Biso   1.000  H
  H430     1.0000 0.33339  0.96083  0.72928  Biso   1.000  H
  H431     1.0000 0.17583  0.22224  0.99018  Biso   1.000  H
  H432     1.0000 0.46108  0.28120  0.82174  Biso   1.000  H
  H433     1.0000 0.27848  0.01030  0.67489  Biso   1.000  H
  H434     1.0000 0.72615  0.31905  0.02933  Biso   1.000  H
  H435     1.0000 0.04456  0.70986  0.31463  Biso   1.000  H
  H436     1.0000 0.83481  0.95648  0.77839  Biso   1.000  H
  H437     1.0000 0.23084  0.32157  0.54855  Biso   1.000  H
  H438     1.0000 0.54289  0.70872  0.18520  Biso   1.000  H
  H439     1.0000 0.23150  0.46809  0.68266  Biso   1.000  H
  H440     1.0000 0.79411  0.81980  0.97389  Biso   1.000  H
  H441     1.0000 0.54544  0.16768  0.28778  Biso   1.000  H
  H442     1.0000 0.67406  0.48042  0.77166  Biso   1.000  H
  H443     1.0000 0.28507  0.83064  0.51515  Biso   1.000  H
  H444     1.0000 0.04652  0.16502  0.23949  Biso   1.000  H
  H445     1.0000 0.69913  0.02975  0.28285  Biso   1.000  H
  H446     1.0000 0.29449  0.67401  0.04391  Biso   1.000  H
  H447     1.0000 0.98441  0.27325  0.67689  Biso   1.000  H
  H448     1.0000 0.23882  0.02603  0.17858  Biso   1.000  H
  H449     1.0000 0.84359  0.73156  0.46044  Biso   1.000  H
  H450     1.0000 0.53539  0.32718  0.78181  Biso   1.000  H
  H451     1.0000 0.78898  0.54248  0.32184  Biso   1.000  H
  H452     1.0000 0.24005  0.17098  0.04005  Biso   1.000  H
  H453     1.0000 0.46253  0.82167  0.72468  Biso   1.000  H
  H454     1.0000 0.34141  0.51291  0.24436  Biso   1.000  H
  H455     1.0000 0.68035  0.22646  0.48792  Biso   1.000  H
  H456     1.0000 0.97767  0.82123  0.77815  Biso   1.000  H
  H457     1.0000 0.68273  0.77318  0.46772  Biso   1.000  H
  H458     1.0000 0.48200  0.73214  0.83264  Biso   1.000  H
  H459     1.0000 0.83298  0.46912  0.72763  Biso   1.000  H
  H460     1.0000 0.19620  0.77159  0.05005  Biso   1.000  H
  H461     1.0000 0.98388  0.73274  0.67086  Biso   1.000  H
  H462     1.0000 0.28283  0.47117  0.84197  Biso   1.000  H
  H463     1.0000 0.83604  0.26964  0.49225  Biso   1.000  H
  H464     1.0000 0.04106  0.17381  0.78578  Biso   1.000  H
  H465     1.0000 0.67471  0.00440  0.73130  Biso   1.000  H
  H466     1.0000 0.32429  0.28330  0.03878  Biso   1.000  H
  H467     1.0000 0.53284  0.22691  0.68136  Biso   1.000  H
  H468     1.0000 0.17411  0.95668  0.77403  Biso   1.000  H
  H469     1.0000 0.33328  0.22930  0.53299  Biso   1.000  H
  H470     1.0000 0.54706  0.26075  0.17659  Biso   1.000  H
  H471     1.0000 0.19266  0.53417  0.28819  Biso   1.000  H
  H472     1.0000 0.78473  0.16264  0.98177  Biso   1.000  H
  H473     1.0000 0.04403  0.31944  0.28102  Biso   1.000  H
  H474     1.0000 0.74382  0.53071  0.16879  Biso   1.000  H
  H475     1.0000 0.23359  0.67657  0.52210  Biso   1.000  H
  H476     1.0000 0.03663  0.81562  0.22142  Biso   1.000  H
  H477     1.0000 0.35151  0.00560  0.26963  Biso   1.000  H
  H478     1.0000 0.69427  0.71625  0.96411  Biso   1.000  H
  H479     1.0000 0.49112  0.76518  0.33945  Biso   1.000  H
  H480     1.0000 0.85010  0.01701  0.23345  Biso   1.000  H
  N1       1.0000 0.68557  0.17783  0.51663  Biso   1.000  N
  N2       1.0000 0.50891  0.66731  0.18290  Biso   1.000  N
  N3       1.0000 0.18371  0.50111  0.68682  Biso   1.000  N
  N4       1.0000 0.18545  0.16999  0.01622  Biso   1.000  N
  N5       1.0000 0.00606  0.66566  0.31930  Biso   1.000  N
  N6       1.0000 0.68743  0.50435  0.82309  Biso   1.000  N
  N7       1.0000 0.83708  0.68185  0.49179  Biso   1.000  N
  N8       1.0000 0.01100  0.16511  0.18724  Biso   1.000  N
  N9       1.0000 0.32809  0.99089  0.67686  Biso   1.000  N
  N10      1.0000 0.34193  0.67444  0.00932  Biso   1.000  N
  N11      1.0000 0.50755  0.17086  0.33110  Biso   1.000  N
  N12      1.0000 0.83011  0.98673  0.82801  Biso   1.000  N
  N13      1.0000 0.33763  0.82674  0.49422  Biso   1.000  N
  N14      1.0000 0.49928  0.32543  0.82688  Biso   1.000  N
  N15      1.0000 0.83725  0.50741  0.32112  Biso   1.000  N
  N16      1.0000 0.84169  0.81497  0.00484  Biso   1.000  N
  N17      1.0000 0.01104  0.32445  0.68515  Biso   1.000  N
  N18      1.0000 0.33910  0.49157  0.18599  Biso   1.000  N
  N19      1.0000 0.18326  0.32653  0.51163  Biso   1.000  N
  N20      1.0000 0.01624  0.82446  0.82497  Biso   1.000  N
  N21      1.0000 0.69759  0.99970  0.33118  Biso   1.000  N
  N22      1.0000 0.67711  0.31140  0.00165  Biso   1.000  N
  N23      1.0000 0.50004  0.82526  0.68111  Biso   1.000  N
  N24      1.0000 0.19401  0.99073  0.17463  Biso   1.000  N
  N25      1.0000 0.83407  0.50021  0.67754  Biso   1.000  N
  N26      1.0000 0.69171  0.82385  0.49755  Biso   1.000  N
  N27      1.0000 0.50433  0.67666  0.82689  Biso   1.000  N
  N28      1.0000 0.33164  0.50119  0.83215  Biso   1.000  N
  N29      1.0000 0.19360  0.82098  0.01407  Biso   1.000  N
  N30      1.0000 0.01375  0.67996  0.66968  Biso   1.000  N
  N31      1.0000 0.68007  0.97784  0.68277  Biso   1.000  N
  N32      1.0000 0.83179  0.32853  0.50917  Biso   1.000  N
  N33      1.0000 0.00994  0.17745  0.83180  Biso   1.000  N
  N34      1.0000 0.18090  0.98492  0.82558  Biso   1.000  N
  N35      1.0000 0.32402  0.32493  0.99871  Biso   1.000  N
  N36      1.0000 0.50522  0.17408  0.68426  Biso   1.000  N
  N37      1.0000 0.19189  0.49834  0.33251  Biso   1.000  N
  N38      1.0000 0.33075  0.18150  0.50302  Biso   1.000  N
  N39      1.0000 0.51799  0.31339  0.18235  Biso   1.000  N
  N40      1.0000 0.68766  0.50640  0.17361  Biso   1.000  N
  N41      1.0000 0.83172  0.16903  0.01265  Biso   1.000  N
  N42      1.0000 0.01640  0.31730  0.32986  Biso   1.000  N
  N43      1.0000 0.34493  0.98755  0.32277  Biso   1.000  N
  N44      1.0000 0.19046  0.67811  0.48863  Biso   1.000  N
  N45      1.0000 0.00871  0.81352  0.17113  Biso   1.000  N
  N46      1.0000 0.84004  0.98956  0.18141  Biso   1.000  N
  N47      1.0000 0.69322  0.66712  0.99877  Biso   1.000  N
  N48      1.0000 0.52005  0.81667  0.33005  Biso   1.000  N
  O1       1.0000 0.35874  0.54247  0.01565  Biso   1.000  O
  O2       1.0000 0.01404  0.35236  0.55115  Biso   1.000  O
  O3       1.0000 0.56188  0.99608  0.34720  Biso   1.000  O
  O4       1.0000 0.85369  0.54759  0.49739  Biso   1.000  O
  O5       1.0000 0.50312  0.33824  0.96276  Biso   1.000  O
  O6       1.0000 0.05931  0.99178  0.15295  Biso   1.000  O
  O7       1.0000 0.17036  0.03717  0.00223  Biso   1.000  O
  O8       1.0000 0.51107  0.84555  0.54620  Biso   1.000  O
  O9       1.0000 0.97266  0.49384  0.34024  Biso   1.000  O
  O10      1.0000 0.66868  0.04286  0.50485  Biso   1.000  O
  O11      1.0000 0.02071  0.83865  0.95681  Biso   1.000  O
  O12      1.0000 0.47011  0.48783  0.16360  Biso   1.000  O
  O13      1.0000 0.66735  0.44767  0.98949  Biso   1.000  O
  O14      1.0000 0.02212  0.65481  0.45306  Biso   1.000  O
  O15      1.0000 0.46161  0.00464  0.66084  Biso   1.000  O
  O16      1.0000 0.16324  0.45906  0.51493  Biso   1.000  O
  O17      1.0000 0.52226  0.64962  0.04820  Biso   1.000  O
  O18      1.0000 0.96582  0.00004  0.84654  Biso   1.000  O
  O19      1.0000 0.85695  0.94778  0.00159  Biso   1.000  O
  O20      1.0000 0.50470  0.15250  0.46532  Biso   1.000  O
  O21      1.0000 0.05184  0.49978  0.65980  Biso   1.000  O
  O22      1.0000 0.35756  0.96272  0.49464  Biso   1.000  O
  O23      1.0000 0.00926  0.14441  0.05126  Biso   1.000  O
  O24      1.0000 0.55223  0.50521  0.85013  Biso   1.000  O
  O25      1.0000 0.97375  0.98493  0.15937  Biso   1.000  O
  O26      1.0000 0.17131  0.95374  0.00517  Biso   1.000  O
  O27      1.0000 0.01209  0.14681  0.96430  Biso   1.000  O
  O28      1.0000 0.47852  0.99117  0.35283  Biso   1.000  O
  O29      1.0000 0.67215  0.96113  0.50891  Biso   1.000  O
  O30      1.0000 0.50669  0.15650  0.55005  Biso   1.000  O
  O31      1.0000 0.55171  0.49955  0.15886  Biso   1.000  O
  O32      1.0000 0.35310  0.45770  0.99897  Biso   1.000  O
  O33      1.0000 0.51811  0.65169  0.96361  Biso   1.000  O
  O34      1.0000 0.05463  0.49419  0.34687  Biso   1.000  O
  O35      1.0000 0.85376  0.46422  0.50025  Biso   1.000  O
  O36      1.0000 0.01626  0.65801  0.53723  Biso   1.000  O
  O37      1.0000 0.04786  0.99713  0.84317  Biso   1.000  O
  O38      1.0000 0.85853  0.03718  0.00762  Biso   1.000  O
  O39      1.0000 0.01398  0.83485  0.03964  Biso   1.000  O
  O40      1.0000 0.54733  0.99544  0.65726  Biso   1.000  O
  O41      1.0000 0.35050  0.04510  0.50783  Biso   1.000  O
  O42      1.0000 0.51776  0.84447  0.46131  Biso   1.000  O
  O43      1.0000 0.46773  0.50400  0.85180  Biso   1.000  O
  O44      1.0000 0.66664  0.53222  0.00457  Biso   1.000  O
  O45      1.0000 0.50380  0.33876  0.04878  Biso   1.000  O
  O46      1.0000 0.96939  0.50409  0.65953  Biso   1.000  O
  O47      1.0000 0.16924  0.54458  0.50194  Biso   1.000  O
  O48      1.0000 0.01025  0.35163  0.46307  Biso   1.000  O
  O49      1.0000 0.01520  0.94795  0.15350  Biso   1.000  O
  O50      1.0000 0.16833  0.99452  0.96297  Biso   1.000  O
  O51      1.0000 0.96779  0.15129  0.00930  Biso   1.000  O
  O52      1.0000 0.51898  0.95368  0.34753  Biso   1.000  O
  O53      1.0000 0.67007  0.00021  0.54684  Biso   1.000  O
  O54      1.0000 0.46487  0.15958  0.50861  Biso   1.000  O
  O55      1.0000 0.51316  0.44896  0.15928  Biso   1.000  O
  O56      1.0000 0.35596  0.50723  0.96671  Biso   1.000  O
  O57      1.0000 0.55960  0.65094  0.00122  Biso   1.000  O
  O58      1.0000 0.01288  0.45230  0.34229  Biso   1.000  O
  O59      1.0000 0.85523  0.50555  0.54108  Biso   1.000  O
  O60      1.0000 0.05877  0.65803  0.49853  Biso   1.000  O
  O61      1.0000 0.00926  0.04026  0.84822  Biso   1.000  O
  O62      1.0000 0.85758  0.99018  0.04714  Biso   1.000  O
  O63      1.0000 0.05892  0.83569  0.00361  Biso   1.000  O
  O64      1.0000 0.51045  0.04310  0.66165  Biso   1.000  O
  O65      1.0000 0.35862  0.01191  0.45915  Biso   1.000  O
  O66      1.0000 0.55638  0.84295  0.50476  Biso   1.000  O
  O67      1.0000 0.50973  0.54253  0.84853  Biso   1.000  O
  O68      1.0000 0.66697  0.48172  0.03848  Biso   1.000  O
  O69      1.0000 0.46173  0.34264  0.00741  Biso   1.000  O
  O70      1.0000 0.01156  0.54160  0.65376  Biso   1.000  O
  O71      1.0000 0.17003  0.49145  0.46866  Biso   1.000  O
  O72      1.0000 0.96729  0.35196  0.51050  Biso   1.000  O
  O73      1.0000 0.01001  0.45906  0.66560  Biso   1.000  O
  O74      1.0000 0.67228  0.00000  0.46632  Biso   1.000  O
  O75      1.0000 0.47622  0.65319  0.01156  Biso   1.000  O
  O76      1.0000 0.50813  0.46007  0.84908  Biso   1.000  O
  O77      1.0000 0.17244  0.99874  0.04366  Biso   1.000  O
  O78      1.0000 0.97223  0.65924  0.48854  Biso   1.000  O
  O79      1.0000 0.49979  0.95829  0.66038  Biso   1.000  O
  O80      1.0000 0.85655  0.50463  0.45370  Biso   1.000  O
  O81      1.0000 0.05221  0.14466  0.01512  Biso   1.000  O
  O82      1.0000 0.00574  0.95698  0.84563  Biso   1.000  O
  O83      1.0000 0.36168  0.49716  0.05120  Biso   1.000  O
  O84      1.0000 0.55028  0.16009  0.50671  Biso   1.000  O
  O85      1.0000 0.01267  0.53631  0.34619  Biso   1.000  O
  O86      1.0000 0.35360  0.99302  0.54157  Biso   1.000  O
  O87      1.0000 0.54613  0.33649  0.00061  Biso   1.000  O
  O88      1.0000 0.50455  0.53338  0.15972  Biso   1.000  O
  O89      1.0000 0.85212  0.99329  0.96291  Biso   1.000  O
  O90      1.0000 0.04951  0.34943  0.50776  Biso   1.000  O
  O91      1.0000 0.52199  0.03535  0.35279  Biso   1.000  O
  O92      1.0000 0.16498  0.51310  0.55231  Biso   1.000  O
  O93      1.0000 0.97810  0.83564  0.99359  Biso   1.000  O
  O94      1.0000 0.01579  0.03038  0.15910  Biso   1.000  O
  O95      1.0000 0.67057  0.49636  0.95550  Biso   1.000  O
  O96      1.0000 0.47364  0.84660  0.49818  Biso   1.000  O
  O97      1.0000 0.46708  0.20899  0.50533  Biso   1.000  O
  O98      1.0000 0.51865  0.44865  0.20851  Biso   1.000  O
  O99      1.0000 0.21645  0.49996  0.46752  Biso   1.000  O
  O100     1.0000 0.96690  0.19995  0.00806  Biso   1.000  O
  O101     1.0000 0.01926  0.45215  0.29268  Biso   1.000  O
  O102     1.0000 0.71514  0.48505  0.04031  Biso   1.000  O
  O103     1.0000 0.05749  0.70621  0.48933  Biso   1.000  O
  O104     1.0000 0.01500  0.94594  0.20267  Biso   1.000  O
  O105     1.0000 0.31050  0.00441  0.45437  Biso   1.000  O
  O106     1.0000 0.56133  0.70003  0.00604  Biso   1.000  O
  O107     1.0000 0.52337  0.95388  0.29883  Biso   1.000  O
  O108     1.0000 0.80919  0.99027  0.04908  Biso   1.000  O
  O109     1.0000 0.55463  0.79420  0.50599  Biso   1.000  O
  O110     1.0000 0.50550  0.54314  0.80032  Biso   1.000  O
  O111     1.0000 0.80690  0.50425  0.54131  Biso   1.000  O
  O112     1.0000 0.06043  0.78775  0.99914  Biso   1.000  O
  O113     1.0000 0.00995  0.54605  0.70249  Biso   1.000  O
  O114     1.0000 0.30612  0.50699  0.96751  Biso   1.000  O
  O115     1.0000 0.96910  0.30274  0.51298  Biso   1.000  O
  O116     1.0000 0.00894  0.04355  0.80015  Biso   1.000  O
  O117     1.0000 0.71895  0.99598  0.55084  Biso   1.000  O
  O118     1.0000 0.45953  0.29252  0.00532  Biso   1.000  O
  O119     1.0000 0.50982  0.04057  0.71130  Biso   1.000  O
  O120     1.0000 0.21621  0.99223  0.95522  Biso   1.000  O
  O121     1.0000 0.04841  0.50288  0.70858  Biso   1.000  O
  O122     1.0000 0.71707  0.04508  0.51138  Biso   1.000  O
  O123     1.0000 0.52016  0.69854  0.04733  Biso   1.000  O
  O124     1.0000 0.55093  0.50489  0.80080  Biso   1.000  O
  O125     1.0000 0.21851  0.03887  0.99382  Biso   1.000  O
  O126     1.0000 0.01585  0.70253  0.45109  Biso   1.000  O
  O127     1.0000 0.46094  0.00975  0.70881  Biso   1.000  O
  O128     1.0000 0.80678  0.54706  0.50347  Biso   1.000  O
  O129     1.0000 0.00346  0.19179  0.04975  Biso   1.000  O
  O130     1.0000 0.96162  0.00596  0.79827  Biso   1.000  O
  O131     1.0000 0.30932  0.54272  0.01349  Biso   1.000  O
  O132     1.0000 0.50499  0.20085  0.46379  Biso   1.000  O
  O133     1.0000 0.97315  0.48972  0.29154  Biso   1.000  O
  O134     1.0000 0.30962  0.96206  0.49331  Biso   1.000  O
  O135     1.0000 0.49561  0.29144  0.96165  Biso   1.000  O
  O136     1.0000 0.47234  0.48704  0.21162  Biso   1.000  O
  O137     1.0000 0.80870  0.94768  0.00831  Biso   1.000  O
  O138     1.0000 0.01339  0.30278  0.55066  Biso   1.000  O
  O139     1.0000 0.56401  0.00042  0.29927  Biso   1.000  O
  O140     1.0000 0.21087  0.46135  0.51341  Biso   1.000  O
  O141     1.0000 0.02162  0.78856  0.95544  Biso   1.000  O
  O142     1.0000 0.05642  0.98804  0.20034  Biso   1.000  O
  O143     1.0000 0.71624  0.44701  0.99743  Biso   1.000  O
  O144     1.0000 0.51110  0.79703  0.54423  Biso   1.000  O
  O145     1.0000 0.55495  0.49460  0.20751  Biso   1.000  O
  O146     1.0000 0.21866  0.54421  0.50240  Biso   1.000  O
  O147     1.0000 0.50809  0.20534  0.54812  Biso   1.000  O
  O148     1.0000 0.05465  0.49422  0.29872  Biso   1.000  O
  O149     1.0000 0.71620  0.53167  0.00366  Biso   1.000  O
  O150     1.0000 0.00927  0.19662  0.96895  Biso   1.000  O
  O151     1.0000 0.97427  0.98468  0.20895  Biso   1.000  O
  O152     1.0000 0.30339  0.04576  0.49824  Biso   1.000  O
  O153     1.0000 0.01571  0.70676  0.53270  Biso   1.000  O
  O154     1.0000 0.48186  0.99140  0.30510  Biso   1.000  O
  O155     1.0000 0.80940  0.03381  0.00775  Biso   1.000  O
  O156     1.0000 0.51738  0.70138  0.96282  Biso   1.000  O
  O157     1.0000 0.46623  0.49799  0.80495  Biso   1.000  O
  O158     1.0000 0.80520  0.46433  0.49574  Biso   1.000  O
  O159     1.0000 0.50986  0.79562  0.46213  Biso   1.000  O
  O160     1.0000 0.96655  0.50488  0.70910  Biso   1.000  O
  O161     1.0000 0.30439  0.46098  0.00474  Biso   1.000  O
  O162     1.0000 0.01587  0.78439  0.03706  Biso   1.000  O
  O163     1.0000 0.04564  0.99663  0.79555  Biso   1.000  O
  O164     1.0000 0.71915  0.96125  0.50440  Biso   1.000  O
  O165     1.0000 0.00661  0.30204  0.46803  Biso   1.000  O
  O166     1.0000 0.54527  0.99184  0.70539  Biso   1.000  O
  O167     1.0000 0.22018  0.95516  0.00382  Biso   1.000  O
  O168     1.0000 0.50149  0.28951  0.04610  Biso   1.000  O
  O169     1.0000 0.01403  0.02951  0.20806  Biso   1.000  O
  O170     1.0000 0.22086  0.00288  0.04084  Biso   1.000  O
  O171     1.0000 0.04856  0.19272  0.01430  Biso   1.000  O
  O172     1.0000 0.51934  0.03484  0.30322  Biso   1.000  O
  O173     1.0000 0.72013  0.00709  0.46779  Biso   1.000  O
  O174     1.0000 0.55109  0.20631  0.50268  Biso   1.000  O
  O175     1.0000 0.51149  0.53360  0.20892  Biso   1.000  O
  O176     1.0000 0.31305  0.49606  0.04960  Biso   1.000  O
  O177     1.0000 0.47874  0.70131  0.00588  Biso   1.000  O
  O178     1.0000 0.01014  0.53352  0.29809  Biso   1.000  O
  O179     1.0000 0.80990  0.50917  0.45756  Biso   1.000  O
  O180     1.0000 0.97298  0.70681  0.49064  Biso   1.000  O
  O181     1.0000 0.99918  0.95859  0.79859  Biso   1.000  O
  O182     1.0000 0.80317  0.98970  0.96458  Biso   1.000  O
  O183     1.0000 0.97767  0.78628  0.99465  Biso   1.000  O
  O184     1.0000 0.49631  0.95951  0.70935  Biso   1.000  O
  O185     1.0000 0.30447  0.99636  0.53926  Biso   1.000  O
  O186     1.0000 0.46953  0.79865  0.50377  Biso   1.000  O
  O187     1.0000 0.51002  0.45937  0.79950  Biso   1.000  O
  O188     1.0000 0.71759  0.49495  0.95919  Biso   1.000  O
  O189     1.0000 0.54211  0.28957  0.00452  Biso   1.000  O
  O190     1.0000 0.00645  0.46076  0.71408  Biso   1.000  O
  O191     1.0000 0.21350  0.50891  0.55090  Biso   1.000  O
  O192     1.0000 0.05041  0.30140  0.50521  Biso   1.000  O
