data_image0
_cell_length_a       46.6443
_cell_length_b       46.6497
_cell_length_c       46.4692
_cell_angle_alpha    90
_cell_angle_beta     90
_cell_angle_gamma    90

_symmetry_space_group_name_H-M    "P 1"
_symmetry_int_tables_number       1

loop_
  _symmetry_equiv_pos_as_xyz
  'x, y, z'

loop_
  _atom_site_label
  _atom_site_occupancy
  _atom_site_fract_x
  _atom_site_fract_y
  _atom_site_fract_z
  _atom_site_thermal_displace_type
  _atom_site_B_iso_or_equiv
  _atom_site_type_symbol
  C1       1.0000 0.59809  0.99188  0.33022  Biso   1.000  C
  C2       1.0000 0.35963  0.56259  0.01197  Biso   1.000  C
  C3       1.0000 0.03547  0.31725  0.56794  Biso   1.000  C
  C4       1.0000 0.09246  0.99194  0.18693  Biso   1.000  C
  C5       1.0000 0.85657  0.55348  0.50810  Biso   1.000  C
  C6       1.0000 0.52594  0.31185  0.95335  Biso   1.000  C
  C7       1.0000 0.98636  0.49666  0.32359  Biso   1.000  C
  C8       1.0000 0.21718  0.06646  0.99933  Biso   1.000  C
  C9       1.0000 0.53646  0.81611  0.55492  Biso   1.000  C
  C10      1.0000 0.48662  0.48538  0.19047  Biso   1.000  C
  C11      1.0000 0.72281  0.05208  0.51453  Biso   1.000  C
  C12      1.0000 0.05436  0.81688  0.95012  Biso   1.000  C
  C13      1.0000 0.47889  0.99853  0.68798  Biso   1.000  C
  C14      1.0000 0.71084  0.42451  0.00715  Biso   1.000  C
  C15      1.0000 0.04544  0.66938  0.44826  Biso   1.000  C
  C16      1.0000 0.97893  0.98505  0.83034  Biso   1.000  C
  C17      1.0000 0.21878  0.44390  0.52083  Biso   1.000  C
  C18      1.0000 0.54801  0.66797  0.06197  Biso   1.000  C
  C19      1.0000 0.09246  0.50208  0.69900  Biso   1.000  C
  C20      1.0000 0.85776  0.92699  0.01322  Biso   1.000  C
  C21      1.0000 0.53792  0.17363  0.45631  Biso   1.000  C
  C22      1.0000 0.58586  0.50568  0.82622  Biso   1.000  C
  C23      1.0000 0.35814  0.94149  0.49809  Biso   1.000  C
  C24      1.0000 0.02182  0.17691  0.06620  Biso   1.000  C
  C25      1.0000 0.35775  0.04913  0.49945  Biso   1.000  C
  C26      1.0000 0.52155  0.31004  0.06114  Biso   1.000  C
  C27      1.0000 0.09793  0.48862  0.32662  Biso   1.000  C
  C28      1.0000 0.85652  0.03621  0.00481  Biso   1.000  C
  C29      1.0000 0.04480  0.31634  0.46005  Biso   1.000  C
  C30      1.0000 0.59646  0.48981  0.18354  Biso   1.000  C
  C31      1.0000 0.21623  0.55258  0.51324  Biso   1.000  C
  C32      1.0000 0.04593  0.81815  0.05893  Biso   1.000  C
  C33      1.0000 0.48900  0.99282  0.32177  Biso   1.000  C
  C34      1.0000 0.72499  0.53380  0.99729  Biso   1.000  C
  C35      1.0000 0.53054  0.81340  0.44640  Biso   1.000  C
  C36      1.0000 0.98601  0.00666  0.19136  Biso   1.000  C
  C37      1.0000 0.71743  0.94270  0.51421  Biso   1.000  C
  C38      1.0000 0.54992  0.67786  0.95283  Biso   1.000  C
  C39      1.0000 0.98347  0.49857  0.68983  Biso   1.000  C
  C40      1.0000 0.22392  0.95853  0.99916  Biso   1.000  C
  C41      1.0000 0.03153  0.67648  0.55866  Biso   1.000  C
  C42      1.0000 0.48005  0.48142  0.83280  Biso   1.000  C
  C43      1.0000 0.86171  0.44594  0.50677  Biso   1.000  C
  C44      1.0000 0.03054  0.17596  0.95642  Biso   1.000  C
  C45      1.0000 0.58753  0.98617  0.68797  Biso   1.000  C
  C46      1.0000 0.35422  0.45516  0.01400  Biso   1.000  C
  C47      1.0000 0.54479  0.17814  0.56367  Biso   1.000  C
  C48      1.0000 0.08586  0.00926  0.82443  Biso   1.000  C
  C49      1.0000 0.01598  0.05172  0.82788  Biso   1.000  C
  C50      1.0000 0.85798  0.99084  0.06487  Biso   1.000  C
  C51      1.0000 0.10515  0.81989  0.00608  Biso   1.000  C
  C52      1.0000 0.53618  0.04864  0.68812  Biso   1.000  C
  C53      1.0000 0.35784  0.99602  0.44335  Biso   1.000  C
  C54      1.0000 0.58987  0.81868  0.50180  Biso   1.000  C
  C55      1.0000 0.52869  0.54983  0.82967  Biso   1.000  C
  C56      1.0000 0.72289  0.48150  0.05864  Biso   1.000  C
  C57      1.0000 0.46868  0.31418  0.00219  Biso   1.000  C
  C58      1.0000 0.03843  0.55544  0.69248  Biso   1.000  C
  C59      1.0000 0.21554  0.49778  0.46089  Biso   1.000  C
  C60      1.0000 0.98743  0.31905  0.51106  Biso   1.000  C
  C61      1.0000 0.02868  0.94589  0.18338  Biso   1.000  C
  C62      1.0000 0.21979  0.00857  0.94262  Biso   1.000  C
  C63      1.0000 0.97199  0.17419  0.00603  Biso   1.000  C
  C64      1.0000 0.54344  0.93767  0.32389  Biso   1.000  C
  C65      1.0000 0.71953  0.99903  0.56868  Biso   1.000  C
  C66      1.0000 0.48666  0.17694  0.51033  Biso   1.000  C
  C67      1.0000 0.54476  0.43229  0.18558  Biso   1.000  C
  C68      1.0000 0.35780  0.50642  0.96122  Biso   1.000  C
  C69      1.0000 0.60427  0.66590  0.00858  Biso   1.000  C
  C70      1.0000 0.03471  0.43825  0.33116  Biso   1.000  C
  C71      1.0000 0.85460  0.49845  0.56397  Biso   1.000  C
  C72      1.0000 0.09189  0.67505  0.51417  Biso   1.000  C
  C73      1.0000 0.04447  0.54836  0.32009  Biso   1.000  C
  C74      1.0000 0.35793  0.99849  0.55271  Biso   1.000  C
  C75      1.0000 0.57806  0.30268  0.01400  Biso   1.000  C
  C76      1.0000 0.54367  0.53966  0.19061  Biso   1.000  C
  C77      1.0000 0.85525  0.97212  0.95716  Biso   1.000  C
  C78      1.0000 0.09472  0.31864  0.51963  Biso   1.000  C
  C79      1.0000 0.54550  0.04558  0.33013  Biso   1.000  C
  C80      1.0000 0.21538  0.50159  0.56782  Biso   1.000  C
  C81      1.0000 0.99557  0.81142  0.99817  Biso   1.000  C
  C82      1.0000 0.04432  0.04975  0.18988  Biso   1.000  C
  C83      1.0000 0.71439  0.47628  0.94953  Biso   1.000  C
  C84      1.0000 0.48109  0.81744  0.50446  Biso   1.000  C
  C85      1.0000 0.04217  0.44680  0.69455  Biso   1.000  C
  C86      1.0000 0.72431  0.99419  0.45822  Biso   1.000  C
  C87      1.0000 0.49620  0.67947  0.00504  Biso   1.000  C
  C88      1.0000 0.54092  0.44132  0.82320  Biso   1.000  C
  C89      1.0000 0.21861  0.01214  0.05378  Biso   1.000  C
  C90      1.0000 0.98163  0.68178  0.50003  Biso   1.000  C
  C91      1.0000 0.52684  0.94088  0.68897  Biso   1.000  C
  C92      1.0000 0.86047  0.50093  0.45308  Biso   1.000  C
  C93      1.0000 0.07771  0.18069  0.01803  Biso   1.000  C
  C94      1.0000 0.04144  0.94805  0.82767  Biso   1.000  C
  C95      1.0000 0.35892  0.51069  0.07083  Biso   1.000  C
  C96      1.0000 0.59390  0.17433  0.50862  Biso   1.000  C
  C97      1.0000 0.72294  0.08450  0.51483  Biso   1.000  C
  C98      1.0000 0.54676  0.66704  0.09361  Biso   1.000  C
  C99      1.0000 0.12416  0.49931  0.69766  Biso   1.000  C
  C100     1.0000 0.21394  0.09777  0.00244  Biso   1.000  C
  C101     1.0000 0.04765  0.66896  0.41676  Biso   1.000  C
  C102     1.0000 0.61788  0.51248  0.82680  Biso   1.000  C
  C103     1.0000 0.85744  0.58509  0.50455  Biso   1.000  C
  C104     1.0000 0.02039  0.17514  0.09865  Biso   1.000  C
  C105     1.0000 0.44694  0.99974  0.68598  Biso   1.000  C
  C106     1.0000 0.35954  0.59500  0.00738  Biso   1.000  C
  C107     1.0000 0.53634  0.17241  0.42519  Biso   1.000  C
  C108     1.0000 0.94779  0.97692  0.82972  Biso   1.000  C
  C109     1.0000 0.35578  0.90964  0.49707  Biso   1.000  C
  C110     1.0000 0.52737  0.31501  0.92168  Biso   1.000  C
  C111     1.0000 0.95444  0.49642  0.32135  Biso   1.000  C
  C112     1.0000 0.86006  0.89579  0.01662  Biso   1.000  C
  C113     1.0000 0.03406  0.31832  0.60113  Biso   1.000  C
  C114     1.0000 0.45323  0.48427  0.19027  Biso   1.000  C
  C115     1.0000 0.22034  0.41186  0.52196  Biso   1.000  C
  C116     1.0000 0.05764  0.81763  0.91763  Biso   1.000  C
  C117     1.0000 0.63088  0.99328  0.32918  Biso   1.000  C
  C118     1.0000 0.70828  0.39256  0.00891  Biso   1.000  C
  C119     1.0000 0.53688  0.81756  0.58729  Biso   1.000  C
  C120     1.0000 0.12449  0.99244  0.18368  Biso   1.000  C
  C121     1.0000 0.85808  0.99767  0.09671  Biso   1.000  C
  C122     1.0000 0.13707  0.82461  0.00609  Biso   1.000  C
  C123     1.0000 0.00588  0.08189  0.82837  Biso   1.000  C
  C124     1.0000 0.35835  0.00031  0.41020  Biso   1.000  C
  C125     1.0000 0.62150  0.81709  0.50093  Biso   1.000  C
  C126     1.0000 0.53765  0.07959  0.68722  Biso   1.000  C
  C127     1.0000 0.72309  0.48039  0.09169  Biso   1.000  C
  C128     1.0000 0.43749  0.31805  0.00623  Biso   1.000  C
  C129     1.0000 0.53275  0.58180  0.82889  Biso   1.000  C
  C130     1.0000 0.21734  0.49836  0.42977  Biso   1.000  C
  C131     1.0000 0.95455  0.31858  0.51078  Biso   1.000  C
  C132     1.0000 0.04241  0.58770  0.68995  Biso   1.000  C
  C133     1.0000 0.21890  0.00637  0.91071  Biso   1.000  C
  C134     1.0000 0.94017  0.17234  0.99898  Biso   1.000  C
  C135     1.0000 0.02789  0.91341  0.18258  Biso   1.000  C
  C136     1.0000 0.71958  0.99315  0.60061  Biso   1.000  C
  C137     1.0000 0.45506  0.17755  0.51192  Biso   1.000  C
  C138     1.0000 0.54454  0.90602  0.32188  Biso   1.000  C
  C139     1.0000 0.35905  0.50294  0.92904  Biso   1.000  C
  C140     1.0000 0.63750  0.66517  0.01501  Biso   1.000  C
  C141     1.0000 0.54212  0.40118  0.18635  Biso   1.000  C
  C142     1.0000 0.85321  0.50303  0.59769  Biso   1.000  C
  C143     1.0000 0.12396  0.67596  0.52134  Biso   1.000  C
  C144     1.0000 0.02884  0.40666  0.33293  Biso   1.000  C
  C145     1.0000 0.35919  0.51012  0.10299  Biso   1.000  C
  C146     1.0000 0.12677  0.31655  0.52093  Biso   1.000  C
  C147     1.0000 0.54727  0.07778  0.33077  Biso   1.000  C
  C148     1.0000 0.86158  0.49779  0.42068  Biso   1.000  C
  C149     1.0000 0.60968  0.30150  0.01846  Biso   1.000  C
  C150     1.0000 0.04426  0.08118  0.18835  Biso   1.000  C
  C151     1.0000 0.21734  0.01646  0.08598  Biso   1.000  C
  C152     1.0000 0.44971  0.81676  0.50790  Biso   1.000  C
  C153     1.0000 0.04695  0.58002  0.31881  Biso   1.000  C
  C154     1.0000 0.72411  0.99692  0.42655  Biso   1.000  C
  C155     1.0000 0.96353  0.80866  0.00071  Biso   1.000  C
  C156     1.0000 0.54974  0.57169  0.19085  Biso   1.000  C
  C157     1.0000 0.71474  0.48732  0.91874  Biso   1.000  C
  C158     1.0000 0.95076  0.68204  0.50250  Biso   1.000  C
  C159     1.0000 0.53019  0.90829  0.68857  Biso   1.000  C
  C160     1.0000 0.21513  0.50709  0.59953  Biso   1.000  C
  C161     1.0000 0.46429  0.68205  0.00345  Biso   1.000  C
  C162     1.0000 0.04415  0.91517  0.82657  Biso   1.000  C
  C163     1.0000 0.85393  0.96780  0.92559  Biso   1.000  C
  C164     1.0000 0.62693  0.17618  0.51086  Biso   1.000  C
  C165     1.0000 0.04151  0.41408  0.69714  Biso   1.000  C
  C166     1.0000 0.35701  0.00338  0.58507  Biso   1.000  C
  C167     1.0000 0.11052  0.18110  0.01946  Biso   1.000  C
  C168     1.0000 0.54016  0.40778  0.82419  Biso   1.000  C
  C169     1.0000 0.04724  0.81837  0.09149  Biso   1.000  C
  C170     1.0000 0.11830  0.01112  0.82262  Biso   1.000  C
  C171     1.0000 0.85250  0.06812  0.00239  Biso   1.000  C
  C172     1.0000 0.52689  0.81289  0.41347  Biso   1.000  C
  C173     1.0000 0.62001  0.98190  0.68907  Biso   1.000  C
  C174     1.0000 0.35923  0.08129  0.49892  Biso   1.000  C
  C175     1.0000 0.52086  0.30805  0.09363  Biso   1.000  C
  C176     1.0000 0.44860  0.47390  0.83366  Biso   1.000  C
  C177     1.0000 0.72952  0.56704  0.99535  Biso   1.000  C
  C178     1.0000 0.04365  0.31345  0.42796  Biso   1.000  C
  C179     1.0000 0.95242  0.50270  0.69013  Biso   1.000  C
  C180     1.0000 0.21682  0.58397  0.51058  Biso   1.000  C
  C181     1.0000 0.02757  0.17610  0.92480  Biso   1.000  C
  C182     1.0000 0.95438  0.00582  0.19133  Biso   1.000  C
  C183     1.0000 0.22377  0.92570  0.99950  Biso   1.000  C
  C184     1.0000 0.54531  0.17757  0.59613  Biso   1.000  C
  C185     1.0000 0.45658  0.99540  0.32035  Biso   1.000  C
  C186     1.0000 0.71660  0.91046  0.51136  Biso   1.000  C
  C187     1.0000 0.54670  0.67933  0.92155  Biso   1.000  C
  C188     1.0000 0.62838  0.49725  0.18347  Biso   1.000  C
  C189     1.0000 0.35274  0.42327  0.01446  Biso   1.000  C
  C190     1.0000 0.03345  0.67808  0.59196  Biso   1.000  C
  C191     1.0000 0.13049  0.48549  0.33032  Biso   1.000  C
  C192     1.0000 0.86136  0.41398  0.50626  Biso   1.000  C
  C193     1.0000 0.88148  0.97227  0.90829  Biso   1.000  C
  C194     1.0000 0.94459  0.83417  0.00275  Biso   1.000  C
  C195     1.0000 0.04887  0.89843  0.85340  Biso   1.000  C
  C196     1.0000 0.38351  0.00324  0.60272  Biso   1.000  C
  C197     1.0000 0.43299  0.84365  0.50221  Biso   1.000  C
  C198     1.0000 0.52823  0.89456  0.66026  Biso   1.000  C
  C199     1.0000 0.68706  0.49258  0.90361  Biso   1.000  C
  C200     1.0000 0.62631  0.32800  0.01868  Biso   1.000  C
  C201     1.0000 0.53562  0.39325  0.85183  Biso   1.000  C
  C202     1.0000 0.18923  0.50410  0.61715  Biso   1.000  C
  C203     1.0000 0.14446  0.34268  0.51943  Biso   1.000  C
  C204     1.0000 0.04313  0.39729  0.67071  Biso   1.000  C
  C205     1.0000 0.19018  0.01463  0.10256  Biso   1.000  C
  C206     1.0000 0.13021  0.15545  0.01487  Biso   1.000  C
  C207     1.0000 0.04058  0.09788  0.16290  Biso   1.000  C
  C208     1.0000 0.69738  0.99199  0.40988  Biso   1.000  C
  C209     1.0000 0.64524  0.15067  0.51129  Biso   1.000  C
  C210     1.0000 0.54715  0.09426  0.35689  Biso   1.000  C
  C211     1.0000 0.38589  0.50162  0.11828  Biso   1.000  C
  C212     1.0000 0.44548  0.65665  0.00637  Biso   1.000  C
  C213     1.0000 0.54903  0.58605  0.16276  Biso   1.000  C
  C214     1.0000 0.88824  0.49680  0.40393  Biso   1.000  C
  C215     1.0000 0.93453  0.65468  0.50505  Biso   1.000  C
  C216     1.0000 0.04851  0.59473  0.34649  Biso   1.000  C
  C217     1.0000 0.13656  0.01015  0.84923  Biso   1.000  C
  C218     1.0000 0.87770  0.08655  0.99764  Biso   1.000  C
  C219     1.0000 0.04504  0.84545  0.10747  Biso   1.000  C
  C220     1.0000 0.63689  0.98411  0.66365  Biso   1.000  C
  C221     1.0000 0.38603  0.09800  0.50073  Biso   1.000  C
  C222     1.0000 0.52967  0.83877  0.39841  Biso   1.000  C
  C223     1.0000 0.43457  0.47861  0.86037  Biso   1.000  C
  C224     1.0000 0.70244  0.58279  0.99789  Biso   1.000  C
  C225     1.0000 0.52890  0.33309  0.11056  Biso   1.000  C
  C226     1.0000 0.93541  0.49863  0.66469  Biso   1.000  C
  C227     1.0000 0.18946  0.59912  0.51313  Biso   1.000  C
  C228     1.0000 0.04318  0.34043  0.41140  Biso   1.000  C
  C229     1.0000 0.93752  0.00260  0.16518  Biso   1.000  C
  C230     1.0000 0.19754  0.90902  0.00289  Biso   1.000  C
  C231     1.0000 0.02163  0.14962  0.90823  Biso   1.000  C
  C232     1.0000 0.43900  0.99721  0.34627  Biso   1.000  C
  C233     1.0000 0.68961  0.89406  0.50746  Biso   1.000  C
  C234     1.0000 0.54125  0.14967  0.61120  Biso   1.000  C
  C235     1.0000 0.64462  0.49583  0.15593  Biso   1.000  C
  C236     1.0000 0.37914  0.40399  0.01393  Biso   1.000  C
  C237     1.0000 0.54100  0.65214  0.90580  Biso   1.000  C
  C238     1.0000 0.14532  0.48690  0.35800  Biso   1.000  C
  C239     1.0000 0.88748  0.39769  0.50492  Biso   1.000  C
  C240     1.0000 0.03501  0.65180  0.60762  Biso   1.000  C
  C241     1.0000 0.63442  0.50515  0.85352  Biso   1.000  C
  C242     1.0000 0.88268  0.60302  0.50899  Biso   1.000  C
  C243     1.0000 0.53530  0.84475  0.60511  Biso   1.000  C
  C244     1.0000 0.13878  0.50038  0.66973  Biso   1.000  C
  C245     1.0000 0.38725  0.60965  0.00885  Biso   1.000  C
  C246     1.0000 0.05490  0.84530  0.90368  Biso   1.000  C
  C247     1.0000 0.93095  0.97721  0.85664  Biso   1.000  C
  C248     1.0000 0.69546  0.09917  0.51236  Biso   1.000  C
  C249     1.0000 0.03634  0.34496  0.61790  Biso   1.000  C
  C250     1.0000 0.43233  0.99775  0.65765  Biso   1.000  C
  C251     1.0000 0.18573  0.11067  0.00650  Biso   1.000  C
  C252     1.0000 0.52769  0.34109  0.90624  Biso   1.000  C
  C253     1.0000 0.43782  0.49180  0.16426  Biso   1.000  C
  C254     1.0000 0.19359  0.39463  0.52309  Biso   1.000  C
  C255     1.0000 0.54034  0.14451  0.40916  Biso   1.000  C
  C256     1.0000 0.93904  0.49697  0.35031  Biso   1.000  C
  C257     1.0000 0.68084  0.37896  0.01541  Biso   1.000  C
  C258     1.0000 0.02168  0.14819  0.11441  Biso   1.000  C
  C259     1.0000 0.13807  0.99949  0.15608  Biso   1.000  C
  C260     1.0000 0.38205  0.89311  0.50206  Biso   1.000  C
  C261     1.0000 0.04847  0.64390  0.39941  Biso   1.000  C
  C262     1.0000 0.64640  0.99371  0.35605  Biso   1.000  C
  C263     1.0000 0.88899  0.88258  0.01341  Biso   1.000  C
  C264     1.0000 0.54695  0.63992  0.10818  Biso   1.000  C
  C265     1.0000 0.00761  0.09728  0.85580  Biso   1.000  C
  C266     1.0000 0.88500  0.99980  0.11327  Biso   1.000  C
  C267     1.0000 0.15143  0.85337  0.00786  Biso   1.000  C
  C268     1.0000 0.53902  0.09555  0.65991  Biso   1.000  C
  C269     1.0000 0.38491  0.99768  0.39461  Biso   1.000  C
  C270     1.0000 0.63805  0.84336  0.50489  Biso   1.000  C
  C271     1.0000 0.53742  0.59947  0.85508  Biso   1.000  C
  C272     1.0000 0.69668  0.48686  0.10691  Biso   1.000  C
  C273     1.0000 0.42500  0.34708  0.00941  Biso   1.000  C
  C274     1.0000 0.04410  0.60208  0.66030  Biso   1.000  C
  C275     1.0000 0.19204  0.49407  0.41186  Biso   1.000  C
  C276     1.0000 0.93894  0.34590  0.50778  Biso   1.000  C
  C277     1.0000 0.03400  0.89562  0.15632  Biso   1.000  C
  C278     1.0000 0.19235  0.01095  0.89629  Biso   1.000  C
  C279     1.0000 0.92645  0.14275  0.99706  Biso   1.000  C
  C280     1.0000 0.54171  0.89020  0.34922  Biso   1.000  C
  C281     1.0000 0.69066  0.98937  0.61484  Biso   1.000  C
  C282     1.0000 0.43961  0.14892  0.50905  Biso   1.000  C
  C283     1.0000 0.54037  0.38434  0.15918  Biso   1.000  C
  C284     1.0000 0.38340  0.49227  0.91327  Biso   1.000  C
  C285     1.0000 0.65025  0.63711  0.00874  Biso   1.000  C
  C286     1.0000 0.03462  0.39044  0.35994  Biso   1.000  C
  C287     1.0000 0.88085  0.50435  0.61294  Biso   1.000  C
  C288     1.0000 0.13969  0.64932  0.51971  Biso   1.000  C
  C289     1.0000 0.38060  0.86189  0.50183  Biso   1.000  C
  C290     1.0000 0.53257  0.34072  0.87440  Biso   1.000  C
  C291     1.0000 0.90821  0.49695  0.34961  Biso   1.000  C
  C292     1.0000 0.89156  0.85165  0.01256  Biso   1.000  C
  C293     1.0000 0.03808  0.34468  0.64897  Biso   1.000  C
  C294     1.0000 0.40670  0.49548  0.16934  Biso   1.000  C
  C295     1.0000 0.19663  0.36331  0.52257  Biso   1.000  C
  C296     1.0000 0.05414  0.84594  0.87085  Biso   1.000  C
  C297     1.0000 0.67712  0.99463  0.35683  Biso   1.000  C
  C298     1.0000 0.68004  0.34772  0.01731  Biso   1.000  C
  C299     1.0000 0.53439  0.84310  0.63666  Biso   1.000  C
  C300     1.0000 0.16943  0.00149  0.15412  Biso   1.000  C
  C301     1.0000 0.69756  0.13210  0.51210  Biso   1.000  C
  C302     1.0000 0.54886  0.63923  0.14067  Biso   1.000  C
  C303     1.0000 0.17059  0.50069  0.67030  Biso   1.000  C
  C304     1.0000 0.18397  0.14139  0.01224  Biso   1.000  C
  C305     1.0000 0.04827  0.64560  0.36787  Biso   1.000  C
  C306     1.0000 0.66509  0.50821  0.85199  Biso   1.000  C
  C307     1.0000 0.88244  0.63346  0.50244  Biso   1.000  C
  C308     1.0000 0.02578  0.15120  0.14539  Biso   1.000  C
  C309     1.0000 0.40208  0.00003  0.65745  Biso   1.000  C
  C310     1.0000 0.38916  0.63997  0.00696  Biso   1.000  C
  C311     1.0000 0.54185  0.14569  0.37717  Biso   1.000  C
  C312     1.0000 0.90065  0.97243  0.85513  Biso   1.000  C
  C313     1.0000 0.19569  0.49334  0.38020  Biso   1.000  C
  C314     1.0000 0.40760  0.14866  0.51079  Biso   1.000  C
  C315     1.0000 0.53557  0.35285  0.16126  Biso   1.000  C
  C316     1.0000 0.69716  0.48748  0.13858  Biso   1.000  C
  C317     1.0000 0.89563  0.14101  0.99780  Biso   1.000  C
  C318     1.0000 0.03702  0.36032  0.35941  Biso   1.000  C
  C319     1.0000 0.38592  0.99821  0.36254  Biso   1.000  C
  C320     1.0000 0.17063  0.65227  0.51853  Biso   1.000  C
  C321     1.0000 0.03951  0.86491  0.16013  Biso   1.000  C
  C322     1.0000 0.88456  0.00239  0.14428  Biso   1.000  C
  C323     1.0000 0.68242  0.63575  0.00702  Biso   1.000  C
  C324     1.0000 0.53922  0.85876  0.34729  Biso   1.000  C
  C325     1.0000 0.88207  0.50462  0.64400  Biso   1.000  C
  C326     1.0000 0.66932  0.84151  0.50587  Biso   1.000  C
  C327     1.0000 0.54054  0.63040  0.85335  Biso   1.000  C
  C328     1.0000 0.38337  0.48789  0.88169  Biso   1.000  C
  C329     1.0000 0.18217  0.85378  0.00626  Biso   1.000  C
  C330     1.0000 0.04066  0.63304  0.66043  Biso   1.000  C
  C331     1.0000 0.69062  0.98316  0.64526  Biso   1.000  C
  C332     1.0000 0.90736  0.34399  0.50664  Biso   1.000  C
  C333     1.0000 0.01229  0.12899  0.85490  Biso   1.000  C
  C334     1.0000 0.19126  0.00808  0.86561  Biso   1.000  C
  C335     1.0000 0.39418  0.35020  0.01134  Biso   1.000  C
  C336     1.0000 0.53921  0.12754  0.66199  Biso   1.000  C
  C337     1.0000 0.68710  0.50299  0.87343  Biso   1.000  C
  C338     1.0000 0.90345  0.65617  0.50234  Biso   1.000  C
  C339     1.0000 0.53089  0.86241  0.65914  Biso   1.000  C
  C340     1.0000 0.19109  0.50250  0.64865  Biso   1.000  C
  C341     1.0000 0.41400  0.65873  0.00468  Biso   1.000  C
  C342     1.0000 0.05073  0.86742  0.85065  Biso   1.000  C
  C343     1.0000 0.87977  0.97010  0.87689  Biso   1.000  C
  C344     1.0000 0.67498  0.15277  0.51297  Biso   1.000  C
  C345     1.0000 0.04101  0.36605  0.67136  Biso   1.000  C
  C346     1.0000 0.38091  0.00173  0.63412  Biso   1.000  C
  C347     1.0000 0.16042  0.15970  0.01827  Biso   1.000  C
  C348     1.0000 0.53522  0.36238  0.85261  Biso   1.000  C
  C349     1.0000 0.38478  0.49886  0.14911  Biso   1.000  C
  C350     1.0000 0.17575  0.34171  0.52039  Biso   1.000  C
  C351     1.0000 0.54413  0.12483  0.35532  Biso   1.000  C
  C352     1.0000 0.88736  0.49756  0.37227  Biso   1.000  C
  C353     1.0000 0.65772  0.32659  0.01681  Biso   1.000  C
  C354     1.0000 0.03336  0.12909  0.16570  Biso   1.000  C
  C355     1.0000 0.19045  0.00848  0.13355  Biso   1.000  C
  C356     1.0000 0.40139  0.84116  0.50292  Biso   1.000  C
  C357     1.0000 0.04852  0.62535  0.34433  Biso   1.000  C
  C358     1.0000 0.69824  0.99447  0.37864  Biso   1.000  C
  C359     1.0000 0.91393  0.83120  0.00799  Biso   1.000  C
  C360     1.0000 0.54871  0.61773  0.16272  Biso   1.000  C
  C361     1.0000 0.01902  0.14979  0.87707  Biso   1.000  C
  C362     1.0000 0.90588  0.00392  0.16572  Biso   1.000  C
  C363     1.0000 0.20183  0.87698  0.00199  Biso   1.000  C
  C364     1.0000 0.54255  0.15060  0.64228  Biso   1.000  C
  C365     1.0000 0.40753  0.99891  0.34174  Biso   1.000  C
  C366     1.0000 0.69181  0.86276  0.50795  Biso   1.000  C
  C367     1.0000 0.54157  0.65247  0.87366  Biso   1.000  C
  C368     1.0000 0.67475  0.49100  0.15897  Biso   1.000  C
  C369     1.0000 0.37550  0.37376  0.01431  Biso   1.000  C
  C370     1.0000 0.03524  0.65357  0.63916  Biso   1.000  C
  C371     1.0000 0.17608  0.48918  0.35754  Biso   1.000  C
  C372     1.0000 0.88701  0.36605  0.50581  Biso   1.000  C
  C373     1.0000 0.04492  0.84383  0.13942  Biso   1.000  C
  C374     1.0000 0.16770  0.00842  0.84508  Biso   1.000  C
  C375     1.0000 0.87581  0.11774  0.99821  Biso   1.000  C
  C376     1.0000 0.53195  0.83738  0.36673  Biso   1.000  C
  C377     1.0000 0.66769  0.98089  0.66484  Biso   1.000  C
  C378     1.0000 0.38576  0.12780  0.50642  Biso   1.000  C
  C379     1.0000 0.53285  0.33103  0.14083  Biso   1.000  C
  C380     1.0000 0.40312  0.48102  0.86092  Biso   1.000  C
  C381     1.0000 0.70345  0.61372  0.00180  Biso   1.000  C
  C382     1.0000 0.04086  0.33802  0.38024  Biso   1.000  C
  C383     1.0000 0.90406  0.50219  0.66547  Biso   1.000  C
  C384     1.0000 0.19169  0.63060  0.51620  Biso   1.000  C
  C385     1.0000 0.20877  0.15873  0.01808  Biso   1.000  C
  C386     1.0000 0.02665  0.17762  0.16169  Biso   1.000  C
  C387     1.0000 0.18749  0.99781  0.18061  Biso   1.000  C
  C388     1.0000 0.72336  0.14958  0.51159  Biso   1.000  C
  C389     1.0000 0.54077  0.17233  0.36260  Biso   1.000  C
  C390     1.0000 0.69351  0.00037  0.32983  Biso   1.000  C
  C391     1.0000 0.36424  0.65763  0.00429  Biso   1.000  C
  C392     1.0000 0.54901  0.66606  0.15743  Biso   1.000  C
  C393     1.0000 0.39195  0.49349  0.19703  Biso   1.000  C
  C394     1.0000 0.85617  0.64762  0.49802  Biso   1.000  C
  C395     1.0000 0.04753  0.67248  0.35373  Biso   1.000  C
  C396     1.0000 0.89142  0.49428  0.32270  Biso   1.000  C
  C397     1.0000 0.86695  0.83359  0.01677  Biso   1.000  C
  C398     1.0000 0.05361  0.81857  0.85407  Biso   1.000  C
  C399     1.0000 0.88460  0.96759  0.82861  Biso   1.000  C
  C400     1.0000 0.35395  0.84691  0.50428  Biso   1.000  C
  C401     1.0000 0.53669  0.81586  0.65131  Biso   1.000  C
  C402     1.0000 0.38488  0.00244  0.68288  Biso   1.000  C
  C403     1.0000 0.70514  0.33038  0.01690  Biso   1.000  C
  C404     1.0000 0.53251  0.31377  0.85897  Biso   1.000  C
  C405     1.0000 0.67975  0.51389  0.82597  Biso   1.000  C
  C406     1.0000 0.22424  0.34867  0.52254  Biso   1.000  C
  C407     1.0000 0.03639  0.31731  0.66432  Biso   1.000  C
  C408     1.0000 0.18712  0.50081  0.69653  Biso   1.000  C
  C409     1.0000 0.18041  0.00701  0.81695  Biso   1.000  C
  C410     1.0000 0.84816  0.13174  0.00411  Biso   1.000  C
  C411     1.0000 0.04834  0.81769  0.15588  Biso   1.000  C
  C412     1.0000 0.68241  0.97570  0.69241  Biso   1.000  C
  C413     1.0000 0.35873  0.14243  0.50852  Biso   1.000  C
  C414     1.0000 0.52806  0.81144  0.35126  Biso   1.000  C
  C415     1.0000 0.38628  0.48172  0.83330  Biso   1.000  C
  C416     1.0000 0.73010  0.63049  0.00177  Biso   1.000  C
  C417     1.0000 0.52973  0.30510  0.15586  Biso   1.000  C
  C418     1.0000 0.88959  0.50542  0.69332  Biso   1.000  C
  C419     1.0000 0.21869  0.64705  0.51477  Biso   1.000  C
  C420     1.0000 0.03992  0.31189  0.36500  Biso   1.000  C
  C421     1.0000 0.89075  0.00766  0.19323  Biso   1.000  C
  C422     1.0000 0.22996  0.86308  0.99959  Biso   1.000  C
  C423     1.0000 0.02386  0.17685  0.86140  Biso   1.000  C
  C424     1.0000 0.39273  0.99934  0.31347  Biso   1.000  C
  C425     1.0000 0.71823  0.84698  0.50781  Biso   1.000  C
  C426     1.0000 0.54757  0.17600  0.65891  Biso   1.000  C
  C427     1.0000 0.69029  0.49272  0.18703  Biso   1.000  C
  C428     1.0000 0.34747  0.36122  0.01623  Biso   1.000  C
  C429     1.0000 0.53857  0.67888  0.85799  Biso   1.000  C
  C430     1.0000 0.19359  0.49177  0.33251  Biso   1.000  C
  C431     1.0000 0.86020  0.35193  0.50615  Biso   1.000  C
  C432     1.0000 0.03258  0.68081  0.65302  Biso   1.000  C
  C433     1.0000 0.01458  0.14438  0.82682  Biso   1.000  C
  C434     1.0000 0.85769  0.00700  0.16042  Biso   1.000  C
  C435     1.0000 0.19908  0.82842  0.00321  Biso   1.000  C
  C436     1.0000 0.54240  0.14163  0.68927  Biso   1.000  C
  C437     1.0000 0.35961  0.99874  0.34610  Biso   1.000  C
  C438     1.0000 0.68444  0.81511  0.50296  Biso   1.000  C
  C439     1.0000 0.53844  0.64484  0.82539  Biso   1.000  C
  C440     1.0000 0.72310  0.48322  0.15489  Biso   1.000  C
  C441     1.0000 0.37590  0.32535  0.01337  Biso   1.000  C
  C442     1.0000 0.03889  0.65050  0.68764  Biso   1.000  C
  C443     1.0000 0.22401  0.49561  0.36690  Biso   1.000  C
  C444     1.0000 0.89188  0.31683  0.50678  Biso   1.000  C
  C445     1.0000 0.03971  0.85055  0.18751  Biso   1.000  C
  C446     1.0000 0.21618  0.00340  0.84786  Biso   1.000  C
  C447     1.0000 0.87805  0.16544  0.00257  Biso   1.000  C
  C448     1.0000 0.54078  0.84300  0.31960  Biso   1.000  C
  C449     1.0000 0.71669  0.97917  0.66147  Biso   1.000  C
  C450     1.0000 0.39051  0.17533  0.51593  Biso   1.000  C
  C451     1.0000 0.53340  0.33794  0.18829  Biso   1.000  C
  C452     1.0000 0.35706  0.49343  0.86742  Biso   1.000  C
  C453     1.0000 0.69956  0.66239  0.00832  Biso   1.000  C
  C454     1.0000 0.03325  0.34489  0.33250  Biso   1.000  C
  C455     1.0000 0.85683  0.50799  0.66074  Biso   1.000  C
  C456     1.0000 0.18567  0.67865  0.51904  Biso   1.000  C
  C457     1.0000 0.04585  0.64135  0.31755  Biso   1.000  C
  C458     1.0000 0.35335  0.00238  0.64798  Biso   1.000  C
  C459     1.0000 0.67114  0.29906  0.01733  Biso   1.000  C
  C460     1.0000 0.55051  0.63353  0.19071  Biso   1.000  C
  C461     1.0000 0.85257  0.96597  0.86281  Biso   1.000  C
  C462     1.0000 0.19130  0.31556  0.52135  Biso   1.000  C
  C463     1.0000 0.54476  0.14078  0.32868  Biso   1.000  C
  C464     1.0000 0.21929  0.50483  0.66284  Biso   1.000  C
  C465     1.0000 0.90221  0.80234  0.01073  Biso   1.000  C
  C466     1.0000 0.03448  0.14393  0.19278  Biso   1.000  C
  C467     1.0000 0.71439  0.50696  0.85729  Biso   1.000  C
  C468     1.0000 0.38568  0.81447  0.50692  Biso   1.000  C
  C469     1.0000 0.03844  0.35110  0.69803  Biso   1.000  C
  C470     1.0000 0.72485  0.99951  0.36384  Biso   1.000  C
  C471     1.0000 0.40033  0.68578  0.99995  Biso   1.000  C
  C472     1.0000 0.53973  0.34603  0.82571  Biso   1.000  C
  C473     1.0000 0.21701  0.00880  0.14852  Biso   1.000  C
  C474     1.0000 0.88850  0.68146  0.49750  Biso   1.000  C
  C475     1.0000 0.53073  0.84574  0.68535  Biso   1.000  C
  C476     1.0000 0.86050  0.49663  0.35826  Biso   1.000  C
  C477     1.0000 0.17369  0.18756  0.02448  Biso   1.000  C
  C478     1.0000 0.04824  0.85214  0.82339  Biso   1.000  C
  C479     1.0000 0.35885  0.50028  0.16590  Biso   1.000  C
  C480     1.0000 0.68928  0.18026  0.51375  Biso   1.000  C
  C481     1.0000 0.40150  0.78843  0.51589  Biso   1.000  C
  C482     1.0000 0.54215  0.36010  0.79795  Biso   1.000  C
  C483     1.0000 0.83301  0.49787  0.37585  Biso   1.000  C
  C484     1.0000 0.92112  0.77734  0.00737  Biso   1.000  C
  C485     1.0000 0.03483  0.36769  0.72452  Biso   1.000  C
  C486     1.0000 0.33155  0.50511  0.15166  Biso   1.000  C
  C487     1.0000 0.17422  0.28875  0.52526  Biso   1.000  C
  C488     1.0000 0.04588  0.86831  0.79648  Biso   1.000  C
  C489     1.0000 0.75254  0.00438  0.38223  Biso   1.000  C
  C490     1.0000 0.65432  0.27292  0.02090  Biso   1.000  C
  C491     1.0000 0.53290  0.86011  0.71364  Biso   1.000  C
  C492     1.0000 0.24399  0.01570  0.13269  Biso   1.000  C
  C493     1.0000 0.67214  0.20747  0.51432  Biso   1.000  C
  C494     1.0000 0.55471  0.61820  0.21814  Biso   1.000  C
  C495     1.0000 0.24532  0.51108  0.64773  Biso   1.000  C
  C496     1.0000 0.15425  0.21134  0.03019  Biso   1.000  C
  C497     1.0000 0.04294  0.62480  0.29022  Biso   1.000  C
  C498     1.0000 0.74153  0.50060  0.87087  Biso   1.000  C
  C499     1.0000 0.90436  0.70866  0.49556  Biso   1.000  C
  C500     1.0000 0.03835  0.12655  0.21904  Biso   1.000  C
  C501     1.0000 0.32673  0.00205  0.63139  Biso   1.000  C
  C502     1.0000 0.41790  0.71121  0.99474  Biso   1.000  C
  C503     1.0000 0.54601  0.12475  0.30122  Biso   1.000  C
  C504     1.0000 0.82636  0.96652  0.87817  Biso   1.000  C
  C505     1.0000 0.66358  0.52342  0.79948  Biso   1.000  C
  C506     1.0000 0.82992  0.62971  0.49245  Biso   1.000  C
  C507     1.0000 0.53583  0.78924  0.63476  Biso   1.000  C
  C508     1.0000 0.17287  0.49853  0.72499  Biso   1.000  C
  C509     1.0000 0.33578  0.64501  0.00192  Biso   1.000  C
  C510     1.0000 0.05645  0.79050  0.86777  Biso   1.000  C
  C511     1.0000 0.90004  0.96934  0.80232  Biso   1.000  C
  C512     1.0000 0.74980  0.13340  0.51092  Biso   1.000  C
  C513     1.0000 0.03726  0.29118  0.64735  Biso   1.000  C
  C514     1.0000 0.39897  0.00577  0.71181  Biso   1.000  C
  C515     1.0000 0.23734  0.14538  0.01519  Biso   1.000  C
  C516     1.0000 0.53239  0.28663  0.87320  Biso   1.000  C
  C517     1.0000 0.40876  0.48377  0.22210  Biso   1.000  C
  C518     1.0000 0.25017  0.36530  0.52084  Biso   1.000  C
  C519     1.0000 0.53944  0.19954  0.37743  Biso   1.000  C
  C520     1.0000 0.90563  0.49561  0.29464  Biso   1.000  C
  C521     1.0000 0.73195  0.34321  0.00900  Biso   1.000  C
  C522     1.0000 0.02663  0.20425  0.14526  Biso   1.000  C
  C523     1.0000 0.17428  0.98946  0.20828  Biso   1.000  C
  C524     1.0000 0.32776  0.86364  0.49796  Biso   1.000  C
  C525     1.0000 0.04960  0.70003  0.37227  Biso   1.000  C
  C526     1.0000 0.67824  0.99738  0.30146  Biso   1.000  C
  C527     1.0000 0.83962  0.84639  0.02258  Biso   1.000  C
  C528     1.0000 0.54278  0.69356  0.14179  Biso   1.000  C
  C529     1.0000 0.82254  0.11326  0.00781  Biso   1.000  C
  C530     1.0000 0.05328  0.79081  0.13922  Biso   1.000  C
  C531     1.0000 0.16183  0.01134  0.79089  Biso   1.000  C
  C532     1.0000 0.33201  0.12616  0.50477  Biso   1.000  C
  C533     1.0000 0.52283  0.78474  0.36703  Biso   1.000  C
  C534     1.0000 0.66522  0.97212  0.71922  Biso   1.000  C
  C535     1.0000 0.75615  0.61454  0.99481  Biso   1.000  C
  C536     1.0000 0.51969  0.27969  0.13874  Biso   1.000  C
  C537     1.0000 0.40097  0.47290  0.80692  Biso   1.000  C
  C538     1.0000 0.24595  0.63036  0.50992  Biso   1.000  C
  C539     1.0000 0.04358  0.28513  0.38024  Biso   1.000  C
  C540     1.0000 0.90614  0.50997  0.71956  Biso   1.000  C
  C541     1.0000 0.25633  0.88180  0.99599  Biso   1.000  C
  C542     1.0000 0.03190  0.20265  0.87795  Biso   1.000  C
  C543     1.0000 0.90901  0.00701  0.22000  Biso   1.000  C
  C544     1.0000 0.74458  0.86417  0.51360  Biso   1.000  C
  C545     1.0000 0.55121  0.20319  0.64310  Biso   1.000  C
  C546     1.0000 0.41080  0.99858  0.28841  Biso   1.000  C
  C547     1.0000 0.32242  0.37932  0.02106  Biso   1.000  C
  C548     1.0000 0.54151  0.70700  0.87384  Biso   1.000  C
  C549     1.0000 0.67507  0.50011  0.21411  Biso   1.000  C
  C550     1.0000 0.83313  0.36667  0.50610  Biso   1.000  C
  C551     1.0000 0.03152  0.70686  0.63650  Biso   1.000  C
  C552     1.0000 0.17878  0.48883  0.30407  Biso   1.000  C
  C553     1.0000 0.00973  0.12918  0.79932  Biso   1.000  C
  C554     1.0000 0.83081  0.00831  0.14431  Biso   1.000  C
  C555     1.0000 0.18620  0.80043  0.00308  Biso   1.000  C
  C556     1.0000 0.54452  0.12477  0.71566  Biso   1.000  C
  C557     1.0000 0.33226  0.00201  0.36133  Biso   1.000  C
  C558     1.0000 0.66834  0.78841  0.50131  Biso   1.000  C
  C559     1.0000 0.53500  0.62635  0.79831  Biso   1.000  C
  C560     1.0000 0.74908  0.47335  0.13892  Biso   1.000  C
  C561     1.0000 0.38713  0.29708  0.00779  Biso   1.000  C
  C562     1.0000 0.03770  0.63521  0.71650  Biso   1.000  C
  C563     1.0000 0.24963  0.50074  0.38506  Biso   1.000  C
  C564     1.0000 0.90682  0.28961  0.50591  Biso   1.000  C
  C565     1.0000 0.03149  0.86778  0.21375  Biso   1.000  C
  C566     1.0000 0.24346  0.99515  0.86199  Biso   1.000  C
  C567     1.0000 0.89120  0.19376  0.00128  Biso   1.000  C
  C568     1.0000 0.54407  0.85900  0.29200  Biso   1.000  C
  C569     1.0000 0.74471  0.98194  0.64863  Biso   1.000  C
  C570     1.0000 0.40638  0.20208  0.52072  Biso   1.000  C
  C571     1.0000 0.53750  0.35413  0.21495  Biso   1.000  C
  C572     1.0000 0.33020  0.50299  0.88175  Biso   1.000  C
  C573     1.0000 0.68498  0.68899  0.01728  Biso   1.000  C
  C574     1.0000 0.02495  0.36014  0.30650  Biso   1.000  C
  C575     1.0000 0.82979  0.50495  0.64577  Biso   1.000  C
  C576     1.0000 0.16950  0.70483  0.52451  Biso   1.000  C
  C577     1.0000 0.33198  0.51017  0.12052  Biso   1.000  C
  C578     1.0000 0.14322  0.28895  0.52382  Biso   1.000  C
  C579     1.0000 0.54617  0.09317  0.30265  Biso   1.000  C
  C580     1.0000 0.83278  0.49651  0.40735  Biso   1.000  C
  C581     1.0000 0.62374  0.27392  0.02013  Biso   1.000  C
  C582     1.0000 0.04352  0.09536  0.21701  Biso   1.000  C
  C583     1.0000 0.24437  0.01862  0.10069  Biso   1.000  C
  C584     1.0000 0.43377  0.78959  0.51415  Biso   1.000  C
  C585     1.0000 0.04428  0.59408  0.29095  Biso   1.000  C
  C586     1.0000 0.75077  0.00442  0.41298  Biso   1.000  C
  C587     1.0000 0.95186  0.78002  0.00498  Biso   1.000  C
  C588     1.0000 0.55245  0.58714  0.21882  Biso   1.000  C
  C589     1.0000 0.74155  0.49317  0.90190  Biso   1.000  C
  C590     1.0000 0.93521  0.70846  0.49924  Biso   1.000  C
  C591     1.0000 0.53318  0.89199  0.71500  Biso   1.000  C
  C592     1.0000 0.24170  0.51344  0.61574  Biso   1.000  C
  C593     1.0000 0.44955  0.71033  0.99769  Biso   1.000  C
  C594     1.0000 0.04273  0.90000  0.79797  Biso   1.000  C
  C595     1.0000 0.82624  0.96545  0.90958  Biso   1.000  C
  C596     1.0000 0.64052  0.20505  0.51481  Biso   1.000  C
  C597     1.0000 0.03623  0.39877  0.72441  Biso   1.000  C
  C598     1.0000 0.32819  0.00138  0.59944  Biso   1.000  C
  C599     1.0000 0.12379  0.20763  0.02474  Biso   1.000  C
  C600     1.0000 0.54288  0.39068  0.79727  Biso   1.000  C
  C601     1.0000 0.24536  0.99671  0.89351  Biso   1.000  C
  C602     1.0000 0.92093  0.19674  0.99859  Biso   1.000  C
  C603     1.0000 0.02834  0.89892  0.21108  Biso   1.000  C
  C604     1.0000 0.74616  0.98926  0.61744  Biso   1.000  C
  C605     1.0000 0.43778  0.20281  0.51926  Biso   1.000  C
  C606     1.0000 0.54720  0.88983  0.29453  Biso   1.000  C
  C607     1.0000 0.33109  0.50682  0.91298  Biso   1.000  C
  C608     1.0000 0.65432  0.69182  0.02073  Biso   1.000  C
  C609     1.0000 0.54024  0.38579  0.21363  Biso   1.000  C
  C610     1.0000 0.82534  0.50301  0.61405  Biso   1.000  C
  C611     1.0000 0.13725  0.70445  0.52465  Biso   1.000  C
  C612     1.0000 0.02180  0.39139  0.30734  Biso   1.000  C
  C613     1.0000 0.83032  0.00241  0.11284  Biso   1.000  C
  C614     1.0000 0.15496  0.79798  0.00450  Biso   1.000  C
  C615     1.0000 0.00398  0.09689  0.80106  Biso   1.000  C
  C616     1.0000 0.33201  0.00353  0.39290  Biso   1.000  C
  C617     1.0000 0.63677  0.78983  0.49856  Biso   1.000  C
  C618     1.0000 0.53980  0.09446  0.71534  Biso   1.000  C
  C619     1.0000 0.75008  0.47338  0.10772  Biso   1.000  C
  C620     1.0000 0.41765  0.29361  0.00384  Biso   1.000  C
  C621     1.0000 0.53152  0.59490  0.79935  Biso   1.000  C
  C622     1.0000 0.24637  0.50138  0.41688  Biso   1.000  C
  C623     1.0000 0.93819  0.29156  0.50866  Biso   1.000  C
  C624     1.0000 0.03989  0.60432  0.71787  Biso   1.000  C
  C625     1.0000 0.03225  0.20372  0.90902  Biso   1.000  C
  C626     1.0000 0.93892  0.00701  0.21755  Biso   1.000  C
  C627     1.0000 0.25168  0.91274  0.99499  Biso   1.000  C
  C628     1.0000 0.55119  0.20435  0.61152  Biso   1.000  C
  C629     1.0000 0.44296  0.99540  0.29097  Biso   1.000  C
  C630     1.0000 0.74453  0.89568  0.51327  Biso   1.000  C
  C631     1.0000 0.54568  0.70746  0.90605  Biso   1.000  C
  C632     1.0000 0.64324  0.50182  0.21243  Biso   1.000  C
  C633     1.0000 0.32470  0.41027  0.01721  Biso   1.000  C
  C634     1.0000 0.03202  0.70588  0.60562  Biso   1.000  C
  C635     1.0000 0.14792  0.48438  0.30267  Biso   1.000  C
  C636     1.0000 0.83410  0.39771  0.50640  Biso   1.000  C
  C637     1.0000 0.05220  0.79164  0.10665  Biso   1.000  C
  C638     1.0000 0.13030  0.01275  0.79396  Biso   1.000  C
  C639     1.0000 0.82350  0.08135  0.00655  Biso   1.000  C
  C640     1.0000 0.52277  0.78485  0.39843  Biso   1.000  C
  C641     1.0000 0.63342  0.97767  0.71750  Biso   1.000  C
  C642     1.0000 0.33171  0.09523  0.50086  Biso   1.000  C
  C643     1.0000 0.51621  0.28182  0.10750  Biso   1.000  C
  C644     1.0000 0.43195  0.46967  0.80720  Biso   1.000  C
  C645     1.0000 0.75635  0.58285  0.99169  Biso   1.000  C
  C646     1.0000 0.04480  0.28567  0.41189  Biso   1.000  C
  C647     1.0000 0.93664  0.50895  0.71702  Biso   1.000  C
  C648     1.0000 0.24616  0.59859  0.50953  Biso   1.000  C
  C649     1.0000 0.04940  0.69766  0.40325  Biso   1.000  C
  C650     1.0000 0.43170  0.00547  0.71290  Biso   1.000  C
  C651     1.0000 0.73322  0.37459  0.00703  Biso   1.000  C
  C652     1.0000 0.54298  0.69335  0.11038  Biso   1.000  C
  C653     1.0000 0.93184  0.97384  0.80203  Biso   1.000  C
  C654     1.0000 0.24762  0.39700  0.52165  Biso   1.000  C
  C655     1.0000 0.53746  0.20024  0.40949  Biso   1.000  C
  C656     1.0000 0.14167  0.49940  0.72494  Biso   1.000  C
  C657     1.0000 0.83610  0.87777  0.02249  Biso   1.000  C
  C658     1.0000 0.02316  0.20331  0.11359  Biso   1.000  C
  C659     1.0000 0.63208  0.52280  0.80021  Biso   1.000  C
  C660     1.0000 0.32794  0.89575  0.49513  Biso   1.000  C
  C661     1.0000 0.03258  0.29128  0.61678  Biso   1.000  C
  C662     1.0000 0.64624  0.99202  0.30080  Biso   1.000  C
  C663     1.0000 0.33315  0.61411  0.00439  Biso   1.000  C
  C664     1.0000 0.52904  0.28827  0.90446  Biso   1.000  C
  C665     1.0000 0.14276  0.98861  0.20953  Biso   1.000  C
  C666     1.0000 0.83077  0.59813  0.49419  Biso   1.000  C
  C667     1.0000 0.53578  0.79009  0.60296  Biso   1.000  C
  C668     1.0000 0.93720  0.49687  0.29434  Biso   1.000  C
  C669     1.0000 0.24000  0.11499  0.00727  Biso   1.000  C
  C670     1.0000 0.05856  0.79105  0.89938  Biso   1.000  C
  C671     1.0000 0.44008  0.47907  0.21856  Biso   1.000  C
  C672     1.0000 0.74948  0.10184  0.51630  Biso   1.000  C
  C673     1.0000 0.22577  0.00066  0.80042  Biso   1.000  C
  C674     1.0000 0.83090  0.17679  0.00885  Biso   1.000  C
  C675     1.0000 0.04380  0.80422  0.20235  Biso   1.000  C
  C676     1.0000 0.73174  0.97049  0.70587  Biso   1.000  C
  C677     1.0000 0.34427  0.18852  0.51642  Biso   1.000  C
  C678     1.0000 0.53647  0.79715  0.30500  Biso   1.000  C
  C679     1.0000 0.33978  0.49199  0.82237  Biso   1.000  C
  C680     1.0000 0.74560  0.67642  0.00684  Biso   1.000  C
  C681     1.0000 0.52962  0.29254  0.20149  Biso   1.000  C
  C682     1.0000 0.84243  0.51229  0.70760  Biso   1.000  C
  C683     1.0000 0.23231  0.69381  0.51768  Biso   1.000  C
  C684     1.0000 0.03253  0.29857  0.31826  Biso   1.000  C
  C685     1.0000 0.84419  0.01232  0.20666  Biso   1.000  C
  C686     1.0000 0.24606  0.81580  0.00000  Biso   1.000  C
  C687     1.0000 0.02144  0.18999  0.81455  Biso   1.000  C
  C688     1.0000 0.34366  0.99429  0.30060  Biso   1.000  C
  C689     1.0000 0.73183  0.80210  0.50192  Biso   1.000  C
  C690     1.0000 0.54436  0.18793  0.70568  Biso   1.000  C
  C691     1.0000 0.73651  0.48529  0.20198  Biso   1.000  C
  C692     1.0000 0.32825  0.31649  0.02049  Biso   1.000  C
  C693     1.0000 0.54012  0.69050  0.81043  Biso   1.000  C
  C694     1.0000 0.23951  0.49723  0.32034  Biso   1.000  C
  C695     1.0000 0.84484  0.30513  0.50783  Biso   1.000  C
  C696     1.0000 0.04098  0.69720  0.70027  Biso   1.000  C
  C697     1.0000 0.74130  0.00684  0.31677  Biso   1.000  C
  C698     1.0000 0.35323  0.70384  0.00015  Biso   1.000  C
  C699     1.0000 0.03341  0.30469  0.71108  Biso   1.000  C
  C700     1.0000 0.23567  0.99924  0.19272  Biso   1.000  C
  C701     1.0000 0.83986  0.69395  0.49632  Biso   1.000  C
  C702     1.0000 0.53602  0.29893  0.81213  Biso   1.000  C
  C703     1.0000 0.84390  0.49217  0.31171  Biso   1.000  C
  C704     1.0000 0.21887  0.20674  0.02355  Biso   1.000  C
  C705     1.0000 0.53507  0.79816  0.69786  Biso   1.000  C
  C706     1.0000 0.34693  0.49922  0.21295  Biso   1.000  C
  C707     1.0000 0.73714  0.19482  0.51536  Biso   1.000  C
  C708     1.0000 0.04915  0.80539  0.80916  Biso   1.000  C
  C709     1.0000 0.33728  0.00081  0.69505  Biso   1.000  C
  C710     1.0000 0.71868  0.28428  0.01682  Biso   1.000  C
  C711     1.0000 0.04742  0.68854  0.30650  Biso   1.000  C
  C712     1.0000 0.83767  0.96233  0.81723  Biso   1.000  C
  C713     1.0000 0.23924  0.30290  0.52297  Biso   1.000  C
  C714     1.0000 0.54792  0.68047  0.20248  Biso   1.000  C
  C715     1.0000 0.23472  0.50097  0.71004  Biso   1.000  C
  C716     1.0000 0.85589  0.78574  0.01170  Biso   1.000  C
  C717     1.0000 0.53839  0.18697  0.31552  Biso   1.000  C
  C718     1.0000 0.72662  0.51499  0.80949  Biso   1.000  C
  C719     1.0000 0.33986  0.80051  0.50914  Biso   1.000  C
  C720     1.0000 0.02907  0.19006  0.20928  Biso   1.000  C
  C721     1.0000 0.55818  0.79794  0.28221  Biso   1.000  C
  C722     1.0000 0.34563  0.50487  0.79427  Biso   1.000  C
  C723     1.0000 0.81934  0.30928  0.52607  Biso   1.000  C
  C724     1.0000 0.03167  0.77500  0.19579  Biso   1.000  C
  C725     1.0000 0.81590  0.53018  0.70128  Biso   1.000  C
  C726     1.0000 0.29918  0.32186  0.00942  Biso   1.000  C
  C727     1.0000 0.01885  0.27033  0.32443  Biso   1.000  C
  C728     1.0000 0.25263  0.01630  0.80349  Biso   1.000  C
  C729     1.0000 0.75497  0.80091  0.52483  Biso   1.000  C
  C730     1.0000 0.51104  0.29489  0.22695  Biso   1.000  C
  C731     1.0000 0.75784  0.95109  0.70236  Biso   1.000  C
  C732     1.0000 0.26896  0.81621  0.97923  Biso   1.000  C
  C733     1.0000 0.52390  0.18463  0.72998  Biso   1.000  C
  C734     1.0000 0.73016  0.47373  0.23192  Biso   1.000  C
  C735     1.0000 0.22857  0.72076  0.50300  Biso   1.000  C
  C736     1.0000 0.01218  0.21985  0.81907  Biso   1.000  C
  C737     1.0000 0.26760  0.48383  0.32542  Biso   1.000  C
  C738     1.0000 0.77011  0.67055  0.02678  Biso   1.000  C
  C739     1.0000 0.05819  0.69209  0.72766  Biso   1.000  C
  C740     1.0000 0.81964  0.99233  0.20743  Biso   1.000  C
  C741     1.0000 0.31755  0.18739  0.50025  Biso   1.000  C
  C742     1.0000 0.55446  0.68616  0.78174  Biso   1.000  C
  C743     1.0000 0.31640  0.97794  0.30512  Biso   1.000  C
  C744     1.0000 0.83647  0.20385  0.02585  Biso   1.000  C
  C745     1.0000 0.06806  0.71280  0.30861  Biso   1.000  C
  C746     1.0000 0.31099  0.01734  0.69136  Biso   1.000  C
  C747     1.0000 0.74570  0.29043  0.03117  Biso   1.000  C
  C748     1.0000 0.56095  0.71070  0.19783  Biso   1.000  C
  C749     1.0000 0.83967  0.94301  0.79265  Biso   1.000  C
  C750     1.0000 0.26779  0.30493  0.53624  Biso   1.000  C
  C751     1.0000 0.55881  0.18873  0.29123  Biso   1.000  C
  C752     1.0000 0.26133  0.48161  0.70798  Biso   1.000  C
  C753     1.0000 0.82692  0.78886  0.99616  Biso   1.000  C
  C754     1.0000 0.04529  0.18708  0.23645  Biso   1.000  C
  C755     1.0000 0.72308  0.50118  0.78009  Biso   1.000  C
  C756     1.0000 0.31371  0.80840  0.52319  Biso   1.000  C
  C757     1.0000 0.01275  0.28142  0.70833  Biso   1.000  C
  C758     1.0000 0.73432  0.02140  0.28848  Biso   1.000  C
  C759     1.0000 0.32706  0.70334  0.01837  Biso   1.000  C
  C760     1.0000 0.55949  0.29824  0.79324  Biso   1.000  C
  C761     1.0000 0.25537  0.02349  0.19801  Biso   1.000  C
  C762     1.0000 0.84060  0.72084  0.48101  Biso   1.000  C
  C763     1.0000 0.51950  0.80151  0.72517  Biso   1.000  C
  C764     1.0000 0.81946  0.51097  0.31217  Biso   1.000  C
  C765     1.0000 0.24697  0.20420  0.03835  Biso   1.000  C
  C766     1.0000 0.02450  0.80568  0.78782  Biso   1.000  C
  C767     1.0000 0.35313  0.51245  0.24058  Biso   1.000  C
  C768     1.0000 0.73390  0.22261  0.50221  Biso   1.000  C
  C769     1.0000 0.52328  0.71743  0.81395  Biso   1.000  C
  C770     1.0000 0.84263  0.50035  0.73647  Biso   1.000  C
  C771     1.0000 0.72812  0.77798  0.48056  Biso   1.000  C
  C772     1.0000 0.02438  0.72543  0.69862  Biso   1.000  C
  C773     1.0000 0.31027  0.48261  0.82697  Biso   1.000  C
  C774     1.0000 0.24399  0.79137  0.01983  Biso   1.000  C
  C775     1.0000 0.03211  0.18387  0.78498  Biso   1.000  C
  C776     1.0000 0.72794  0.98225  0.73569  Biso   1.000  C
  C777     1.0000 0.84783  0.27709  0.49334  Biso   1.000  C
  C778     1.0000 0.56312  0.21363  0.70532  Biso   1.000  C
  C779     1.0000 0.22184  0.98225  0.77336  Biso   1.000  C
  C780     1.0000 0.33202  0.28954  0.03604  Biso   1.000  C
  C781     1.0000 0.54606  0.26609  0.19904  Biso   1.000  C
  C782     1.0000 0.23675  0.51528  0.29421  Biso   1.000  C
  C783     1.0000 0.34565  0.21058  0.53920  Biso   1.000  C
  C784     1.0000 0.04126  0.30311  0.28844  Biso   1.000  C
  C785     1.0000 0.76693  0.49407  0.19637  Biso   1.000  C
  C786     1.0000 0.80137  0.17290  0.99671  Biso   1.000  C
  C787     1.0000 0.05740  0.80840  0.23139  Biso   1.000  C
  C788     1.0000 0.34676  0.01133  0.27506  Biso   1.000  C
  C789     1.0000 0.25913  0.68909  0.53607  Biso   1.000  C
  C790     1.0000 0.51329  0.77458  0.30193  Biso   1.000  C
  C791     1.0000 0.84854  0.03238  0.23069  Biso   1.000  C
  C792     1.0000 0.74452  0.70250  0.99003  Biso   1.000  C
  C793     1.0000 0.51646  0.20772  0.31367  Biso   1.000  C
  C794     1.0000 0.31802  0.48704  0.20907  Biso   1.000  C
  C795     1.0000 0.23258  0.27420  0.51109  Biso   1.000  C
  C796     1.0000 0.01018  0.21490  0.20590  Biso   1.000  C
  C797     1.0000 0.84668  0.46988  0.28861  Biso   1.000  C
  C798     1.0000 0.71326  0.25574  0.00408  Biso   1.000  C
  C799     1.0000 0.02707  0.68886  0.28265  Biso   1.000  C
  C800     1.0000 0.23813  0.97371  0.20857  Biso   1.000  C
  C801     1.0000 0.34309  0.77007  0.50018  Biso   1.000  C
  C802     1.0000 0.53302  0.67743  0.23084  Biso   1.000  C
  C803     1.0000 0.77028  0.99857  0.32058  Biso   1.000  C
  C804     1.0000 0.86133  0.75686  0.02588  Biso   1.000  C
  C805     1.0000 0.55019  0.77038  0.69439  Biso   1.000  C
  C806     1.0000 0.75407  0.52813  0.81517  Biso   1.000  C
  C807     1.0000 0.81349  0.68959  0.51511  Biso   1.000  C
  C808     1.0000 0.07106  0.78278  0.80702  Biso   1.000  C
  C809     1.0000 0.22984  0.51771  0.73767  Biso   1.000  C
  C810     1.0000 0.35473  0.72746  0.97920  Biso   1.000  C
  C811     1.0000 0.05187  0.30389  0.73629  Biso   1.000  C
  C812     1.0000 0.81267  0.98236  0.81898  Biso   1.000  C
  C813     1.0000 0.76373  0.19054  0.53197  Biso   1.000  C
  C814     1.0000 0.51264  0.27666  0.81096  Biso   1.000  C
  C815     1.0000 0.34059  0.98508  0.72297  Biso   1.000  C
  C816     1.0000 0.21179  0.23415  0.01077  Biso   1.000  C
  C817     1.0000 0.01777  0.24156  0.80015  Biso   1.000  C
  C818     1.0000 0.79939  0.99480  0.23006  Biso   1.000  C
  C819     1.0000 0.28821  0.79434  0.97915  Biso   1.000  C
  C820     1.0000 0.52225  0.20893  0.74952  Biso   1.000  C
  C821     1.0000 0.29594  0.97607  0.28357  Biso   1.000  C
  C822     1.0000 0.77430  0.77850  0.52300  Biso   1.000  C
  C823     1.0000 0.54932  0.70585  0.76154  Biso   1.000  C
  C824     1.0000 0.75190  0.47436  0.25392  Biso   1.000  C
  C825     1.0000 0.27808  0.30127  0.01015  Biso   1.000  C
  C826     1.0000 0.05922  0.71258  0.74942  Biso   1.000  C
  C827     1.0000 0.28906  0.48835  0.30591  Biso   1.000  C
  C828     1.0000 0.79877  0.28802  0.52754  Biso   1.000  C
  C829     1.0000 0.03375  0.75291  0.21589  Biso   1.000  C
  C830     1.0000 0.27375  0.01234  0.78154  Biso   1.000  C
  C831     1.0000 0.81397  0.22419  0.02901  Biso   1.000  C
  C832     1.0000 0.55937  0.77376  0.26375  Biso   1.000  C
  C833     1.0000 0.77791  0.94795  0.72517  Biso   1.000  C
  C834     1.0000 0.29551  0.20809  0.50474  Biso   1.000  C
  C835     1.0000 0.51073  0.27318  0.24865  Biso   1.000  C
  C836     1.0000 0.32489  0.50613  0.77235  Biso   1.000  C
  C837     1.0000 0.79263  0.69091  0.02877  Biso   1.000  C
  C838     1.0000 0.01571  0.24913  0.30253  Biso   1.000  C
  C839     1.0000 0.79286  0.52958  0.72012  Biso   1.000  C
  C840     1.0000 0.24999  0.74140  0.50614  Biso   1.000  C
  C841     1.0000 0.24345  0.97911  0.75331  Biso   1.000  C
  C842     1.0000 0.78036  0.19305  0.00167  Biso   1.000  C
  C843     1.0000 0.05661  0.78574  0.25144  Biso   1.000  C
  C844     1.0000 0.74666  0.97389  0.75801  Biso   1.000  C
  C845     1.0000 0.32385  0.23085  0.54206  Biso   1.000  C
  C846     1.0000 0.51579  0.75203  0.28287  Biso   1.000  C
  C847     1.0000 0.28864  0.48626  0.80511  Biso   1.000  C
  C848     1.0000 0.76882  0.72011  0.99267  Biso   1.000  C
  C849     1.0000 0.54494  0.24657  0.22127  Biso   1.000  C
  C850     1.0000 0.81987  0.50158  0.75657  Biso   1.000  C
  C851     1.0000 0.27913  0.71098  0.53851  Biso   1.000  C
  C852     1.0000 0.03505  0.28357  0.26715  Biso   1.000  C
  C853     1.0000 0.82809  0.03371  0.25321  Biso   1.000  C
  C854     1.0000 0.26341  0.76783  0.01645  Biso   1.000  C
  C855     1.0000 0.03530  0.20686  0.76551  Biso   1.000  C
  C856     1.0000 0.32419  0.00930  0.25489  Biso   1.000  C
  C857     1.0000 0.74895  0.75570  0.48280  Biso   1.000  C
  C858     1.0000 0.56117  0.23675  0.72503  Biso   1.000  C
  C859     1.0000 0.78581  0.49522  0.22002  Biso   1.000  C
  C860     1.0000 0.31114  0.26979  0.03560  Biso   1.000  C
  C861     1.0000 0.52103  0.73869  0.79193  Biso   1.000  C
  C862     1.0000 0.25732  0.51602  0.27308  Biso   1.000  C
  C863     1.0000 0.82417  0.25718  0.49429  Biso   1.000  C
  C864     1.0000 0.02808  0.74571  0.72044  Biso   1.000  C
  C865     1.0000 0.74464  0.50165  0.75948  Biso   1.000  C
  C866     1.0000 0.81913  0.74186  0.48364  Biso   1.000  C
  C867     1.0000 0.51977  0.78048  0.74523  Biso   1.000  C
  C868     1.0000 0.28302  0.48500  0.72930  Biso   1.000  C
  C869     1.0000 0.30389  0.72171  0.01337  Biso   1.000  C
  C870     1.0000 0.02337  0.78172  0.76843  Biso   1.000  C
  C871     1.0000 0.81753  0.94134  0.77246  Biso   1.000  C
  C872     1.0000 0.75550  0.24321  0.50007  Biso   1.000  C
  C873     1.0000 0.01337  0.25765  0.72741  Biso   1.000  C
  C874     1.0000 0.28936  0.01420  0.71179  Biso   1.000  C
  C875     1.0000 0.26704  0.22575  0.03651  Biso   1.000  C
  C876     1.0000 0.56007  0.27829  0.77040  Biso   1.000  C
  C877     1.0000 0.33238  0.51118  0.26184  Biso   1.000  C
  C878     1.0000 0.28508  0.28058  0.53799  Biso   1.000  C
  C879     1.0000 0.55444  0.20851  0.26824  Biso   1.000  C
  C880     1.0000 0.79805  0.50687  0.29119  Biso   1.000  C
  C881     1.0000 0.76849  0.27044  0.02919  Biso   1.000  C
  C882     1.0000 0.04370  0.20939  0.25759  Biso   1.000  C
  C883     1.0000 0.27544  0.02084  0.22096  Biso   1.000  C
  C884     1.0000 0.29250  0.78702  0.52864  Biso   1.000  C
  C885     1.0000 0.06767  0.73382  0.28715  Biso   1.000  C
  C886     1.0000 0.75598  0.02688  0.26890  Biso   1.000  C
  C887     1.0000 0.80776  0.76650  0.99856  Biso   1.000  C
  C888     1.0000 0.55809  0.73226  0.21941  Biso   1.000  C
  C889     1.0000 0.79110  0.00112  0.29952  Biso   1.000  C
  C890     1.0000 0.33212  0.74716  0.97815  Biso   1.000  C
  C891     1.0000 0.04953  0.28205  0.75791  Biso   1.000  C
  C892     1.0000 0.25938  0.97041  0.23028  Biso   1.000  C
  C893     1.0000 0.79166  0.70974  0.51534  Biso   1.000  C
  C894     1.0000 0.51361  0.25750  0.78869  Biso   1.000  C
  C895     1.0000 0.82472  0.46786  0.26767  Biso   1.000  C
  C896     1.0000 0.23328  0.25551  0.00955  Biso   1.000  C
  C897     1.0000 0.54929  0.74829  0.71552  Biso   1.000  C
  C898     1.0000 0.29646  0.48989  0.22834  Biso   1.000  C
  C899     1.0000 0.78464  0.21224  0.52991  Biso   1.000  C
  C900     1.0000 0.06902  0.76314  0.78495  Biso   1.000  C
  C901     1.0000 0.31852  0.98216  0.74223  Biso   1.000  C
  C902     1.0000 0.73587  0.23552  0.00572  Biso   1.000  C
  C903     1.0000 0.02733  0.71075  0.26237  Biso   1.000  C
  C904     1.0000 0.79112  0.98021  0.79869  Biso   1.000  C
  C905     1.0000 0.25127  0.25113  0.51130  Biso   1.000  C
  C906     1.0000 0.53229  0.69906  0.25183  Biso   1.000  C
  C907     1.0000 0.25037  0.51660  0.75967  Biso   1.000  C
  C908     1.0000 0.84071  0.73556  0.02550  Biso   1.000  C
  C909     1.0000 0.51307  0.22766  0.29015  Biso   1.000  C
  C910     1.0000 0.77653  0.52873  0.79510  Biso   1.000  C
  C911     1.0000 0.32414  0.74892  0.50976  Biso   1.000  C
  C912     1.0000 0.00830  0.23568  0.22848  Biso   1.000  C
  C913     1.0000 0.79527  0.51589  0.74715  Biso   1.000  C
  C914     1.0000 0.77236  0.75777  0.50151  Biso   1.000  C
  C915     1.0000 0.53444  0.73249  0.76449  Biso   1.000  C
  C916     1.0000 0.29624  0.49645  0.77738  Biso   1.000  C
  C917     1.0000 0.28631  0.77033  0.99770  Biso   1.000  C
  C918     1.0000 0.04488  0.73847  0.74564  Biso   1.000  C
  C919     1.0000 0.77273  0.96149  0.75176  Biso   1.000  C
  C920     1.0000 0.80165  0.26181  0.51264  Biso   1.000  C
  C921     1.0000 0.02924  0.23612  0.77319  Biso   1.000  C
  C922     1.0000 0.26964  0.99374  0.75787  Biso   1.000  C
  C923     1.0000 0.28454  0.27385  0.02249  Biso   1.000  C
  C924     1.0000 0.53981  0.23351  0.74740  Biso   1.000  C
  C925     1.0000 0.28329  0.50228  0.27940  Biso   1.000  C
  C926     1.0000 0.29869  0.23048  0.52423  Biso   1.000  C
  C927     1.0000 0.52871  0.25029  0.24533  Biso   1.000  C
  C928     1.0000 0.77950  0.48490  0.24743  Biso   1.000  C
  C929     1.0000 0.78656  0.21960  0.01529  Biso   1.000  C
  C930     1.0000 0.02478  0.25640  0.27445  Biso   1.000  C
  C931     1.0000 0.29955  0.99237  0.25885  Biso   1.000  C
  C932     1.0000 0.27518  0.73542  0.52307  Biso   1.000  C
  C933     1.0000 0.04497  0.75837  0.24440  Biso   1.000  C
  C934     1.0000 0.80368  0.01627  0.24965  Biso   1.000  C
  C935     1.0000 0.79153  0.71652  0.01228  Biso   1.000  C
  C936     1.0000 0.53932  0.75147  0.26356  Biso   1.000  C
  C937     1.0000 0.76290  0.24279  0.01771  Biso   1.000  C
  C938     1.0000 0.04797  0.73289  0.26377  Biso   1.000  C
  C939     1.0000 0.29274  0.99562  0.73516  Biso   1.000  C
  C940     1.0000 0.27817  0.25425  0.52420  Biso   1.000  C
  C941     1.0000 0.54350  0.72644  0.24536  Biso   1.000  C
  C942     1.0000 0.79439  0.96041  0.77552  Biso   1.000  C
  C943     1.0000 0.81442  0.73946  0.01138  Biso   1.000  C
  C944     1.0000 0.53216  0.22754  0.26747  Biso   1.000  C
  C945     1.0000 0.27541  0.49928  0.75462  Biso   1.000  C
  C946     1.0000 0.29904  0.75711  0.52191  Biso   1.000  C
  C947     1.0000 0.02483  0.23290  0.25300  Biso   1.000  C
  C948     1.0000 0.77089  0.51457  0.76745  Biso   1.000  C
  C949     1.0000 0.30653  0.74460  0.99430  Biso   1.000  C
  C950     1.0000 0.03152  0.25875  0.75182  Biso   1.000  C
  C951     1.0000 0.78329  0.01545  0.27356  Biso   1.000  C
  C952     1.0000 0.79499  0.73585  0.50012  Biso   1.000  C
  C953     1.0000 0.53707  0.25854  0.76806  Biso   1.000  C
  C954     1.0000 0.27677  0.99404  0.23512  Biso   1.000  C
  C955     1.0000 0.26050  0.25194  0.02371  Biso   1.000  C
  C956     1.0000 0.53389  0.75432  0.74109  Biso   1.000  C
  C957     1.0000 0.80144  0.48572  0.27013  Biso   1.000  C
  C958     1.0000 0.78041  0.23839  0.51591  Biso   1.000  C
  C959     1.0000 0.04453  0.76097  0.76779  Biso   1.000  C
  C960     1.0000 0.30454  0.50197  0.25532  Biso   1.000  C
  Cu1      1.0000 0.03973  0.49931  0.66746  Biso   1.000  Cu
  Cu2      1.0000 0.69309  0.99813  0.51248  Biso   1.000  Cu
  Cu3      1.0000 0.54764  0.64676  0.00416  Biso   1.000  Cu
  Cu4      1.0000 0.53493  0.49254  0.85625  Biso   1.000  Cu
  Cu5      1.0000 0.19263  0.00948  0.99741  Biso   1.000  Cu
  Cu6      1.0000 0.03532  0.64707  0.50494  Biso   1.000  Cu
  Cu7      1.0000 0.53395  0.99411  0.66158  Biso   1.000  Cu
  Cu8      1.0000 0.88708  0.49921  0.51102  Biso   1.000  Cu
  Cu9      1.0000 0.02577  0.15059  0.01237  Biso   1.000  Cu
  Cu10     1.0000 0.03284  0.99736  0.85420  Biso   1.000  Cu
  Cu11     1.0000 0.38588  0.50895  0.01724  Biso   1.000  Cu
  Cu12     1.0000 0.54123  0.14894  0.50984  Biso   1.000  Cu
  Cu13     1.0000 0.03984  0.49478  0.35256  Biso   1.000  Cu
  Cu14     1.0000 0.38463  0.99523  0.50134  Biso   1.000  Cu
  Cu15     1.0000 0.52661  0.33571  0.00841  Biso   1.000  Cu
  Cu16     1.0000 0.54042  0.48585  0.16046  Biso   1.000  Cu
  Cu17     1.0000 0.88448  0.98328  0.01067  Biso   1.000  Cu
  Cu18     1.0000 0.04068  0.34556  0.51438  Biso   1.000  Cu
  Cu19     1.0000 0.54095  0.99098  0.35298  Biso   1.000  Cu
  Cu20     1.0000 0.18958  0.49698  0.51436  Biso   1.000  Cu
  Cu21     1.0000 0.04715  0.84505  0.00345  Biso   1.000  Cu
  Cu22     1.0000 0.03861  0.99750  0.15951  Biso   1.000  Cu
  Cu23     1.0000 0.69174  0.48504  0.00562  Biso   1.000  Cu
  Cu24     1.0000 0.53591  0.84651  0.50114  Biso   1.000  Cu
  Cu25     1.0000 0.24668  0.01343  0.99716  Biso   1.000  Cu
  Cu26     1.0000 0.02287  0.20473  0.01071  Biso   1.000  Cu
  Cu27     1.0000 0.03845  0.99634  0.21452  Biso   1.000  Cu
  Cu28     1.0000 0.74801  0.99635  0.51316  Biso   1.000  Cu
  Cu29     1.0000 0.54009  0.20277  0.50876  Biso   1.000  Cu
  Cu30     1.0000 0.54605  0.99147  0.29979  Biso   1.000  Cu
  Cu31     1.0000 0.33178  0.51073  0.01494  Biso   1.000  Cu
  Cu32     1.0000 0.55337  0.69946  0.01019  Biso   1.000  Cu
  Cu33     1.0000 0.54194  0.48627  0.21489  Biso   1.000  Cu
  Cu34     1.0000 0.83160  0.49865  0.50817  Biso   1.000  Cu
  Cu35     1.0000 0.03869  0.70144  0.50206  Biso   1.000  Cu
  Cu36     1.0000 0.04199  0.49100  0.29806  Biso   1.000  Cu
  Cu37     1.0000 0.83095  0.97978  0.01035  Biso   1.000  Cu
  Cu38     1.0000 0.05097  0.79176  0.00391  Biso   1.000  Cu
  Cu39     1.0000 0.03006  0.00047  0.80046  Biso   1.000  Cu
  Cu40     1.0000 0.32980  0.99655  0.49718  Biso   1.000  Cu
  Cu41     1.0000 0.53778  0.79057  0.50196  Biso   1.000  Cu
  Cu42     1.0000 0.53226  0.99427  0.71616  Biso   1.000  Cu
  Cu43     1.0000 0.74503  0.47734  0.00203  Biso   1.000  Cu
  Cu44     1.0000 0.52022  0.28306  0.00357  Biso   1.000  Cu
  Cu45     1.0000 0.53284  0.49606  0.80058  Biso   1.000  Cu
  Cu46     1.0000 0.24269  0.49890  0.51600  Biso   1.000  Cu
  Cu47     1.0000 0.03981  0.29137  0.51428  Biso   1.000  Cu
  Cu48     1.0000 0.03762  0.49988  0.72290  Biso   1.000  Cu
  H1       1.0000 0.27271  0.79443  0.53806  Biso   1.000  H
  H2       1.0000 0.57995  0.27675  0.75767  Biso   1.000  H
  H3       1.0000 0.77952  0.52246  0.29082  Biso   1.000  H
  H4       1.0000 0.78579  0.77154  0.98863  Biso   1.000  H
  H5       1.0000 0.00115  0.23805  0.72295  Biso   1.000  H
  H6       1.0000 0.33890  0.51845  0.28224  Biso   1.000  H
  H7       1.0000 0.30488  0.28495  0.55077  Biso   1.000  H
  H8       1.0000 0.00356  0.77590  0.75751  Biso   1.000  H
  H9       1.0000 0.75106  0.03687  0.24721  Biso   1.000  H
  H10      1.0000 0.79033  0.27899  0.03611  Biso   1.000  H
  H11      1.0000 0.50690  0.78180  0.76451  Biso   1.000  H
  H12      1.0000 0.28672  0.04165  0.22657  Biso   1.000  H
  H13      1.0000 0.75292  0.26370  0.48837  Biso   1.000  H
  H14      1.0000 0.56810  0.75278  0.21713  Biso   1.000  H
  H15      1.0000 0.30395  0.47476  0.72928  Biso   1.000  H
  H16      1.0000 0.28644  0.22238  0.04666  Biso   1.000  H
  H17      1.0000 0.08663  0.74893  0.29006  Biso   1.000  H
  H18      1.0000 0.74104  0.49267  0.73879  Biso   1.000  H
  H19      1.0000 0.82058  0.76372  0.47526  Biso   1.000  H
  H20      1.0000 0.05388  0.20771  0.27877  Biso   1.000  H
  H21      1.0000 0.26773  0.02443  0.71070  Biso   1.000  H
  H22      1.0000 0.28324  0.71864  0.02452  Biso   1.000  H
  H23      1.0000 0.57185  0.20976  0.25290  Biso   1.000  H
  H24      1.0000 0.82062  0.92541  0.75458  Biso   1.000  H
  H25      1.0000 0.29186  0.02661  0.78102  Biso   1.000  H
  H26      1.0000 0.81818  0.24238  0.04445  Biso   1.000  H
  H27      1.0000 0.02536  0.73185  0.20670  Biso   1.000  H
  H28      1.0000 0.79961  0.93832  0.71774  Biso   1.000  H
  H29      1.0000 0.27581  0.20424  0.49160  Biso   1.000  H
  H30      1.0000 0.57938  0.77306  0.25022  Biso   1.000  H
  H31      1.0000 0.33147  0.51835  0.75275  Biso   1.000  H
  H32      1.0000 0.81056  0.68699  0.04435  Biso   1.000  H
  H33      1.0000 0.49457  0.27600  0.26579  Biso   1.000  H
  H34      1.0000 0.77182  0.53669  0.71241  Biso   1.000  H
  H35      1.0000 0.25026  0.76315  0.49621  Biso   1.000  H
  H36      1.0000 0.00641  0.22749  0.30722  Biso   1.000  H
  H37      1.0000 0.78199  0.97925  0.23025  Biso   1.000  H
  H38      1.0000 0.30427  0.79473  0.96135  Biso   1.000  H
  H39      1.0000 0.01272  0.26282  0.80393  Biso   1.000  H
  H40      1.0000 0.27718  0.96181  0.28870  Biso   1.000  H
  H41      1.0000 0.79332  0.77538  0.53668  Biso   1.000  H
  H42      1.0000 0.50598  0.20593  0.76573  Biso   1.000  H
  H43      1.0000 0.74991  0.46650  0.27513  Biso   1.000  H
  H44      1.0000 0.25635  0.30511  0.00117  Biso   1.000  H
  H45      1.0000 0.55797  0.69918  0.73977  Biso   1.000  H
  H46      1.0000 0.31030  0.47893  0.31232  Biso   1.000  H
  H47      1.0000 0.77970  0.29184  0.54172  Biso   1.000  H
  H48      1.0000 0.07331  0.70970  0.76823  Biso   1.000  H
  H49      1.0000 0.25429  0.52795  0.25294  Biso   1.000  H
  H50      1.0000 0.33078  0.24765  0.55676  Biso   1.000  H
  H51      1.0000 0.55539  0.22626  0.21755  Biso   1.000  H
  H52      1.0000 0.80821  0.50241  0.21676  Biso   1.000  H
  H53      1.0000 0.75924  0.18858  0.99006  Biso   1.000  H
  H54      1.0000 0.04094  0.28796  0.24505  Biso   1.000  H
  H55      1.0000 0.32827  0.01952  0.23417  Biso   1.000  H
  H56      1.0000 0.29817  0.70910  0.55199  Biso   1.000  H
  H57      1.0000 0.06318  0.78813  0.27374  Biso   1.000  H
  H58      1.0000 0.83001  0.04717  0.27259  Biso   1.000  H
  H59      1.0000 0.77007  0.73573  0.97606  Biso   1.000  H
  H60      1.0000 0.49990  0.73410  0.28194  Biso   1.000  H
  H61      1.0000 0.81759  0.49069  0.77672  Biso   1.000  H
  H62      1.0000 0.74863  0.73664  0.46810  Biso   1.000  H
  H63      1.0000 0.50899  0.75815  0.79590  Biso   1.000  H
  H64      1.0000 0.26506  0.48323  0.80787  Biso   1.000  H
  H65      1.0000 0.25994  0.74959  0.03060  Biso   1.000  H
  H66      1.0000 0.01597  0.76497  0.71811  Biso   1.000  H
  H67      1.0000 0.73835  0.97772  0.77894  Biso   1.000  H
  H68      1.0000 0.82315  0.23856  0.47992  Biso   1.000  H
  H69      1.0000 0.04426  0.20251  0.74475  Biso   1.000  H
  H70      1.0000 0.24153  0.96575  0.73382  Biso   1.000  H
  H71      1.0000 0.31677  0.24777  0.04308  Biso   1.000  H
  H72      1.0000 0.57307  0.25637  0.72428  Biso   1.000  H
  H73      1.0000 0.79778  0.53718  0.79834  Biso   1.000  H
  H74      1.0000 0.77349  0.70732  0.53053  Biso   1.000  H
  H75      1.0000 0.55885  0.72747  0.70900  Biso   1.000  H
  H76      1.0000 0.24934  0.52663  0.78034  Biso   1.000  H
  H77      1.0000 0.33541  0.76641  0.96505  Biso   1.000  H
  H78      1.0000 0.08733  0.74790  0.78143  Biso   1.000  H
  H79      1.0000 0.77321  0.99500  0.80096  Biso   1.000  H
  H80      1.0000 0.80539  0.20780  0.54034  Biso   1.000  H
  H81      1.0000 0.06523  0.27972  0.77566  Biso   1.000  H
  H82      1.0000 0.31967  0.97004  0.76115  Biso   1.000  H
  H83      1.0000 0.22800  0.27551  0.99732  Biso   1.000  H
  H84      1.0000 0.49507  0.24329  0.78533  Biso   1.000  H
  H85      1.0000 0.27379  0.48314  0.22717  Biso   1.000  H
  H86      1.0000 0.24562  0.22982  0.50268  Biso   1.000  H
  H87      1.0000 0.49504  0.24152  0.28947  Biso   1.000  H
  H88      1.0000 0.82822  0.45274  0.24772  Biso   1.000  H
  H89      1.0000 0.73063  0.21551  0.99754  Biso   1.000  H
  H90      1.0000 0.99197  0.25185  0.22577  Biso   1.000  H
  H91      1.0000 0.26123  0.95046  0.24291  Biso   1.000  H
  H92      1.0000 0.32979  0.72611  0.51007  Biso   1.000  H
  H93      1.0000 0.01124  0.70878  0.24431  Biso   1.000  H
  H94      1.0000 0.81281  0.99343  0.30364  Biso   1.000  H
  H95      1.0000 0.84631  0.71355  0.03492  Biso   1.000  H
  H96      1.0000 0.52370  0.69494  0.27225  Biso   1.000  H
  H97      1.0000 0.90270  0.97622  0.91892  Biso   1.000  H
  H98      1.0000 0.95139  0.85692  0.00071  Biso   1.000  H
  H99      1.0000 0.04805  0.90981  0.87435  Biso   1.000  H
  H100     1.0000 0.40436  0.00197  0.59336  Biso   1.000  H
  H101     1.0000 0.44158  0.86495  0.49799  Biso   1.000  H
  H102     1.0000 0.52760  0.90884  0.64150  Biso   1.000  H
  H103     1.0000 0.66592  0.48715  0.91302  Biso   1.000  H
  H104     1.0000 0.61763  0.34968  0.02136  Biso   1.000  H
  H105     1.0000 0.53184  0.40730  0.87023  Biso   1.000  H
  H106     1.0000 0.16797  0.50145  0.60695  Biso   1.000  H
  H107     1.0000 0.13511  0.36264  0.51512  Biso   1.000  H
  H108     1.0000 0.04409  0.40863  0.64825  Biso   1.000  H
  H109     1.0000 0.17063  0.01643  0.09000  Biso   1.000  H
  H110     1.0000 0.12076  0.13336  0.01097  Biso   1.000  H
  H111     1.0000 0.04256  0.08911  0.13996  Biso   1.000  H
  H112     1.0000 0.67612  0.98952  0.42023  Biso   1.000  H
  H113     1.0000 0.63506  0.12844  0.51051  Biso   1.000  H
  H114     1.0000 0.54955  0.08277  0.37679  Biso   1.000  H
  H115     1.0000 0.40585  0.50258  0.10627  Biso   1.000  H
  H116     1.0000 0.45664  0.63654  0.01031  Biso   1.000  H
  H117     1.0000 0.54961  0.57258  0.14247  Biso   1.000  H
  H118     1.0000 0.90863  0.49507  0.41572  Biso   1.000  H
  H119     1.0000 0.94476  0.63375  0.50985  Biso   1.000  H
  H120     1.0000 0.04866  0.58551  0.36726  Biso   1.000  H
  H121     1.0000 0.12948  0.00880  0.87119  Biso   1.000  H
  H122     1.0000 0.89824  0.07723  0.99577  Biso   1.000  H
  H123     1.0000 0.04085  0.86677  0.09594  Biso   1.000  H
  H124     1.0000 0.62582  0.99002  0.64300  Biso   1.000  H
  H125     1.0000 0.40599  0.08566  0.49907  Biso   1.000  H
  H126     1.0000 0.53222  0.85946  0.41026  Biso   1.000  H
  H127     1.0000 0.44480  0.47945  0.88114  Biso   1.000  H
  H128     1.0000 0.68094  0.57252  0.99898  Biso   1.000  H
  H129     1.0000 0.53403  0.35339  0.10086  Biso   1.000  H
  H130     1.0000 0.94665  0.49643  0.64326  Biso   1.000  H
  H131     1.0000 0.16719  0.59091  0.51408  Biso   1.000  H
  H132     1.0000 0.04193  0.36156  0.42136  Biso   1.000  H
  H133     1.0000 0.94802  0.99916  0.14462  Biso   1.000  H
  H134     1.0000 0.17682  0.91906  0.00525  Biso   1.000  H
  H135     1.0000 0.01649  0.12921  0.91903  Biso   1.000  H
  H136     1.0000 0.44962  0.99938  0.36676  Biso   1.000  H
  H137     1.0000 0.66854  0.90247  0.50497  Biso   1.000  H
  H138     1.0000 0.53888  0.12844  0.60045  Biso   1.000  H
  H139     1.0000 0.63335  0.49144  0.13578  Biso   1.000  H
  H140     1.0000 0.39953  0.41259  0.00770  Biso   1.000  H
  H141     1.0000 0.54027  0.63081  0.91709  Biso   1.000  H
  H142     1.0000 0.13520  0.48643  0.37867  Biso   1.000  H
  H143     1.0000 0.90672  0.40907  0.50233  Biso   1.000  H
  H144     1.0000 0.03298  0.63002  0.59509  Biso   1.000  H
  H145     1.0000 0.62513  0.49909  0.87447  Biso   1.000  H
  H146     1.0000 0.90285  0.59032  0.51345  Biso   1.000  H
  H147     1.0000 0.53610  0.86464  0.59173  Biso   1.000  H
  H148     1.0000 0.12805  0.50384  0.64831  Biso   1.000  H
  H149     1.0000 0.40728  0.59780  0.00951  Biso   1.000  H
  H150     1.0000 0.05434  0.86395  0.91861  Biso   1.000  H
  H151     1.0000 0.94264  0.97855  0.87701  Biso   1.000  H
  H152     1.0000 0.67435  0.08958  0.51316  Biso   1.000  H
  H153     1.0000 0.03666  0.36590  0.60738  Biso   1.000  H
  H154     1.0000 0.44405  0.99410  0.63753  Biso   1.000  H
  H155     1.0000 0.16462  0.09819  0.00517  Biso   1.000  H
  H156     1.0000 0.52628  0.36196  0.91650  Biso   1.000  H
  H157     1.0000 0.44742  0.49389  0.14118  Biso   1.000  H
  H158     1.0000 0.17222  0.40486  0.52511  Biso   1.000  H
  H159     1.0000 0.54340  0.12441  0.41995  Biso   1.000  H
  H160     1.0000 0.94969  0.49722  0.37175  Biso   1.000  H
  H161     1.0000 0.66120  0.38927  0.01809  Biso   1.000  H
  H162     1.0000 0.01938  0.12651  0.10527  Biso   1.000  H
  H163     1.0000 0.12490  0.00662  0.13814  Biso   1.000  H
  H164     1.0000 0.40147  0.90466  0.50407  Biso   1.000  H
  H165     1.0000 0.04980  0.62294  0.41115  Biso   1.000  H
  H166     1.0000 0.63758  0.99728  0.37771  Biso   1.000  H
  H167     1.0000 0.90922  0.89689  0.01276  Biso   1.000  H
  H168     1.0000 0.54507  0.61991  0.09632  Biso   1.000  H
  H169     1.0000 0.00310  0.08700  0.87758  Biso   1.000  H
  H170     1.0000 0.90452  0.99899  0.10286  Biso   1.000  H
  H171     1.0000 0.13893  0.87415  0.00663  Biso   1.000  H
  H172     1.0000 0.53702  0.08648  0.63809  Biso   1.000  H
  H173     1.0000 0.40538  0.99690  0.40601  Biso   1.000  H
  H174     1.0000 0.62770  0.86496  0.50706  Biso   1.000  H
  H175     1.0000 0.53765  0.58882  0.87519  Biso   1.000  H
  H176     1.0000 0.67697  0.48667  0.09418  Biso   1.000  H
  H177     1.0000 0.43903  0.36647  0.00996  Biso   1.000  H
  H178     1.0000 0.04925  0.58806  0.64082  Biso   1.000  H
  H179     1.0000 0.17230  0.48707  0.42316  Biso   1.000  H
  H180     1.0000 0.94976  0.36632  0.50733  Biso   1.000  H
  H181     1.0000 0.03209  0.90432  0.13394  Biso   1.000  H
  H182     1.0000 0.17354  0.01559  0.90934  Biso   1.000  H
  H183     1.0000 0.93929  0.12359  0.99655  Biso   1.000  H
  H184     1.0000 0.54001  0.90194  0.36931  Biso   1.000  H
  H185     1.0000 0.67043  0.99292  0.60331  Biso   1.000  H
  H186     1.0000 0.44996  0.12905  0.50733  Biso   1.000  H
  H187     1.0000 0.54367  0.39688  0.13943  Biso   1.000  H
  H188     1.0000 0.40500  0.48957  0.92408  Biso   1.000  H
  H189     1.0000 0.63547  0.61864  0.00845  Biso   1.000  H
  H190     1.0000 0.03739  0.40341  0.38054  Biso   1.000  H
  H191     1.0000 0.90138  0.50405  0.60084  Biso   1.000  H
  H192     1.0000 0.13077  0.62695  0.51834  Biso   1.000  H
  H193     1.0000 0.30737  0.85401  0.49567  Biso   1.000  H
  H194     1.0000 0.53492  0.26514  0.86256  Biso   1.000  H
  H195     1.0000 0.89395  0.49551  0.27280  Biso   1.000  H
  H196     1.0000 0.82125  0.83391  0.02938  Biso   1.000  H
  H197     1.0000 0.03976  0.27184  0.66036  Biso   1.000  H
  H198     1.0000 0.39731  0.47722  0.24099  Biso   1.000  H
  H199     1.0000 0.27249  0.35648  0.51883  Biso   1.000  H
  H200     1.0000 0.05705  0.76970  0.85515  Biso   1.000  H
  H201     1.0000 0.68615  0.99860  0.27981  Biso   1.000  H
  H202     1.0000 0.75290  0.33391  0.00514  Biso   1.000  H
  H203     1.0000 0.53317  0.76825  0.64553  Biso   1.000  H
  H204     1.0000 0.18641  0.98344  0.22793  Biso   1.000  H
  H205     1.0000 0.77223  0.14285  0.50626  Biso   1.000  H
  H206     1.0000 0.53713  0.71242  0.15481  Biso   1.000  H
  H207     1.0000 0.18615  0.49764  0.74465  Biso   1.000  H
  H208     1.0000 0.25727  0.15689  0.01665  Biso   1.000  H
  H209     1.0000 0.04814  0.72130  0.36309  Biso   1.000  H
  H210     1.0000 0.67480  0.53177  0.78119  Biso   1.000  H
  H211     1.0000 0.80981  0.63952  0.48914  Biso   1.000  H
  H212     1.0000 0.02536  0.22540  0.15534  Biso   1.000  H
  H213     1.0000 0.38781  0.01081  0.73101  Biso   1.000  H
  H214     1.0000 0.31667  0.65910  0.00242  Biso   1.000  H
  H215     1.0000 0.53714  0.21873  0.36445  Biso   1.000  H
  H216     1.0000 0.88752  0.96841  0.78205  Biso   1.000  H
  H217     1.0000 0.27259  0.50571  0.37681  Biso   1.000  H
  H218     1.0000 0.39578  0.22185  0.52542  Biso   1.000  H
  H219     1.0000 0.54124  0.34376  0.23690  Biso   1.000  H
  H220     1.0000 0.76873  0.46895  0.15191  Biso   1.000  H
  H221     1.0000 0.87844  0.21373  0.00009  Biso   1.000  H
  H222     1.0000 0.01779  0.34982  0.28713  Biso   1.000  H
  H223     1.0000 0.31093  0.00586  0.35099  Biso   1.000  H
  H224     1.0000 0.18178  0.72538  0.52663  Biso   1.000  H
  H225     1.0000 0.02777  0.85821  0.23529  Biso   1.000  H
  H226     1.0000 0.81100  0.01428  0.15410  Biso   1.000  H
  H227     1.0000 0.69901  0.70683  0.02479  Biso   1.000  H
  H228     1.0000 0.54421  0.84780  0.27015  Biso   1.000  H
  H229     1.0000 0.80995  0.50138  0.65857  Biso   1.000  H
  H230     1.0000 0.67814  0.76596  0.50006  Biso   1.000  H
  H231     1.0000 0.53208  0.63628  0.77699  Biso   1.000  H
  H232     1.0000 0.31178  0.50797  0.86741  Biso   1.000  H
  H233     1.0000 0.19969  0.77921  0.00193  Biso   1.000  H
  H234     1.0000 0.03219  0.64630  0.73666  Biso   1.000  H
  H235     1.0000 0.76354  0.98282  0.66309  Biso   1.000  H
  H236     1.0000 0.89455  0.26929  0.50546  Biso   1.000  H
  H237     1.0000 0.00615  0.14100  0.77888  Biso   1.000  H
  H238     1.0000 0.26201  0.98618  0.85084  Biso   1.000  H
  H239     1.0000 0.37257  0.27773  0.00621  Biso   1.000  H
  H240     1.0000 0.54846  0.13363  0.73768  Biso   1.000  H
  H241     1.0000 0.76125  0.50298  0.85913  Biso   1.000  H
  H242     1.0000 0.89375  0.72950  0.49354  Biso   1.000  H
  H243     1.0000 0.53850  0.84862  0.73281  Biso   1.000  H
  H244     1.0000 0.26592  0.51430  0.65799  Biso   1.000  H
  H245     1.0000 0.40829  0.73202  0.99369  Biso   1.000  H
  H246     1.0000 0.04537  0.85988  0.77436  Biso   1.000  H
  H247     1.0000 0.80595  0.96844  0.86725  Biso   1.000  H
  H248     1.0000 0.68229  0.22874  0.51443  Biso   1.000  H
  H249     1.0000 0.03280  0.35560  0.74432  Biso   1.000  H
  H250     1.0000 0.30523  0.99859  0.63996  Biso   1.000  H
  H251     1.0000 0.16203  0.23300  0.03575  Biso   1.000  H
  H252     1.0000 0.54111  0.35060  0.77705  Biso   1.000  H
  H253     1.0000 0.31007  0.50704  0.16139  Biso   1.000  H
  H254     1.0000 0.18397  0.26813  0.53153  Biso   1.000  H
  H255     1.0000 0.54531  0.13481  0.28045  Biso   1.000  H
  H256     1.0000 0.81337  0.49777  0.36324  Biso   1.000  H
  H257     1.0000 0.66404  0.25044  0.02373  Biso   1.000  H
  H258     1.0000 0.03474  0.13588  0.24059  Biso   1.000  H
  H259     1.0000 0.26385  0.01278  0.14319  Biso   1.000  H
  H260     1.0000 0.39063  0.76808  0.52103  Biso   1.000  H
  H261     1.0000 0.04090  0.63817  0.27146  Biso   1.000  H
  H262     1.0000 0.77309  0.01078  0.37301  Biso   1.000  H
  H263     1.0000 0.91110  0.75595  0.00695  Biso   1.000  H
  H264     1.0000 0.55610  0.62926  0.23897  Biso   1.000  H
  H265     1.0000 0.03588  0.22212  0.86524  Biso   1.000  H
  H266     1.0000 0.89941  0.00560  0.24138  Biso   1.000  H
  H267     1.0000 0.27742  0.87172  0.99407  Biso   1.000  H
  H268     1.0000 0.55189  0.22401  0.65479  Biso   1.000  H
  H269     1.0000 0.40354  0.00243  0.26480  Biso   1.000  H
  H270     1.0000 0.76539  0.85449  0.51288  Biso   1.000  H
  H271     1.0000 0.54163  0.72909  0.86206  Biso   1.000  H
  H272     1.0000 0.68674  0.50376  0.23517  Biso   1.000  H
  H273     1.0000 0.30083  0.37144  0.02771  Biso   1.000  H
  H274     1.0000 0.03466  0.72865  0.64613  Biso   1.000  H
  H275     1.0000 0.19149  0.48663  0.28334  Biso   1.000  H
  H276     1.0000 0.81356  0.35494  0.50587  Biso   1.000  H
  H277     1.0000 0.05711  0.77177  0.15206  Biso   1.000  H
  H278     1.0000 0.17176  0.01310  0.77080  Biso   1.000  H
  H279     1.0000 0.80104  0.12192  0.01194  Biso   1.000  H
  H280     1.0000 0.52143  0.76505  0.35392  Biso   1.000  H
  H281     1.0000 0.67249  0.96505  0.74059  Biso   1.000  H
  H282     1.0000 0.30952  0.13492  0.50431  Biso   1.000  H
  H283     1.0000 0.51642  0.25856  0.14725  Biso   1.000  H
  H284     1.0000 0.38900  0.46905  0.78647  Biso   1.000  H
  H285     1.0000 0.77593  0.62605  0.99104  Biso   1.000  H
  H286     1.0000 0.04351  0.26509  0.36887  Biso   1.000  H
  H287     1.0000 0.89699  0.51757  0.73849  Biso   1.000  H
  H288     1.0000 0.26658  0.64137  0.50936  Biso   1.000  H
  H289     1.0000 0.11253  0.22938  0.02507  Biso   1.000  H
  H290     1.0000 0.04564  0.08406  0.23846  Biso   1.000  H
  H291     1.0000 0.26487  0.02345  0.08904  Biso   1.000  H
  H292     1.0000 0.62690  0.22372  0.51765  Biso   1.000  H
  H293     1.0000 0.54324  0.08189  0.28243  Biso   1.000  H
  H294     1.0000 0.77018  0.01166  0.42471  Biso   1.000  H
  H295     1.0000 0.46315  0.72952  0.99690  Biso   1.000  H
  H296     1.0000 0.55432  0.57444  0.23992  Biso   1.000  H
  H297     1.0000 0.31209  0.51292  0.10772  Biso   1.000  H
  H298     1.0000 0.94503  0.72951  0.49859  Biso   1.000  H
  H299     1.0000 0.04252  0.58157  0.26982  Biso   1.000  H
  H300     1.0000 0.81295  0.49701  0.41937  Biso   1.000  H
  H301     1.0000 0.96602  0.76064  0.00790  Biso   1.000  H
  H302     1.0000 0.04027  0.90970  0.77640  Biso   1.000  H
  H303     1.0000 0.80555  0.96297  0.92230  Biso   1.000  H
  H304     1.0000 0.44780  0.77028  0.51735  Biso   1.000  H
  H305     1.0000 0.53794  0.90286  0.73467  Biso   1.000  H
  H306     1.0000 0.30837  0.99872  0.58720  Biso   1.000  H
  H307     1.0000 0.61077  0.25274  0.02068  Biso   1.000  H
  H308     1.0000 0.54415  0.40148  0.77517  Biso   1.000  H
  H309     1.0000 0.76289  0.48859  0.91237  Biso   1.000  H
  H310     1.0000 0.13060  0.26810  0.52369  Biso   1.000  H
  H311     1.0000 0.03420  0.40982  0.74603  Biso   1.000  H
  H312     1.0000 0.26086  0.51491  0.60450  Biso   1.000  H
  H313     1.0000 0.26283  0.98928  0.90635  Biso   1.000  H
  H314     1.0000 0.92966  0.21866  0.99403  Biso   1.000  H
  H315     1.0000 0.02294  0.91086  0.23033  Biso   1.000  H
  H316     1.0000 0.76746  0.99395  0.60642  Biso   1.000  H
  H317     1.0000 0.44938  0.22227  0.52630  Biso   1.000  H
  H318     1.0000 0.55203  0.90453  0.27619  Biso   1.000  H
  H319     1.0000 0.31143  0.51179  0.92511  Biso   1.000  H
  H320     1.0000 0.64487  0.71359  0.02334  Biso   1.000  H
  H321     1.0000 0.53975  0.39782  0.23307  Biso   1.000  H
  H322     1.0000 0.80542  0.50239  0.60262  Biso   1.000  H
  H323     1.0000 0.12548  0.72484  0.52645  Biso   1.000  H
  H324     1.0000 0.01260  0.40157  0.28819  Biso   1.000  H
  H325     1.0000 0.81178  0.00433  0.09847  Biso   1.000  H
  H326     1.0000 0.14355  0.77789  0.00531  Biso   1.000  H
  H327     1.0000 0.99668  0.08417  0.78010  Biso   1.000  H
  H328     1.0000 0.31296  0.01254  0.40194  Biso   1.000  H
  H329     1.0000 0.62262  0.77046  0.49711  Biso   1.000  H
  H330     1.0000 0.54088  0.08175  0.73488  Biso   1.000  H
  H331     1.0000 0.76904  0.46876  0.09521  Biso   1.000  H
  H332     1.0000 0.42506  0.27217  0.99752  Biso   1.000  H
  H333     1.0000 0.52927  0.58401  0.77929  Biso   1.000  H
  H334     1.0000 0.26617  0.50670  0.43028  Biso   1.000  H
  H335     1.0000 0.94900  0.27093  0.51218  Biso   1.000  H
  H336     1.0000 0.03779  0.59491  0.73933  Biso   1.000  H
  H337     1.0000 0.03845  0.22319  0.92093  Biso   1.000  H
  H338     1.0000 0.94898  0.00693  0.23903  Biso   1.000  H
  H339     1.0000 0.27085  0.92658  0.99351  Biso   1.000  H
  H340     1.0000 0.55422  0.22464  0.60027  Biso   1.000  H
  H341     1.0000 0.45643  0.99548  0.27128  Biso   1.000  H
  H342     1.0000 0.76478  0.90853  0.51470  Biso   1.000  H
  H343     1.0000 0.55136  0.72733  0.91710  Biso   1.000  H
  H344     1.0000 0.62984  0.50658  0.23123  Biso   1.000  H
  H345     1.0000 0.30468  0.42230  0.01911  Biso   1.000  H
  H346     1.0000 0.03168  0.72482  0.59187  Biso   1.000  H
  H347     1.0000 0.13871  0.47968  0.28136  Biso   1.000  H
  H348     1.0000 0.81378  0.41052  0.50510  Biso   1.000  H
  H349     1.0000 0.05904  0.77235  0.09458  Biso   1.000  H
  H350     1.0000 0.11696  0.01718  0.77391  Biso   1.000  H
  H351     1.0000 0.80327  0.06930  0.00990  Biso   1.000  H
  H352     1.0000 0.52146  0.76460  0.41181  Biso   1.000  H
  H353     1.0000 0.62114  0.97516  0.73717  Biso   1.000  H
  H354     1.0000 0.31231  0.07996  0.49821  Biso   1.000  H
  H355     1.0000 0.50973  0.26225  0.09617  Biso   1.000  H
  H356     1.0000 0.44322  0.46399  0.78794  Biso   1.000  H
  H357     1.0000 0.77789  0.57160  0.98714  Biso   1.000  H
  H358     1.0000 0.04425  0.26642  0.42429  Biso   1.000  H
  H359     1.0000 0.94923  0.51775  0.73564  Biso   1.000  H
  H360     1.0000 0.26530  0.58512  0.50976  Biso   1.000  H
  H361     1.0000 0.05051  0.71716  0.41660  Biso   1.000  H
  H362     1.0000 0.44218  0.00861  0.73369  Biso   1.000  H
  H363     1.0000 0.75452  0.38546  0.00481  Biso   1.000  H
  H364     1.0000 0.54215  0.71354  0.09802  Biso   1.000  H
  H365     1.0000 0.94075  0.97309  0.78052  Biso   1.000  H
  H366     1.0000 0.26643  0.41068  0.52267  Biso   1.000  H
  H367     1.0000 0.53814  0.22196  0.42167  Biso   1.000  H
  H368     1.0000 0.13162  0.49885  0.74608  Biso   1.000  H
  H369     1.0000 0.81348  0.88697  0.02419  Biso   1.000  H
  H370     1.0000 0.02649  0.22262  0.10011  Biso   1.000  H
  H371     1.0000 0.61962  0.52804  0.78054  Biso   1.000  H
  H372     1.0000 0.30815  0.91060  0.48981  Biso   1.000  H
  H373     1.0000 0.03228  0.27075  0.60500  Biso   1.000  H
  H374     1.0000 0.63820  0.98840  0.27911  Biso   1.000  H
  H375     1.0000 0.31182  0.60413  0.00510  Biso   1.000  H
  H376     1.0000 0.52919  0.26719  0.91621  Biso   1.000  H
  H377     1.0000 0.13263  0.98393  0.23016  Biso   1.000  H
  H378     1.0000 0.80962  0.58743  0.48839  Biso   1.000  H
  H379     1.0000 0.53301  0.77032  0.59196  Biso   1.000  H
  H380     1.0000 0.94879  0.49623  0.27446  Biso   1.000  H
  H381     1.0000 0.26081  0.10601  0.00695  Biso   1.000  H
  H382     1.0000 0.06271  0.77114  0.90800  Biso   1.000  H
  H383     1.0000 0.45478  0.47304  0.23749  Biso   1.000  H
  H384     1.0000 0.77185  0.09391  0.51743  Biso   1.000  H
  H385     1.0000 0.27204  0.47207  0.34524  Biso   1.000  H
  H386     1.0000 0.31444  0.17134  0.48509  Biso   1.000  H
  H387     1.0000 0.49746  0.31304  0.23118  Biso   1.000  H
  H388     1.0000 0.70815  0.46550  0.23665  Biso   1.000  H
  H389     1.0000 0.85777  0.20953  0.03332  Biso   1.000  H
  H390     1.0000 0.01380  0.26238  0.34529  Biso   1.000  H
  H391     1.0000 0.31779  0.96385  0.32360  Biso   1.000  H
  H392     1.0000 0.21140  0.72405  0.48737  Biso   1.000  H
  H393     1.0000 0.02204  0.77152  0.17528  Biso   1.000  H
  H394     1.0000 0.81977  0.97561  0.19115  Biso   1.000  H
  H395     1.0000 0.77392  0.65112  0.04069  Biso   1.000  H
  H396     1.0000 0.57525  0.81354  0.27910  Biso   1.000  H
  H397     1.0000 0.81275  0.54157  0.67991  Biso   1.000  H
  H398     1.0000 0.75474  0.81610  0.54292  Biso   1.000  H
  H399     1.0000 0.56749  0.66767  0.77623  Biso   1.000  H
  H400     1.0000 0.36755  0.51490  0.78980  Biso   1.000  H
  H401     1.0000 0.26858  0.83247  0.96243  Biso   1.000  H
  H402     1.0000 0.06925  0.67275  0.72835  Biso   1.000  H
  H403     1.0000 0.76277  0.93947  0.68271  Biso   1.000  H
  H404     1.0000 0.81627  0.32779  0.54073  Biso   1.000  H
  H405     1.0000 0.00159  0.22583  0.83972  Biso   1.000  H
  H406     1.0000 0.25878  0.02992  0.82262  Biso   1.000  H
  H407     1.0000 0.29270  0.34130  0.99871  Biso   1.000  H
  H408     1.0000 0.51107  0.16608  0.73313  Biso   1.000  H
  H409     1.0000 0.31454  0.47354  0.19061  Biso   1.000  H
  H410     1.0000 0.21267  0.27143  0.49874  Biso   1.000  H
  H411     1.0000 0.50215  0.20931  0.33169  Biso   1.000  H
  H412     1.0000 0.86584  0.45608  0.28841  Biso   1.000  H
  H413     1.0000 0.69261  0.25053  0.99467  Biso   1.000  H
  H414     1.0000 0.99438  0.21663  0.18728  Biso   1.000  H
  H415     1.0000 0.22432  0.95573  0.20201  Biso   1.000  H
  H416     1.0000 0.35991  0.76322  0.48462  Biso   1.000  H
  H417     1.0000 0.01065  0.67133  0.28322  Biso   1.000  H
  H418     1.0000 0.77506  0.98500  0.34047  Biso   1.000  H
  H419     1.0000 0.88103  0.74925  0.03653  Biso   1.000  H
  H420     1.0000 0.52370  0.65647  0.23708  Biso   1.000  H
  H421     1.0000 0.75909  0.53798  0.83729  Biso   1.000  H
  H422     1.0000 0.81145  0.66953  0.52629  Biso   1.000  H
  H423     1.0000 0.56237  0.76757  0.67526  Biso   1.000  H
  H424     1.0000 0.21052  0.53157  0.74015  Biso   1.000  H
  H425     1.0000 0.37281  0.73098  0.96334  Biso   1.000  H
  H426     1.0000 0.09152  0.78190  0.82132  Biso   1.000  H
  H427     1.0000 0.81054  0.00004  0.83512  Biso   1.000  H
  H428     1.0000 0.76657  0.17104  0.54572  Biso   1.000  H
  H429     1.0000 0.06964  0.31861  0.74059  Biso   1.000  H
  H430     1.0000 0.35967  0.97253  0.72679  Biso   1.000  H
  H431     1.0000 0.19164  0.23806  0.99975  Biso   1.000  H
  H432     1.0000 0.49638  0.27613  0.82614  Biso   1.000  H
  H433     1.0000 0.30652  0.03086  0.67325  Biso   1.000  H
  H434     1.0000 0.75095  0.30991  0.04352  Biso   1.000  H
  H435     1.0000 0.08635  0.71465  0.32490  Biso   1.000  H
  H436     1.0000 0.85821  0.93044  0.79016  Biso   1.000  H
  H437     1.0000 0.27490  0.32428  0.54717  Biso   1.000  H
  H438     1.0000 0.57336  0.71458  0.17836  Biso   1.000  H
  H439     1.0000 0.26591  0.46571  0.69055  Biso   1.000  H
  H440     1.0000 0.81915  0.80814  0.98472  Biso   1.000  H
  H441     1.0000 0.57749  0.17465  0.28850  Biso   1.000  H
  H442     1.0000 0.70445  0.48783  0.77345  Biso   1.000  H
  H443     1.0000 0.30992  0.83019  0.53208  Biso   1.000  H
  H444     1.0000 0.05842  0.16664  0.24108  Biso   1.000  H
  H445     1.0000 0.71141  0.02609  0.28377  Biso   1.000  H
  H446     1.0000 0.32400  0.68641  0.03610  Biso   1.000  H
  H447     1.0000 0.99892  0.27988  0.68907  Biso   1.000  H
  H448     1.0000 0.25285  0.04490  0.18854  Biso   1.000  H
  H449     1.0000 0.85804  0.72556  0.46512  Biso   1.000  H
  H450     1.0000 0.57805  0.31562  0.79536  Biso   1.000  H
  H451     1.0000 0.81609  0.52737  0.32901  Biso   1.000  H
  H452     1.0000 0.25177  0.18578  0.05022  Biso   1.000  H
  H453     1.0000 0.50453  0.81926  0.72903  Biso   1.000  H
  H454     1.0000 0.37502  0.52173  0.24597  Biso   1.000  H
  H455     1.0000 0.71337  0.22648  0.49081  Biso   1.000  H
  H456     1.0000 0.00779  0.82288  0.78660  Biso   1.000  H
  H457     1.0000 0.71159  0.77942  0.46489  Biso   1.000  H
  H458     1.0000 0.50993  0.72191  0.83298  Biso   1.000  H
  H459     1.0000 0.86008  0.48715  0.74394  Biso   1.000  H
  H460     1.0000 0.22925  0.79028  0.03687  Biso   1.000  H
  H461     1.0000 0.01017  0.73318  0.68013  Biso   1.000  H
  H462     1.0000 0.30323  0.47235  0.84663  Biso   1.000  H
  H463     1.0000 0.86473  0.27284  0.47792  Biso   1.000  H
  H464     1.0000 0.03939  0.16263  0.77723  Biso   1.000  H
  H465     1.0000 0.70912  0.99471  0.74104  Biso   1.000  H
  H466     1.0000 0.35227  0.28377  0.04484  Biso   1.000  H
  H467     1.0000 0.58088  0.21400  0.68800  Biso   1.000  H
  H468     1.0000 0.20130  0.97033  0.77005  Biso   1.000  H
  H469     1.0000 0.36428  0.21150  0.55294  Biso   1.000  H
  H470     1.0000 0.55902  0.25945  0.17813  Biso   1.000  H
  H471     1.0000 0.21768  0.52742  0.28914  Biso   1.000  H
  H472     1.0000 0.79647  0.15285  0.98276  Biso   1.000  H
  H473     1.0000 0.05243  0.32279  0.28076  Biso   1.000  H
  H474     1.0000 0.77285  0.50171  0.17571  Biso   1.000  H
  H475     1.0000 0.25911  0.66868  0.54768  Biso   1.000  H
  H476     1.0000 0.06991  0.82714  0.23634  Biso   1.000  H
  H477     1.0000 0.36399  0.02574  0.26924  Biso   1.000  H
  H478     1.0000 0.72826  0.70607  0.97433  Biso   1.000  H
  H479     1.0000 0.49572  0.77206  0.31868  Biso   1.000  H
  H480     1.0000 0.86863  0.04501  0.23224  Biso   1.000  H
  N1       1.0000 0.71682  0.17634  0.51257  Biso   1.000  N
  N2       1.0000 0.54957  0.66026  0.18402  Biso   1.000  N
  N3       1.0000 0.21463  0.50154  0.68997  Biso   1.000  N
  N4       1.0000 0.20133  0.18543  0.02279  Biso   1.000  N
  N5       1.0000 0.04750  0.66856  0.32525  Biso   1.000  N
  N6       1.0000 0.70796  0.51334  0.83053  Biso   1.000  N
  N7       1.0000 0.85990  0.67488  0.49584  Biso   1.000  N
  N8       1.0000 0.02992  0.17065  0.18820  Biso   1.000  N
  N9       1.0000 0.35742  0.00235  0.67617  Biso   1.000  N
  N10      1.0000 0.37246  0.68453  0.00161  Biso   1.000  N
  N11      1.0000 0.54084  0.16845  0.33461  Biso   1.000  N
  N12      1.0000 0.85776  0.96418  0.83523  Biso   1.000  N
  N13      1.0000 0.35851  0.82005  0.50604  Biso   1.000  N
  N14      1.0000 0.53670  0.31914  0.83215  Biso   1.000  N
  N15      1.0000 0.86401  0.49426  0.33068  Biso   1.000  N
  N16      1.0000 0.87467  0.80654  0.01316  Biso   1.000  N
  N17      1.0000 0.03584  0.32311  0.69143  Biso   1.000  N
  N18      1.0000 0.36539  0.49836  0.19296  Biso   1.000  N
  N19      1.0000 0.21889  0.32177  0.52192  Biso   1.000  N
  N20      1.0000 0.05234  0.82553  0.82683  Biso   1.000  N
  N21      1.0000 0.72147  0.00169  0.33624  Biso   1.000  N
  N22      1.0000 0.69849  0.30318  0.01716  Biso   1.000  N
  N23      1.0000 0.53335  0.81890  0.67927  Biso   1.000  N
  N24      1.0000 0.21390  0.00060  0.17487  Biso   1.000  N
  N25      1.0000 0.86270  0.50888  0.68829  Biso   1.000  N
  N26      1.0000 0.71197  0.81976  0.50452  Biso   1.000  N
  N27      1.0000 0.53793  0.67202  0.83027  Biso   1.000  N
  N28      1.0000 0.36032  0.48821  0.84012  Biso   1.000  N
  N29      1.0000 0.22612  0.83526  0.99999  Biso   1.000  N
  N30      1.0000 0.03612  0.67752  0.68013  Biso   1.000  N
  N31      1.0000 0.71051  0.97353  0.68755  Biso   1.000  N
  N32      1.0000 0.86516  0.32371  0.50579  Biso   1.000  N
  N33      1.0000 0.01921  0.17066  0.83406  Biso   1.000  N
  N34      1.0000 0.20769  0.00319  0.82102  Biso   1.000  N
  N35      1.0000 0.35000  0.33378  0.01757  Biso   1.000  N
  N36      1.0000 0.54496  0.16916  0.68575  Biso   1.000  N
  N37      1.0000 0.21997  0.49505  0.33930  Biso   1.000  N
  N38      1.0000 0.36382  0.16928  0.51358  Biso   1.000  N
  N39      1.0000 0.53184  0.31133  0.18302  Biso   1.000  N
  N40      1.0000 0.71684  0.48736  0.18193  Biso   1.000  N
  N41      1.0000 0.85139  0.15908  0.00494  Biso   1.000  N
  N42      1.0000 0.03606  0.31764  0.33851  Biso   1.000  N
  N43      1.0000 0.36460  0.99689  0.31904  Biso   1.000  N
  N44      1.0000 0.21292  0.67425  0.51654  Biso   1.000  N
  N45      1.0000 0.04457  0.82353  0.18235  Biso   1.000  N
  N46      1.0000 0.86384  0.00872  0.18797  Biso   1.000  N
  N47      1.0000 0.72591  0.65732  0.00559  Biso   1.000  N
  N48      1.0000 0.53491  0.81656  0.32421  Biso   1.000  N
  O1       1.0000 0.38430  0.55163  0.01595  Biso   1.000  O
  O2       1.0000 0.03505  0.34147  0.55575  Biso   1.000  O
  O3       1.0000 0.58429  0.99357  0.35416  Biso   1.000  O
  O4       1.0000 0.88083  0.54007  0.50782  Biso   1.000  O
  O5       1.0000 0.52512  0.33478  0.96702  Biso   1.000  O
  O6       1.0000 0.07807  0.99037  0.16306  Biso   1.000  O
  O7       1.0000 0.19479  0.05186  0.99380  Biso   1.000  O
  O8       1.0000 0.53497  0.83979  0.54176  Biso   1.000  O
  O9       1.0000 0.99878  0.49722  0.34775  Biso   1.000  O
  O10      1.0000 0.69834  0.03957  0.51087  Biso   1.000  O
  O11      1.0000 0.05134  0.84067  0.96267  Biso   1.000  O
  O12      1.0000 0.49824  0.48485  0.16479  Biso   1.000  O
  O13      1.0000 0.68786  0.44013  0.00632  Biso   1.000  O
  O14      1.0000 0.03997  0.64649  0.46245  Biso   1.000  O
  O15      1.0000 0.49154  0.99872  0.66365  Biso   1.000  O
  O16      1.0000 0.19372  0.45447  0.51900  Biso   1.000  O
  O17      1.0000 0.54698  0.64489  0.04675  Biso   1.000  O
  O18      1.0000 0.99256  0.98866  0.85381  Biso   1.000  O
  O19      1.0000 0.88074  0.94054  0.01141  Biso   1.000  O
  O20      1.0000 0.53732  0.14972  0.46919  Biso   1.000  O
  O21      1.0000 0.08037  0.50134  0.67459  Biso   1.000  O
  O22      1.0000 0.38250  0.95388  0.50195  Biso   1.000  O
  O23      1.0000 0.02600  0.15324  0.05313  Biso   1.000  O
  O24      1.0000 0.57494  0.50066  0.85054  Biso   1.000  O
  O25      1.0000 0.99913  0.00809  0.16821  Biso   1.000  O
  O26      1.0000 0.19886  0.96973  0.00062  Biso   1.000  O
  O27      1.0000 0.02803  0.15113  0.96897  Biso   1.000  O
  O28      1.0000 0.50049  0.98798  0.34553  Biso   1.000  O
  O29      1.0000 0.69325  0.95639  0.51289  Biso   1.000  O
  O30      1.0000 0.54365  0.15425  0.55003  Biso   1.000  O
  O31      1.0000 0.58403  0.48731  0.15850  Biso   1.000  O
  O32      1.0000 0.38026  0.46638  0.01610  Biso   1.000  O
  O33      1.0000 0.54783  0.65261  0.96231  Biso   1.000  O
  O34      1.0000 0.08567  0.49248  0.35000  Biso   1.000  O
  O35      1.0000 0.88571  0.45871  0.50781  Biso   1.000  O
  O36      1.0000 0.03006  0.65267  0.54673  Biso   1.000  O
  O37      1.0000 0.07732  0.00508  0.85150  Biso   1.000  O
  O38      1.0000 0.88064  0.02569  0.00342  Biso   1.000  O
  O39      1.0000 0.04316  0.84165  0.04524  Biso   1.000  O
  O40      1.0000 0.57549  0.98837  0.66289  Biso   1.000  O
  O41      1.0000 0.38192  0.03720  0.50392  Biso   1.000  O
  O42      1.0000 0.53232  0.83832  0.45834  Biso   1.000  O
  O43      1.0000 0.49249  0.48540  0.85797  Biso   1.000  O
  O44      1.0000 0.69999  0.52637  0.00058  Biso   1.000  O
  O45      1.0000 0.52676  0.33422  0.05140  Biso   1.000  O
  O46      1.0000 0.99523  0.49729  0.66572  Biso   1.000  O
  O47      1.0000 0.19288  0.53941  0.51312  Biso   1.000  O
  O48      1.0000 0.04474  0.34051  0.47298  Biso   1.000  O
  O49      1.0000 0.02904  0.95715  0.15815  Biso   1.000  O
  O50      1.0000 0.19528  0.00461  0.95594  Biso   1.000  O
  O51      1.0000 0.98395  0.15035  0.00892  Biso   1.000  O
  O52      1.0000 0.54085  0.94855  0.34918  Biso   1.000  O
  O53      1.0000 0.69586  0.99982  0.55578  Biso   1.000  O
  O54      1.0000 0.49942  0.15226  0.51472  Biso   1.000  O
  O55      1.0000 0.54140  0.44479  0.15999  Biso   1.000  O
  O56      1.0000 0.38163  0.50550  0.97515  Biso   1.000  O
  O57      1.0000 0.58922  0.64375  0.00306  Biso   1.000  O
  O58      1.0000 0.03534  0.45075  0.35558  Biso   1.000  O
  O59      1.0000 0.87936  0.49662  0.55250  Biso   1.000  O
  O60      1.0000 0.07783  0.65122  0.51541  Biso   1.000  O
  O61      1.0000 0.02036  0.03846  0.85149  Biso   1.000  O
  O62      1.0000 0.88176  0.98500  0.05307  Biso   1.000  O
  O63      1.0000 0.09098  0.84319  0.00544  Biso   1.000  O
  O64      1.0000 0.53775  0.03523  0.66529  Biso   1.000  O
  O65      1.0000 0.38170  0.99594  0.45756  Biso   1.000  O
  O66      1.0000 0.57762  0.84349  0.50320  Biso   1.000  O
  O67      1.0000 0.52963  0.53610  0.85408  Biso   1.000  O
  O68      1.0000 0.69792  0.48346  0.04780  Biso   1.000  O
  O69      1.0000 0.48314  0.33715  0.00712  Biso   1.000  O
  O70      1.0000 0.03672  0.54146  0.66863  Biso   1.000  O
  O71      1.0000 0.19107  0.49486  0.47198  Biso   1.000  O
  O72      1.0000 0.99935  0.34257  0.50782  Biso   1.000  O
  O73      1.0000 0.04117  0.45748  0.66999  Biso   1.000  O
  O74      1.0000 0.70018  0.99251  0.47003  Biso   1.000  O
  O75      1.0000 0.50762  0.65468  0.00782  Biso   1.000  O
  O76      1.0000 0.53927  0.45468  0.84709  Biso   1.000  O
  O77      1.0000 0.19399  0.01031  0.04114  Biso   1.000  O
  O78      1.0000 0.99225  0.65669  0.50028  Biso   1.000  O
  O79      1.0000 0.52799  0.95247  0.66482  Biso   1.000  O
  O80      1.0000 0.88397  0.50103  0.46812  Biso   1.000  O
  O81      1.0000 0.06760  0.15501  0.01399  Biso   1.000  O
  O82      1.0000 0.04210  0.95769  0.85358  Biso   1.000  O
  O83      1.0000 0.38292  0.50882  0.05821  Biso   1.000  O
  O84      1.0000 0.58265  0.14999  0.50947  Biso   1.000  O
  O85      1.0000 0.04203  0.53666  0.34436  Biso   1.000  O
  O86      1.0000 0.38266  0.99574  0.54105  Biso   1.000  O
  O87      1.0000 0.56938  0.32826  0.00806  Biso   1.000  O
  O88      1.0000 0.54199  0.52707  0.16573  Biso   1.000  O
  O89      1.0000 0.87991  0.97730  0.96816  Biso   1.000  O
  O90      1.0000 0.08370  0.34384  0.51956  Biso   1.000  O
  O91      1.0000 0.54160  0.03335  0.35402  Biso   1.000  O
  O92      1.0000 0.19047  0.49939  0.55675  Biso   1.000  O
  O93      1.0000 0.00630  0.83716  0.99780  Biso   1.000  O
  O94      1.0000 0.04412  0.03698  0.16595  Biso   1.000  O
  O95      1.0000 0.69021  0.47728  0.96287  Biso   1.000  O
  O96      1.0000 0.49278  0.84176  0.50353  Biso   1.000  O
  O97      1.0000 0.49953  0.20091  0.50869  Biso   1.000  O
  O98      1.0000 0.54576  0.44652  0.20936  Biso   1.000  O
  O99      1.0000 0.23907  0.50045  0.47445  Biso   1.000  O
  O100     1.0000 0.98175  0.19940  0.00505  Biso   1.000  O
  O101     1.0000 0.03865  0.44918  0.30651  Biso   1.000  O
  O102     1.0000 0.74633  0.47964  0.04541  Biso   1.000  O
  O103     1.0000 0.07920  0.69914  0.50923  Biso   1.000  O
  O104     1.0000 0.03032  0.95738  0.20804  Biso   1.000  O
  O105     1.0000 0.33350  0.99695  0.45357  Biso   1.000  O
  O106     1.0000 0.59525  0.69157  0.01257  Biso   1.000  O
  O107     1.0000 0.54355  0.95071  0.29992  Biso   1.000  O
  O108     1.0000 0.83317  0.98978  0.05274  Biso   1.000  O
  O109     1.0000 0.57824  0.79524  0.49924  Biso   1.000  O
  O110     1.0000 0.52507  0.53717  0.80544  Biso   1.000  O
  O111     1.0000 0.82977  0.49703  0.55036  Biso   1.000  O
  O112     1.0000 0.09460  0.79502  0.00684  Biso   1.000  O
  O113     1.0000 0.03670  0.54370  0.71686  Biso   1.000  O
  O114     1.0000 0.33358  0.50962  0.97290  Biso   1.000  O
  O115     1.0000 0.99953  0.29474  0.51269  Biso   1.000  O
  O116     1.0000 0.02008  0.03984  0.80331  Biso   1.000  O
  O117     1.0000 0.74462  0.99915  0.55626  Biso   1.000  O
  O118     1.0000 0.47919  0.28899  0.99976  Biso   1.000  O
  O119     1.0000 0.53373  0.03649  0.71280  Biso   1.000  O
  O120     1.0000 0.24370  0.01405  0.95539  Biso   1.000  O
  O121     1.0000 0.07954  0.50261  0.72274  Biso   1.000  O
  O122     1.0000 0.74713  0.03977  0.51572  Biso   1.000  O
  O123     1.0000 0.55040  0.69316  0.05112  Biso   1.000  O
  O124     1.0000 0.57405  0.50609  0.80149  Biso   1.000  O
  O125     1.0000 0.24133  0.05606  0.00408  Biso   1.000  O
  O126     1.0000 0.04911  0.69372  0.46107  Biso   1.000  O
  O127     1.0000 0.49035  0.99675  0.71214  Biso   1.000  O
  O128     1.0000 0.83221  0.54070  0.50900  Biso   1.000  O
  O129     1.0000 0.01803  0.20104  0.05317  Biso   1.000  O
  O130     1.0000 0.99008  0.98791  0.80549  Biso   1.000  O
  O131     1.0000 0.33486  0.55177  0.01140  Biso   1.000  O
  O132     1.0000 0.54290  0.19828  0.46690  Biso   1.000  O
  O133     1.0000 0.99863  0.49249  0.29993  Biso   1.000  O
  O134     1.0000 0.33449  0.95434  0.49578  Biso   1.000  O
  O135     1.0000 0.52622  0.28661  0.96249  Biso   1.000  O
  O136     1.0000 0.50038  0.48348  0.21450  Biso   1.000  O
  O137     1.0000 0.83348  0.93961  0.01426  Biso   1.000  O
  O138     1.0000 0.03703  0.29259  0.55637  Biso   1.000  O
  O139     1.0000 0.58661  0.98884  0.30552  Biso   1.000  O
  O140     1.0000 0.24156  0.45837  0.51995  Biso   1.000  O
  O141     1.0000 0.05404  0.79216  0.96225  Biso   1.000  O
  O142     1.0000 0.08096  0.99179  0.21145  Biso   1.000  O
  O143     1.0000 0.73608  0.43580  0.00710  Biso   1.000  O
  O144     1.0000 0.53953  0.79098  0.54427  Biso   1.000  O
  O145     1.0000 0.58406  0.48618  0.20853  Biso   1.000  O
  O146     1.0000 0.24039  0.54100  0.51708  Biso   1.000  O
  O147     1.0000 0.54325  0.20254  0.54972  Biso   1.000  O
  O148     1.0000 0.08403  0.48873  0.30217  Biso   1.000  O
  O149     1.0000 0.74746  0.51836  0.99663  Biso   1.000  O
  O150     1.0000 0.02910  0.20077  0.96969  Biso   1.000  O
  O151     1.0000 0.99899  0.00459  0.21527  Biso   1.000  O
  O152     1.0000 0.33336  0.03653  0.49533  Biso   1.000  O
  O153     1.0000 0.03366  0.70109  0.54582  Biso   1.000  O
  O154     1.0000 0.50405  0.99668  0.29913  Biso   1.000  O
  O155     1.0000 0.83371  0.02134  0.00445  Biso   1.000  O
  O156     1.0000 0.55544  0.69954  0.96830  Biso   1.000  O
  O157     1.0000 0.49176  0.48650  0.80820  Biso   1.000  O
  O158     1.0000 0.83715  0.45796  0.50670  Biso   1.000  O
  O159     1.0000 0.53419  0.79026  0.45979  Biso   1.000  O
  O160     1.0000 0.99633  0.49973  0.71514  Biso   1.000  O
  O161     1.0000 0.33097  0.46945  0.01334  Biso   1.000  O
  O162     1.0000 0.05010  0.79391  0.04634  Biso   1.000  O
  O163     1.0000 0.07153  0.00931  0.80105  Biso   1.000  O
  O164     1.0000 0.74219  0.95483  0.51381  Biso   1.000  O
  O165     1.0000 0.04370  0.29122  0.47232  Biso   1.000  O
  O166     1.0000 0.57569  0.98642  0.71275  Biso   1.000  O
  O167     1.0000 0.24781  0.97164  0.99452  Biso   1.000  O
  O168     1.0000 0.51811  0.28595  0.04746  Biso   1.000  O
  O169     1.0000 0.04450  0.03679  0.21404  Biso   1.000  O
  O170     1.0000 0.24279  0.01315  0.04049  Biso   1.000  O
  O171     1.0000 0.06458  0.20432  0.01729  Biso   1.000  O
  O172     1.0000 0.55246  0.03395  0.30597  Biso   1.000  O
  O173     1.0000 0.74903  0.99404  0.46935  Biso   1.000  O
  O174     1.0000 0.58147  0.19831  0.50699  Biso   1.000  O
  O175     1.0000 0.54320  0.52757  0.21430  Biso   1.000  O
  O176     1.0000 0.33445  0.51287  0.05843  Biso   1.000  O
  O177     1.0000 0.50992  0.70243  0.00456  Biso   1.000  O
  O178     1.0000 0.04540  0.53395  0.29648  Biso   1.000  O
  O179     1.0000 0.83574  0.50171  0.46514  Biso   1.000  O
  O180     1.0000 0.99549  0.70553  0.49911  Biso   1.000  O
  O181     1.0000 0.04097  0.95972  0.80269  Biso   1.000  O
  O182     1.0000 0.83304  0.97466  0.97060  Biso   1.000  O
  O183     1.0000 0.00851  0.78799  0.99905  Biso   1.000  O
  O184     1.0000 0.52413  0.95292  0.71296  Biso   1.000  O
  O185     1.0000 0.33484  0.99803  0.53904  Biso   1.000  O
  O186     1.0000 0.49476  0.79333  0.50242  Biso   1.000  O
  O187     1.0000 0.54333  0.45525  0.79872  Biso   1.000  O
  O188     1.0000 0.73907  0.47146  0.96121  Biso   1.000  O
  O189     1.0000 0.56298  0.27996  0.01281  Biso   1.000  O
  O190     1.0000 0.04402  0.46067  0.71827  Biso   1.000  O
  O191     1.0000 0.24027  0.50010  0.55633  Biso   1.000  O
  O192     1.0000 0.08190  0.29532  0.51787  Biso   1.000  O
