data_image0
_cell_length_a       46.6412
_cell_length_b       47.3678
_cell_length_c       46.4253
_cell_angle_alpha    90
_cell_angle_beta     90
_cell_angle_gamma    90

_symmetry_space_group_name_H-M    "P 1"
_symmetry_int_tables_number       1

loop_
  _symmetry_equiv_pos_as_xyz
  'x, y, z'

loop_
  _atom_site_label
  _atom_site_occupancy
  _atom_site_fract_x
  _atom_site_fract_y
  _atom_site_fract_z
  _atom_site_thermal_displace_type
  _atom_site_B_iso_or_equiv
  _atom_site_type_symbol
  C1       1.0000 0.56232  0.98797  0.32209  Biso   1.000  C
  C2       1.0000 0.33104  0.54789  0.01082  Biso   1.000  C
  C3       1.0000 0.01456  0.29861  0.55217  Biso   1.000  C
  C4       1.0000 0.06630  0.99220  0.17625  Biso   1.000  C
  C5       1.0000 0.82851  0.54099  0.49800  Biso   1.000  C
  C6       1.0000 0.49278  0.30996  0.93860  Biso   1.000  C
  C7       1.0000 0.96548  0.49831  0.32499  Biso   1.000  C
  C8       1.0000 0.18518  0.04736  0.99353  Biso   1.000  C
  C9       1.0000 0.51226  0.81029  0.56980  Biso   1.000  C
  C10      1.0000 0.46435  0.47650  0.18949  Biso   1.000  C
  C11      1.0000 0.68498  0.04350  0.51145  Biso   1.000  C
  C12      1.0000 0.01234  0.80312  0.96072  Biso   1.000  C
  C13      1.0000 0.44001  0.00273  0.68256  Biso   1.000  C
  C14      1.0000 0.68617  0.42163  0.00642  Biso   1.000  C
  C15      1.0000 0.01785  0.66614  0.45797  Biso   1.000  C
  C16      1.0000 0.93896  0.97317  0.82228  Biso   1.000  C
  C17      1.0000 0.18417  0.43334  0.51317  Biso   1.000  C
  C18      1.0000 0.51556  0.65988  0.06702  Biso   1.000  C
  C19      1.0000 0.04595  0.47354  0.68767  Biso   1.000  C
  C20      1.0000 0.82655  0.92532  0.00628  Biso   1.000  C
  C21      1.0000 0.51689  0.16376  0.44320  Biso   1.000  C
  C22      1.0000 0.55181  0.49451  0.81708  Biso   1.000  C
  C23      1.0000 0.32480  0.93318  0.50112  Biso   1.000  C
  C24      1.0000 0.99840  0.16808  0.05311  Biso   1.000  C
  C25      1.0000 0.32570  0.04170  0.48960  Biso   1.000  C
  C26      1.0000 0.51567  0.30627  0.04608  Biso   1.000  C
  C27      1.0000 0.07419  0.48914  0.32553  Biso   1.000  C
  C28      1.0000 0.82399  0.03306  0.01042  Biso   1.000  C
  C29      1.0000 0.99710  0.30751  0.44423  Biso   1.000  C
  C30      1.0000 0.56964  0.47769  0.18278  Biso   1.000  C
  C31      1.0000 0.18706  0.54342  0.51630  Biso   1.000  C
  C32      1.0000 0.00889  0.80483  0.07001  Biso   1.000  C
  C33      1.0000 0.45510  0.97291  0.31369  Biso   1.000  C
  C34      1.0000 0.68398  0.53083  0.99707  Biso   1.000  C
  C35      1.0000 0.49843  0.80605  0.45755  Biso   1.000  C
  C36      1.0000 0.95846  0.99933  0.18311  Biso   1.000  C
  C37      1.0000 0.68411  0.93497  0.50465  Biso   1.000  C
  C38      1.0000 0.50832  0.66765  0.95900  Biso   1.000  C
  C39      1.0000 0.93908  0.48026  0.68713  Biso   1.000  C
  C40      1.0000 0.18948  0.93483  0.99917  Biso   1.000  C
  C41      1.0000 0.00299  0.66942  0.56726  Biso   1.000  C
  C42      1.0000 0.44442  0.50087  0.81654  Biso   1.000  C
  C43      1.0000 0.82422  0.43162  0.50490  Biso   1.000  C
  C44      1.0000 0.00047  0.16092  0.94302  Biso   1.000  C
  C45      1.0000 0.54797  0.99832  0.68620  Biso   1.000  C
  C46      1.0000 0.32867  0.44009  0.00125  Biso   1.000  C
  C47      1.0000 0.48952  0.17299  0.54706  Biso   1.000  C
  C48      1.0000 0.05090  0.98603  0.81866  Biso   1.000  C
  C49      1.0000 0.99315  0.03174  0.82268  Biso   1.000  C
  C50      1.0000 0.82437  0.98003  0.06102  Biso   1.000  C
  C51      1.0000 0.06550  0.80623  0.02052  Biso   1.000  C
  C52      1.0000 0.49432  0.05669  0.68512  Biso   1.000  C
  C53      1.0000 0.33110  0.98394  0.44318  Biso   1.000  C
  C54      1.0000 0.55888  0.80682  0.51164  Biso   1.000  C
  C55      1.0000 0.50017  0.55359  0.81971  Biso   1.000  C
  C56      1.0000 0.68898  0.48216  0.05337  Biso   1.000  C
  C57      1.0000 0.45290  0.31204  0.00481  Biso   1.000  C
  C58      1.0000 0.99283  0.53231  0.69016  Biso   1.000  C
  C59      1.0000 0.19063  0.49030  0.46026  Biso   1.000  C
  C60      1.0000 0.95148  0.30316  0.51353  Biso   1.000  C
  C61      1.0000 0.01157  0.93978  0.18588  Biso   1.000  C
  C62      1.0000 0.18232  0.98951  0.94203  Biso   1.000  C
  C63      1.0000 0.94849  0.16039  0.99431  Biso   1.000  C
  C64      1.0000 0.51314  0.92817  0.32378  Biso   1.000  C
  C65      1.0000 0.67967  0.98730  0.56204  Biso   1.000  C
  C66      1.0000 0.45025  0.16509  0.48346  Biso   1.000  C
  C67      1.0000 0.51460  0.42244  0.18140  Biso   1.000  C
  C68      1.0000 0.32694  0.50517  0.95215  Biso   1.000  C
  C69      1.0000 0.56727  0.66539  0.00729  Biso   1.000  C
  C70      1.0000 0.01550  0.44089  0.32510  Biso   1.000  C
  C71      1.0000 0.82431  0.48808  0.55717  Biso   1.000  C
  C72      1.0000 0.06143  0.66485  0.52152  Biso   1.000  C
  C73      1.0000 0.02537  0.54533  0.32529  Biso   1.000  C
  C74      1.0000 0.32245  0.99255  0.54853  Biso   1.000  C
  C75      1.0000 0.55706  0.30373  0.98174  Biso   1.000  C
  C76      1.0000 0.52002  0.53143  0.19093  Biso   1.000  C
  C77      1.0000 0.81827  0.97957  0.95422  Biso   1.000  C
  C78      1.0000 0.06114  0.30353  0.49016  Biso   1.000  C
  C79      1.0000 0.50493  0.03338  0.31822  Biso   1.000  C
  C80      1.0000 0.17993  0.48672  0.56882  Biso   1.000  C
  C81      1.0000 0.95885  0.80535  0.01002  Biso   1.000  C
  C82      1.0000 0.01868  0.04837  0.18052  Biso   1.000  C
  C83      1.0000 0.68109  0.46946  0.94382  Biso   1.000  C
  C84      1.0000 0.45156  0.80746  0.52536  Biso   1.000  C
  C85      1.0000 0.98712  0.42291  0.68308  Biso   1.000  C
  C86      1.0000 0.68807  0.99118  0.45113  Biso   1.000  C
  C87      1.0000 0.45859  0.66919  0.01630  Biso   1.000  C
  C88      1.0000 0.49345  0.44120  0.81322  Biso   1.000  C
  C89      1.0000 0.19426  0.99421  0.04925  Biso   1.000  C
  C90      1.0000 0.95392  0.66805  0.50830  Biso   1.000  C
  C91      1.0000 0.49327  0.94620  0.68952  Biso   1.000  C
  C92      1.0000 0.83200  0.48679  0.44622  Biso   1.000  C
  C93      1.0000 0.05669  0.17117  0.00083  Biso   1.000  C
  C94      1.0000 0.00796  0.92509  0.82705  Biso   1.000  C
  C95      1.0000 0.33315  0.48902  0.06217  Biso   1.000  C
  C96      1.0000 0.55796  0.16588  0.50965  Biso   1.000  C
  C97      1.0000 0.68530  0.07559  0.51484  Biso   1.000  C
  C98      1.0000 0.51756  0.65940  0.09984  Biso   1.000  C
  C99      1.0000 0.07842  0.47457  0.68971  Biso   1.000  C
  C100     1.0000 0.18363  0.07975  0.99472  Biso   1.000  C
  C101     1.0000 0.02531  0.66870  0.42620  Biso   1.000  C
  C102     1.0000 0.58427  0.49314  0.81758  Biso   1.000  C
  C103     1.0000 0.82981  0.57383  0.49550  Biso   1.000  C
  C104     1.0000 0.00170  0.17189  0.08582  Biso   1.000  C
  C105     1.0000 0.40831  0.00010  0.68306  Biso   1.000  C
  C106     1.0000 0.32961  0.58060  0.01026  Biso   1.000  C
  C107     1.0000 0.52070  0.16181  0.40987  Biso   1.000  C
  C108     1.0000 0.90730  0.97096  0.82424  Biso   1.000  C
  C109     1.0000 0.32516  0.90157  0.50669  Biso   1.000  C
  C110     1.0000 0.48279  0.31220  0.90620  Biso   1.000  C
  C111     1.0000 0.93402  0.49990  0.32481  Biso   1.000  C
  C112     1.0000 0.82524  0.89215  0.00328  Biso   1.000  C
  C113     1.0000 0.01321  0.29679  0.58469  Biso   1.000  C
  C114     1.0000 0.43213  0.48097  0.19058  Biso   1.000  C
  C115     1.0000 0.18507  0.40123  0.50974  Biso   1.000  C
  C116     1.0000 0.01200  0.80361  0.92721  Biso   1.000  C
  C117     1.0000 0.59507  0.98734  0.32281  Biso   1.000  C
  C118     1.0000 0.68610  0.39025  0.99829  Biso   1.000  C
  C119     1.0000 0.51341  0.81341  0.60164  Biso   1.000  C
  C120     1.0000 0.09894  0.99568  0.17664  Biso   1.000  C
  C121     1.0000 0.82534  0.98236  0.09386  Biso   1.000  C
  C122     1.0000 0.09784  0.80676  0.02428  Biso   1.000  C
  C123     1.0000 0.99346  0.06476  0.82048  Biso   1.000  C
  C124     1.0000 0.33122  0.97771  0.41003  Biso   1.000  C
  C125     1.0000 0.59252  0.80763  0.51056  Biso   1.000  C
  C126     1.0000 0.49164  0.08861  0.68254  Biso   1.000  C
  C127     1.0000 0.69338  0.48579  0.08502  Biso   1.000  C
  C128     1.0000 0.42111  0.31185  0.00950  Biso   1.000  C
  C129     1.0000 0.50430  0.58434  0.82324  Biso   1.000  C
  C130     1.0000 0.19264  0.48998  0.42789  Biso   1.000  C
  C131     1.0000 0.92040  0.30548  0.51927  Biso   1.000  C
  C132     1.0000 0.98933  0.56444  0.69238  Biso   1.000  C
  C133     1.0000 0.18102  0.98785  0.91032  Biso   1.000  C
  C134     1.0000 0.91690  0.15817  0.98977  Biso   1.000  C
  C135     1.0000 0.01892  0.90910  0.18862  Biso   1.000  C
  C136     1.0000 0.67860  0.98867  0.59445  Biso   1.000  C
  C137     1.0000 0.41817  0.16593  0.48235  Biso   1.000  C
  C138     1.0000 0.51027  0.89717  0.32612  Biso   1.000  C
  C139     1.0000 0.32381  0.50657  0.91898  Biso   1.000  C
  C140     1.0000 0.59724  0.66286  0.99815  Biso   1.000  C
  C141     1.0000 0.51395  0.39115  0.17881  Biso   1.000  C
  C142     1.0000 0.82119  0.48939  0.59019  Biso   1.000  C
  C143     1.0000 0.09365  0.66634  0.52473  Biso   1.000  C
  C144     1.0000 0.01676  0.40847  0.32436  Biso   1.000  C
  C145     1.0000 0.33497  0.49308  0.09437  Biso   1.000  C
  C146     1.0000 0.09254  0.30446  0.49030  Biso   1.000  C
  C147     1.0000 0.50892  0.06529  0.31646  Biso   1.000  C
  C148     1.0000 0.83441  0.48878  0.41374  Biso   1.000  C
  C149     1.0000 0.58875  0.30088  0.97809  Biso   1.000  C
  C150     1.0000 0.02103  0.07997  0.18250  Biso   1.000  C
  C151     1.0000 0.19470  0.98854  0.08156  Biso   1.000  C
  C152     1.0000 0.41989  0.80918  0.53181  Biso   1.000  C
  C153     1.0000 0.02640  0.57764  0.32603  Biso   1.000  C
  C154     1.0000 0.68955  0.98928  0.41874  Biso   1.000  C
  C155     1.0000 0.92637  0.80422  0.00769  Biso   1.000  C
  C156     1.0000 0.52224  0.56322  0.19535  Biso   1.000  C
  C157     1.0000 0.68040  0.47651  0.91219  Biso   1.000  C
  C158     1.0000 0.92153  0.67074  0.50919  Biso   1.000  C
  C159     1.0000 0.49407  0.91360  0.69043  Biso   1.000  C
  C160     1.0000 0.17867  0.48376  0.60133  Biso   1.000  C
  C161     1.0000 0.42719  0.67146  0.02335  Biso   1.000  C
  C162     1.0000 0.01991  0.89451  0.82658  Biso   1.000  C
  C163     1.0000 0.81809  0.97082  0.92314  Biso   1.000  C
  C164     1.0000 0.58956  0.16820  0.51529  Biso   1.000  C
  C165     1.0000 0.98974  0.39034  0.68022  Biso   1.000  C
  C166     1.0000 0.32133  0.98988  0.58217  Biso   1.000  C
  C167     1.0000 0.08790  0.17339  0.00195  Biso   1.000  C
  C168     1.0000 0.49100  0.40893  0.81263  Biso   1.000  C
  C169     1.0000 0.00826  0.80509  0.10307  Biso   1.000  C
  C170     1.0000 0.08354  0.98474  0.81651  Biso   1.000  C
  C171     1.0000 0.82547  0.06467  0.00992  Biso   1.000  C
  C172     1.0000 0.49408  0.80561  0.42633  Biso   1.000  C
  C173     1.0000 0.57907  0.99506  0.68565  Biso   1.000  C
  C174     1.0000 0.32328  0.07381  0.48672  Biso   1.000  C
  C175     1.0000 0.51515  0.30402  0.07859  Biso   1.000  C
  C176     1.0000 0.41232  0.50145  0.81744  Biso   1.000  C
  C177     1.0000 0.68682  0.56262  0.00199  Biso   1.000  C
  C178     1.0000 0.99357  0.30829  0.41173  Biso   1.000  C
  C179     1.0000 0.90705  0.48077  0.68924  Biso   1.000  C
  C180     1.0000 0.18673  0.57479  0.52298  Biso   1.000  C
  C181     1.0000 0.99749  0.16062  0.91116  Biso   1.000  C
  C182     1.0000 0.92550  0.99996  0.18642  Biso   1.000  C
  C183     1.0000 0.19196  0.90466  0.00937  Biso   1.000  C
  C184     1.0000 0.48421  0.17491  0.57878  Biso   1.000  C
  C185     1.0000 0.42387  0.96840  0.31464  Biso   1.000  C
  C186     1.0000 0.68624  0.90240  0.50430  Biso   1.000  C
  C187     1.0000 0.51330  0.66946  0.92601  Biso   1.000  C
  C188     1.0000 0.60184  0.47816  0.18165  Biso   1.000  C
  C189     1.0000 0.32939  0.40795  0.99689  Biso   1.000  C
  C190     1.0000 0.99723  0.66492  0.59957  Biso   1.000  C
  C191     1.0000 0.10645  0.48751  0.32711  Biso   1.000  C
  C192     1.0000 0.82659  0.39867  0.50704  Biso   1.000  C
  C193     1.0000 0.84565  0.97255  0.90810  Biso   1.000  C
  C194     1.0000 0.91001  0.82993  0.00372  Biso   1.000  C
  C195     1.0000 0.02075  0.87919  0.85483  Biso   1.000  C
  C196     1.0000 0.34665  0.98989  0.60081  Biso   1.000  C
  C197     1.0000 0.40355  0.83465  0.52464  Biso   1.000  C
  C198     1.0000 0.49535  0.89695  0.66332  Biso   1.000  C
  C199     1.0000 0.65269  0.47859  0.89712  Biso   1.000  C
  C200     1.0000 0.60604  0.32537  0.98463  Biso   1.000  C
  C201     1.0000 0.48885  0.39287  0.84041  Biso   1.000  C
  C202     1.0000 0.15044  0.48072  0.61612  Biso   1.000  C
  C203     1.0000 0.10755  0.33072  0.49650  Biso   1.000  C
  C204     1.0000 0.99592  0.37617  0.65247  Biso   1.000  C
  C205     1.0000 0.16689  0.98900  0.09610  Biso   1.000  C
  C206     1.0000 0.10537  0.14637  0.99866  Biso   1.000  C
  C207     1.0000 0.01827  0.09693  0.15634  Biso   1.000  C
  C208     1.0000 0.66207  0.98851  0.40138  Biso   1.000  C
  C209     1.0000 0.60568  0.14190  0.51718  Biso   1.000  C
  C210     1.0000 0.51189  0.08254  0.34192  Biso   1.000  C
  C211     1.0000 0.36378  0.49193  0.11029  Biso   1.000  C
  C212     1.0000 0.40758  0.64571  0.02137  Biso   1.000  C
  C213     1.0000 0.52294  0.58188  0.16935  Biso   1.000  C
  C214     1.0000 0.86204  0.49119  0.39964  Biso   1.000  C
  C215     1.0000 0.90478  0.64398  0.50337  Biso   1.000  C
  C216     1.0000 0.02515  0.59144  0.35319  Biso   1.000  C
  C217     1.0000 0.10165  0.98486  0.84381  Biso   1.000  C
  C218     1.0000 0.85089  0.07968  0.00358  Biso   1.000  C
  C219     1.0000 0.01144  0.83356  0.11667  Biso   1.000  C
  C220     1.0000 0.59603  0.99340  0.65795  Biso   1.000  C
  C221     1.0000 0.34969  0.09031  0.48492  Biso   1.000  C
  C222     1.0000 0.49723  0.83249  0.40983  Biso   1.000  C
  C223     1.0000 0.39838  0.50002  0.84498  Biso   1.000  C
  C224     1.0000 0.66063  0.57990  0.00137  Biso   1.000  C
  C225     1.0000 0.51637  0.32958  0.09617  Biso   1.000  C
  C226     1.0000 0.89038  0.47758  0.66307  Biso   1.000  C
  C227     1.0000 0.16032  0.59055  0.52716  Biso   1.000  C
  C228     1.0000 0.99955  0.33519  0.39740  Biso   1.000  C
  C229     1.0000 0.90835  0.99731  0.15971  Biso   1.000  C
  C230     1.0000 0.16472  0.88762  0.01104  Biso   1.000  C
  C231     1.0000 0.99593  0.13329  0.89519  Biso   1.000  C
  C232     1.0000 0.40793  0.97127  0.34199  Biso   1.000  C
  C233     1.0000 0.65966  0.88594  0.50692  Biso   1.000  C
  C234     1.0000 0.48636  0.14944  0.59742  Biso   1.000  C
  C235     1.0000 0.61813  0.47795  0.15490  Biso   1.000  C
  C236     1.0000 0.35699  0.39230  0.00214  Biso   1.000  C
  C237     1.0000 0.51204  0.64359  0.90745  Biso   1.000  C
  C238     1.0000 0.12187  0.49046  0.35505  Biso   1.000  C
  C239     1.0000 0.85354  0.38290  0.50562  Biso   1.000  C
  C240     1.0000 0.99779  0.63694  0.61411  Biso   1.000  C
  C241     1.0000 0.60066  0.48836  0.84603  Biso   1.000  C
  C242     1.0000 0.85512  0.59169  0.50080  Biso   1.000  C
  C243     1.0000 0.50761  0.84134  0.61506  Biso   1.000  C
  C244     1.0000 0.09686  0.47768  0.66465  Biso   1.000  C
  C245     1.0000 0.35637  0.59652  0.01140  Biso   1.000  C
  C246     1.0000 0.01581  0.82931  0.91020  Biso   1.000  C
  C247     1.0000 0.89383  0.97159  0.85188  Biso   1.000  C
  C248     1.0000 0.65756  0.09079  0.51350  Biso   1.000  C
  C249     1.0000 0.01084  0.32376  0.60023  Biso   1.000  C
  C250     1.0000 0.39335  0.99338  0.65604  Biso   1.000  C
  C251     1.0000 0.15584  0.09453  0.99768  Biso   1.000  C
  C252     1.0000 0.48164  0.34009  0.89122  Biso   1.000  C
  C253     1.0000 0.41593  0.48320  0.16288  Biso   1.000  C
  C254     1.0000 0.15871  0.38499  0.50776  Biso   1.000  C
  C255     1.0000 0.51690  0.13339  0.39614  Biso   1.000  C
  C256     1.0000 0.91602  0.49682  0.35044  Biso   1.000  C
  C257     1.0000 0.65803  0.37595  0.99324  Biso   1.000  C
  C258     1.0000 0.00507  0.14627  0.10338  Biso   1.000  C
  C259     1.0000 0.11467  0.99606  0.14921  Biso   1.000  C
  C260     1.0000 0.35203  0.88423  0.50897  Biso   1.000  C
  C261     1.0000 0.02730  0.64249  0.40861  Biso   1.000  C
  C262     1.0000 0.61131  0.98635  0.34970  Biso   1.000  C
  C263     1.0000 0.85397  0.87817  0.00391  Biso   1.000  C
  C264     1.0000 0.52089  0.63342  0.11767  Biso   1.000  C
  C265     1.0000 0.99606  0.08126  0.84779  Biso   1.000  C
  C266     1.0000 0.85264  0.98388  0.10845  Biso   1.000  C
  C267     1.0000 0.11418  0.83444  0.02103  Biso   1.000  C
  C268     1.0000 0.49261  0.10213  0.65347  Biso   1.000  C
  C269     1.0000 0.35773  0.97541  0.39355  Biso   1.000  C
  C270     1.0000 0.60842  0.83529  0.50687  Biso   1.000  C
  C271     1.0000 0.50779  0.59767  0.85155  Biso   1.000  C
  C272     1.0000 0.66798  0.48591  0.10391  Biso   1.000  C
  C273     1.0000 0.40570  0.33997  0.01038  Biso   1.000  C
  C274     1.0000 0.98970  0.58133  0.66412  Biso   1.000  C
  C275     1.0000 0.16726  0.48969  0.41040  Biso   1.000  C
  C276     1.0000 0.90408  0.33202  0.51408  Biso   1.000  C
  C277     1.0000 0.01723  0.89116  0.16286  Biso   1.000  C
  C278     1.0000 0.15309  0.98783  0.89591  Biso   1.000  C
  C279     1.0000 0.90167  0.13123  0.99463  Biso   1.000  C
  C280     1.0000 0.50265  0.88238  0.35284  Biso   1.000  C
  C281     1.0000 0.65201  0.98932  0.61032  Biso   1.000  C
  C282     1.0000 0.40081  0.13939  0.48608  Biso   1.000  C
  C283     1.0000 0.51263  0.37841  0.15037  Biso   1.000  C
  C284     1.0000 0.34976  0.50701  0.90153  Biso   1.000  C
  C285     1.0000 0.61080  0.63504  0.99966  Biso   1.000  C
  C286     1.0000 0.01357  0.38951  0.34954  Biso   1.000  C
  C287     1.0000 0.84589  0.48805  0.60899  Biso   1.000  C
  C288     1.0000 0.11030  0.64092  0.52555  Biso   1.000  C
  C289     1.0000 0.35005  0.85294  0.51914  Biso   1.000  C
  C290     1.0000 0.48158  0.34064  0.86035  Biso   1.000  C
  C291     1.0000 0.88438  0.49577  0.34771  Biso   1.000  C
  C292     1.0000 0.85526  0.84795  0.00143  Biso   1.000  C
  C293     1.0000 0.00330  0.32287  0.63111  Biso   1.000  C
  C294     1.0000 0.38490  0.48709  0.16333  Biso   1.000  C
  C295     1.0000 0.15972  0.35396  0.50206  Biso   1.000  C
  C296     1.0000 0.01620  0.82611  0.87869  Biso   1.000  C
  C297     1.0000 0.64250  0.98680  0.34815  Biso   1.000  C
  C298     1.0000 0.66034  0.34499  0.98931  Biso   1.000  C
  C299     1.0000 0.50579  0.84342  0.64678  Biso   1.000  C
  C300     1.0000 0.14639  0.99282  0.14847  Biso   1.000  C
  C301     1.0000 0.65831  0.12171  0.51790  Biso   1.000  C
  C302     1.0000 0.52185  0.63287  0.14916  Biso   1.000  C
  C303     1.0000 0.12849  0.47590  0.66723  Biso   1.000  C
  C304     1.0000 0.15690  0.12601  0.99952  Biso   1.000  C
  C305     1.0000 0.02507  0.64298  0.37741  Biso   1.000  C
  C306     1.0000 0.63164  0.48732  0.84450  Biso   1.000  C
  C307     1.0000 0.85161  0.62320  0.50046  Biso   1.000  C
  C308     1.0000 0.00942  0.14936  0.13457  Biso   1.000  C
  C309     1.0000 0.36225  0.99130  0.65726  Biso   1.000  C
  C310     1.0000 0.35542  0.62737  0.01484  Biso   1.000  C
  C311     1.0000 0.51584  0.13416  0.36306  Biso   1.000  C
  C312     1.0000 0.86334  0.97336  0.85346  Biso   1.000  C
  C313     1.0000 0.17117  0.49038  0.37859  Biso   1.000  C
  C314     1.0000 0.37055  0.14275  0.48680  Biso   1.000  C
  C315     1.0000 0.51275  0.34672  0.14975  Biso   1.000  C
  C316     1.0000 0.67035  0.48644  0.13461  Biso   1.000  C
  C317     1.0000 0.86982  0.13245  0.99361  Biso   1.000  C
  C318     1.0000 0.00948  0.35918  0.34681  Biso   1.000  C
  C319     1.0000 0.35643  0.97110  0.36277  Biso   1.000  C
  C320     1.0000 0.14111  0.64334  0.53180  Biso   1.000  C
  C321     1.0000 0.01492  0.86011  0.16632  Biso   1.000  C
  C322     1.0000 0.85355  0.98803  0.14113  Biso   1.000  C
  C323     1.0000 0.64180  0.63346  0.00155  Biso   1.000  C
  C324     1.0000 0.50064  0.85023  0.35440  Biso   1.000  C
  C325     1.0000 0.84149  0.48770  0.64037  Biso   1.000  C
  C326     1.0000 0.63960  0.83360  0.50670  Biso   1.000  C
  C327     1.0000 0.50774  0.62882  0.85375  Biso   1.000  C
  C328     1.0000 0.34827  0.50172  0.87052  Biso   1.000  C
  C329     1.0000 0.14557  0.83515  0.02219  Biso   1.000  C
  C330     1.0000 0.99416  0.61245  0.66587  Biso   1.000  C
  C331     1.0000 0.65158  0.98603  0.64066  Biso   1.000  C
  C332     1.0000 0.87293  0.33084  0.51122  Biso   1.000  C
  C333     1.0000 0.99193  0.11269  0.84545  Biso   1.000  C
  C334     1.0000 0.15413  0.98337  0.86403  Biso   1.000  C
  C335     1.0000 0.37463  0.33916  0.01075  Biso   1.000  C
  C336     1.0000 0.48631  0.13210  0.65219  Biso   1.000  C
  C337     1.0000 0.65353  0.48483  0.86630  Biso   1.000  C
  C338     1.0000 0.87323  0.64447  0.50334  Biso   1.000  C
  C339     1.0000 0.50182  0.86689  0.66619  Biso   1.000  C
  C340     1.0000 0.15077  0.47893  0.64756  Biso   1.000  C
  C341     1.0000 0.37726  0.64849  0.01749  Biso   1.000  C
  C342     1.0000 0.01872  0.84807  0.85551  Biso   1.000  C
  C343     1.0000 0.84408  0.97350  0.87639  Biso   1.000  C
  C344     1.0000 0.63643  0.14183  0.51728  Biso   1.000  C
  C345     1.0000 0.99839  0.34458  0.65196  Biso   1.000  C
  C346     1.0000 0.34382  0.98905  0.63289  Biso   1.000  C
  C347     1.0000 0.13601  0.14882  0.00008  Biso   1.000  C
  C348     1.0000 0.48316  0.36110  0.83921  Biso   1.000  C
  C349     1.0000 0.36281  0.48957  0.14158  Biso   1.000  C
  C350     1.0000 0.13887  0.33251  0.49589  Biso   1.000  C
  C351     1.0000 0.51328  0.11331  0.34107  Biso   1.000  C
  C352     1.0000 0.86239  0.49208  0.36819  Biso   1.000  C
  C353     1.0000 0.63828  0.32454  0.98442  Biso   1.000  C
  C354     1.0000 0.01430  0.12838  0.15682  Biso   1.000  C
  C355     1.0000 0.16812  0.98958  0.12838  Biso   1.000  C
  C356     1.0000 0.37230  0.83346  0.52653  Biso   1.000  C
  C357     1.0000 0.02277  0.62379  0.35371  Biso   1.000  C
  C358     1.0000 0.66294  0.98813  0.37062  Biso   1.000  C
  C359     1.0000 0.87822  0.82669  0.00041  Biso   1.000  C
  C360     1.0000 0.52471  0.61157  0.17111  Biso   1.000  C
  C361     1.0000 0.99224  0.13418  0.86490  Biso   1.000  C
  C362     1.0000 0.87589  0.99339  0.16166  Biso   1.000  C
  C363     1.0000 0.16599  0.85670  0.01835  Biso   1.000  C
  C364     1.0000 0.48444  0.15146  0.62824  Biso   1.000  C
  C365     1.0000 0.37785  0.97046  0.34057  Biso   1.000  C
  C366     1.0000 0.66107  0.85448  0.50728  Biso   1.000  C
  C367     1.0000 0.51025  0.64735  0.87675  Biso   1.000  C
  C368     1.0000 0.64958  0.48433  0.15657  Biso   1.000  C
  C369     1.0000 0.35440  0.36178  0.00578  Biso   1.000  C
  C370     1.0000 0.99580  0.63618  0.64561  Biso   1.000  C
  C371     1.0000 0.15223  0.49081  0.35457  Biso   1.000  C
  C372     1.0000 0.85081  0.35119  0.50767  Biso   1.000  C
  C373     1.0000 0.01265  0.83630  0.14800  Biso   1.000  C
  C374     1.0000 0.13243  0.98247  0.84204  Biso   1.000  C
  C375     1.0000 0.84967  0.11097  0.99708  Biso   1.000  C
  C376     1.0000 0.49715  0.83070  0.37739  Biso   1.000  C
  C377     1.0000 0.62790  0.98772  0.66085  Biso   1.000  C
  C378     1.0000 0.34805  0.12212  0.48563  Biso   1.000  C
  C379     1.0000 0.51410  0.32613  0.12722  Biso   1.000  C
  C380     1.0000 0.36731  0.49871  0.84571  Biso   1.000  C
  C381     1.0000 0.66247  0.61153  0.00073  Biso   1.000  C
  C382     1.0000 0.00404  0.33594  0.36631  Biso   1.000  C
  C383     1.0000 0.86137  0.48665  0.66412  Biso   1.000  C
  C384     1.0000 0.16258  0.62222  0.53124  Biso   1.000  C
  C385     1.0000 0.18433  0.14332  0.00028  Biso   1.000  C
  C386     1.0000 0.00845  0.17676  0.15073  Biso   1.000  C
  C387     1.0000 0.16163  0.98953  0.17572  Biso   1.000  C
  C388     1.0000 0.68464  0.13753  0.51880  Biso   1.000  C
  C389     1.0000 0.51961  0.16021  0.34698  Biso   1.000  C
  C390     1.0000 0.65829  0.98494  0.32200  Biso   1.000  C
  C391     1.0000 0.32978  0.64334  0.01259  Biso   1.000  C
  C392     1.0000 0.51925  0.65825  0.16513  Biso   1.000  C
  C393     1.0000 0.36929  0.48725  0.19052  Biso   1.000  C
  C394     1.0000 0.82478  0.63840  0.49802  Biso   1.000  C
  C395     1.0000 0.02312  0.67100  0.36272  Biso   1.000  C
  C396     1.0000 0.87002  0.49751  0.32036  Biso   1.000  C
  C397     1.0000 0.82938  0.82987  0.99977  Biso   1.000  C
  C398     1.0000 0.01459  0.79916  0.86307  Biso   1.000  C
  C399     1.0000 0.84511  0.97473  0.82732  Biso   1.000  C
  C400     1.0000 0.32280  0.84027  0.52711  Biso   1.000  C
  C401     1.0000 0.51107  0.81889  0.66472  Biso   1.000  C
  C402     1.0000 0.34565  0.99089  0.68266  Biso   1.000  C
  C403     1.0000 0.68648  0.32866  0.98784  Biso   1.000  C
  C404     1.0000 0.47776  0.31442  0.84408  Biso   1.000  C
  C405     1.0000 0.64693  0.49331  0.81729  Biso   1.000  C
  C406     1.0000 0.18667  0.33833  0.50336  Biso   1.000  C
  C407     1.0000 0.99843  0.29524  0.64632  Biso   1.000  C
  C408     1.0000 0.14306  0.47353  0.69511  Biso   1.000  C
  C409     1.0000 0.14745  0.97942  0.81498  Biso   1.000  C
  C410     1.0000 0.82148  0.12593  0.99619  Biso   1.000  C
  C411     1.0000 0.00904  0.81177  0.16677  Biso   1.000  C
  C412     1.0000 0.64241  0.98622  0.68825  Biso   1.000  C
  C413     1.0000 0.32170  0.13793  0.48730  Biso   1.000  C
  C414     1.0000 0.49667  0.80302  0.36272  Biso   1.000  C
  C415     1.0000 0.34898  0.49583  0.82038  Biso   1.000  C
  C416     1.0000 0.69014  0.62606  0.99919  Biso   1.000  C
  C417     1.0000 0.51223  0.29780  0.14115  Biso   1.000  C
  C418     1.0000 0.84543  0.49052  0.69058  Biso   1.000  C
  C419     1.0000 0.18937  0.63755  0.53604  Biso   1.000  C
  C420     1.0000 0.00127  0.31076  0.34828  Biso   1.000  C
  C421     1.0000 0.86202  0.99312  0.18942  Biso   1.000  C
  C422     1.0000 0.19340  0.84308  0.02261  Biso   1.000  C
  C423     1.0000 0.98643  0.16080  0.84749  Biso   1.000  C
  C424     1.0000 0.36052  0.96884  0.31424  Biso   1.000  C
  C425     1.0000 0.68856  0.84015  0.50583  Biso   1.000  C
  C426     1.0000 0.47812  0.17856  0.64172  Biso   1.000  C
  C427     1.0000 0.66651  0.48635  0.18277  Biso   1.000  C
  C428     1.0000 0.32738  0.34611  0.00523  Biso   1.000  C
  C429     1.0000 0.51050  0.67559  0.86409  Biso   1.000  C
  C430     1.0000 0.16995  0.48844  0.32832  Biso   1.000  C
  C431     1.0000 0.82433  0.33645  0.51159  Biso   1.000  C
  C432     1.0000 0.99423  0.65961  0.66430  Biso   1.000  C
  C433     1.0000 0.98589  0.12618  0.81802  Biso   1.000  C
  C434     1.0000 0.82800  0.98588  0.15847  Biso   1.000  C
  C435     1.0000 0.16162  0.80930  0.02905  Biso   1.000  C
  C436     1.0000 0.48008  0.14884  0.67738  Biso   1.000  C
  C437     1.0000 0.32901  0.96849  0.34799  Biso   1.000  C
  C438     1.0000 0.65595  0.80664  0.50845  Biso   1.000  C
  C439     1.0000 0.50908  0.64652  0.82780  Biso   1.000  C
  C440     1.0000 0.69851  0.48812  0.14842  Biso   1.000  C
  C441     1.0000 0.35845  0.31267  0.01055  Biso   1.000  C
  C442     1.0000 0.99510  0.62510  0.69490  Biso   1.000  C
  C443     1.0000 0.19942  0.49036  0.36405  Biso   1.000  C
  C444     1.0000 0.85737  0.30384  0.51486  Biso   1.000  C
  C445     1.0000 0.01619  0.84822  0.19440  Biso   1.000  C
  C446     1.0000 0.18008  0.98207  0.84720  Biso   1.000  C
  C447     1.0000 0.85321  0.15685  0.98816  Biso   1.000  C
  C448     1.0000 0.50658  0.83311  0.32893  Biso   1.000  C
  C449     1.0000 0.67817  0.98280  0.65902  Biso   1.000  C
  C450     1.0000 0.35560  0.16977  0.48679  Biso   1.000  C
  C451     1.0000 0.51283  0.32885  0.17485  Biso   1.000  C
  C452     1.0000 0.32020  0.49768  0.85640  Biso   1.000  C
  C453     1.0000 0.65911  0.65929  0.99954  Biso   1.000  C
  C454     1.0000 0.00918  0.34610  0.31932  Biso   1.000  C
  C455     1.0000 0.81388  0.49338  0.65394  Biso   1.000  C
  C456     1.0000 0.15588  0.67038  0.53905  Biso   1.000  C
  C457     1.0000 0.02296  0.64125  0.32752  Biso   1.000  C
  C458     1.0000 0.31645  0.98364  0.64619  Biso   1.000  C
  C459     1.0000 0.65268  0.29733  0.98106  Biso   1.000  C
  C460     1.0000 0.52384  0.62665  0.19923  Biso   1.000  C
  C461     1.0000 0.81548  0.97495  0.86225  Biso   1.000  C
  C462     1.0000 0.15514  0.30699  0.49259  Biso   1.000  C
  C463     1.0000 0.51396  0.12814  0.31337  Biso   1.000  C
  C464     1.0000 0.17667  0.47742  0.66374  Biso   1.000  C
  C465     1.0000 0.86478  0.79902  0.00101  Biso   1.000  C
  C466     1.0000 0.01503  0.14327  0.18417  Biso   1.000  C
  C467     1.0000 0.68050  0.48733  0.85038  Biso   1.000  C
  C468     1.0000 0.35575  0.80819  0.53550  Biso   1.000  C
  C469     1.0000 0.99234  0.32719  0.67829  Biso   1.000  C
  C470     1.0000 0.69034  0.98660  0.35581  Biso   1.000  C
  C471     1.0000 0.36292  0.67599  0.01811  Biso   1.000  C
  C472     1.0000 0.48189  0.34667  0.81222  Biso   1.000  C
  C473     1.0000 0.19519  0.98610  0.14389  Biso   1.000  C
  C474     1.0000 0.85892  0.67099  0.50322  Biso   1.000  C
  C475     1.0000 0.50548  0.85285  0.69468  Biso   1.000  C
  C476     1.0000 0.83589  0.49023  0.34987  Biso   1.000  C
  C477     1.0000 0.15157  0.17622  0.00063  Biso   1.000  C
  C478     1.0000 0.01927  0.83102  0.82937  Biso   1.000  C
  C479     1.0000 0.33587  0.49150  0.15761  Biso   1.000  C
  C480     1.0000 0.65207  0.16938  0.51839  Biso   1.000  C
  C481     1.0000 0.37297  0.78202  0.54403  Biso   1.000  C
  C482     1.0000 0.48224  0.36267  0.78494  Biso   1.000  C
  C483     1.0000 0.80863  0.48371  0.36421  Biso   1.000  C
  C484     1.0000 0.88283  0.77227  0.99857  Biso   1.000  C
  C485     1.0000 0.98431  0.34188  0.70448  Biso   1.000  C
  C486     1.0000 0.30809  0.49482  0.14227  Biso   1.000  C
  C487     1.0000 0.14059  0.27923  0.48827  Biso   1.000  C
  C488     1.0000 0.02320  0.84627  0.80095  Biso   1.000  C
  C489     1.0000 0.71823  0.98610  0.37213  Biso   1.000  C
  C490     1.0000 0.63456  0.27138  0.97652  Biso   1.000  C
  C491     1.0000 0.50505  0.86900  0.72120  Biso   1.000  C
  C492     1.0000 0.22140  0.98039  0.12895  Biso   1.000  C
  C493     1.0000 0.63658  0.19610  0.51924  Biso   1.000  C
  C494     1.0000 0.52458  0.60833  0.22636  Biso   1.000  C
  C495     1.0000 0.20391  0.48361  0.64883  Biso   1.000  C
  C496     1.0000 0.13444  0.20342  0.00585  Biso   1.000  C
  C497     1.0000 0.02535  0.62650  0.29962  Biso   1.000  C
  C498     1.0000 0.70724  0.48169  0.86536  Biso   1.000  C
  C499     1.0000 0.87484  0.69846  0.50927  Biso   1.000  C
  C500     1.0000 0.01964  0.12538  0.21017  Biso   1.000  C
  C501     1.0000 0.29239  0.97878  0.62742  Biso   1.000  C
  C502     1.0000 0.38106  0.70140  0.02327  Biso   1.000  C
  C503     1.0000 0.51054  0.11141  0.28709  Biso   1.000  C
  C504     1.0000 0.78912  0.97392  0.87870  Biso   1.000  C
  C505     1.0000 0.63131  0.49986  0.79034  Biso   1.000  C
  C506     1.0000 0.79895  0.62067  0.49256  Biso   1.000  C
  C507     1.0000 0.51843  0.78964  0.65142  Biso   1.000  C
  C508     1.0000 0.12540  0.47027  0.71970  Biso   1.000  C
  C509     1.0000 0.30190  0.62707  0.00569  Biso   1.000  C
  C510     1.0000 0.00987  0.77387  0.88089  Biso   1.000  C
  C511     1.0000 0.85946  0.97500  0.79998  Biso   1.000  C
  C512     1.0000 0.71218  0.12378  0.51493  Biso   1.000  C
  C513     1.0000 0.00310  0.26789  0.63081  Biso   1.000  C
  C514     1.0000 0.36236  0.99542  0.70952  Biso   1.000  C
  C515     1.0000 0.21154  0.12945  0.99697  Biso   1.000  C
  C516     1.0000 0.47546  0.28536  0.85894  Biso   1.000  C
  C517     1.0000 0.38506  0.48605  0.21897  Biso   1.000  C
  C518     1.0000 0.21359  0.35386  0.50484  Biso   1.000  C
  C519     1.0000 0.52535  0.18766  0.36042  Biso   1.000  C
  C520     1.0000 0.88775  0.50418  0.29557  Biso   1.000  C
  C521     1.0000 0.71394  0.34366  0.99239  Biso   1.000  C
  C522     1.0000 0.00798  0.20366  0.13190  Biso   1.000  C
  C523     1.0000 0.14639  0.99386  0.20363  Biso   1.000  C
  C524     1.0000 0.29683  0.85634  0.52025  Biso   1.000  C
  C525     1.0000 0.02303  0.69787  0.38010  Biso   1.000  C
  C526     1.0000 0.64331  0.98392  0.29406  Biso   1.000  C
  C527     1.0000 0.80113  0.84330  0.00071  Biso   1.000  C
  C528     1.0000 0.51409  0.68607  0.14774  Biso   1.000  C
  C529     1.0000 0.79622  0.11046  0.00457  Biso   1.000  C
  C530     1.0000 0.00406  0.78277  0.15288  Biso   1.000  C
  C531     1.0000 0.13006  0.97905  0.78831  Biso   1.000  C
  C532     1.0000 0.29464  0.12249  0.49034  Biso   1.000  C
  C533     1.0000 0.49519  0.77594  0.37980  Biso   1.000  C
  C534     1.0000 0.62477  0.98641  0.71419  Biso   1.000  C
  C535     1.0000 0.71691  0.60916  0.99972  Biso   1.000  C
  C536     1.0000 0.51021  0.27226  0.12397  Biso   1.000  C
  C537     1.0000 0.36276  0.49236  0.79229  Biso   1.000  C
  C538     1.0000 0.21506  0.62081  0.53358  Biso   1.000  C
  C539     1.0000 0.99533  0.28213  0.36248  Biso   1.000  C
  C540     1.0000 0.86084  0.49210  0.71767  Biso   1.000  C
  C541     1.0000 0.21984  0.86028  0.02338  Biso   1.000  C
  C542     1.0000 0.98841  0.18798  0.86325  Biso   1.000  C
  C543     1.0000 0.88128  0.99706  0.21568  Biso   1.000  C
  C544     1.0000 0.71547  0.85654  0.50301  Biso   1.000  C
  C545     1.0000 0.47245  0.20429  0.62228  Biso   1.000  C
  C546     1.0000 0.37516  0.96610  0.28641  Biso   1.000  C
  C547     1.0000 0.30121  0.36142  0.00304  Biso   1.000  C
  C548     1.0000 0.51535  0.70022  0.88220  Biso   1.000  C
  C549     1.0000 0.64959  0.48619  0.20920  Biso   1.000  C
  C550     1.0000 0.79832  0.35242  0.51036  Biso   1.000  C
  C551     1.0000 0.99462  0.68846  0.65059  Biso   1.000  C
  C552     1.0000 0.15438  0.48435  0.30078  Biso   1.000  C
  C553     1.0000 0.98306  0.11052  0.79003  Biso   1.000  C
  C554     1.0000 0.80013  0.98598  0.14364  Biso   1.000  C
  C555     1.0000 0.14597  0.78129  0.03154  Biso   1.000  C
  C556     1.0000 0.48132  0.13612  0.70586  Biso   1.000  C
  C557     1.0000 0.30197  0.96926  0.36387  Biso   1.000  C
  C558     1.0000 0.63840  0.78010  0.51228  Biso   1.000  C
  C559     1.0000 0.50612  0.63307  0.79958  Biso   1.000  C
  C560     1.0000 0.72485  0.49038  0.13051  Biso   1.000  C
  C561     1.0000 0.37318  0.28570  0.01251  Biso   1.000  C
  C562     1.0000 0.99488  0.60812  0.72208  Biso   1.000  C
  C563     1.0000 0.22534  0.49037  0.38327  Biso   1.000  C
  C564     1.0000 0.87247  0.27677  0.52199  Biso   1.000  C
  C565     1.0000 0.02068  0.86557  0.22085  Biso   1.000  C
  C566     1.0000 0.20921  0.98180  0.86287  Biso   1.000  C
  C567     1.0000 0.86941  0.18283  0.98004  Biso   1.000  C
  C568     1.0000 0.51320  0.84873  0.30118  Biso   1.000  C
  C569     1.0000 0.70588  0.98381  0.64188  Biso   1.000  C
  C570     1.0000 0.37144  0.19733  0.48357  Biso   1.000  C
  C571     1.0000 0.51528  0.34097  0.20333  Biso   1.000  C
  C572     1.0000 0.29362  0.49701  0.87460  Biso   1.000  C
  C573     1.0000 0.64506  0.68743  0.99982  Biso   1.000  C
  C574     1.0000 0.01272  0.36462  0.29387  Biso   1.000  C
  C575     1.0000 0.78870  0.49647  0.63458  Biso   1.000  C
  C576     1.0000 0.13796  0.69596  0.54054  Biso   1.000  C
  C577     1.0000 0.30793  0.49657  0.11112  Biso   1.000  C
  C578     1.0000 0.10872  0.27840  0.48585  Biso   1.000  C
  C579     1.0000 0.50636  0.08102  0.28882  Biso   1.000  C
  C580     1.0000 0.80867  0.48517  0.39614  Biso   1.000  C
  C581     1.0000 0.60320  0.27322  0.97368  Biso   1.000  C
  C582     1.0000 0.02236  0.09453  0.21100  Biso   1.000  C
  C583     1.0000 0.22123  0.98353  0.09751  Biso   1.000  C
  C584     1.0000 0.40417  0.78233  0.54064  Biso   1.000  C
  C585     1.0000 0.02529  0.59391  0.29926  Biso   1.000  C
  C586     1.0000 0.71695  0.99008  0.40415  Biso   1.000  C
  C587     1.0000 0.91265  0.77565  0.00462  Biso   1.000  C
  C588     1.0000 0.52604  0.57713  0.22366  Biso   1.000  C
  C589     1.0000 0.70587  0.47550  0.89587  Biso   1.000  C
  C590     1.0000 0.90553  0.69756  0.51239  Biso   1.000  C
  C591     1.0000 0.49858  0.89965  0.71906  Biso   1.000  C
  C592     1.0000 0.20500  0.48526  0.61798  Biso   1.000  C
  C593     1.0000 0.41235  0.69931  0.02658  Biso   1.000  C
  C594     1.0000 0.02156  0.87798  0.80004  Biso   1.000  C
  C595     1.0000 0.78915  0.96872  0.91000  Biso   1.000  C
  C596     1.0000 0.60528  0.19553  0.51806  Biso   1.000  C
  C597     1.0000 0.98425  0.37299  0.70698  Biso   1.000  C
  C598     1.0000 0.29508  0.98411  0.59692  Biso   1.000  C
  C599     1.0000 0.10259  0.20199  0.00598  Biso   1.000  C
  C600     1.0000 0.48847  0.39366  0.78526  Biso   1.000  C
  C601     1.0000 0.20847  0.98465  0.89370  Biso   1.000  C
  C602     1.0000 0.90061  0.18421  0.98386  Biso   1.000  C
  C603     1.0000 0.02069  0.89651  0.21739  Biso   1.000  C
  C604     1.0000 0.70606  0.98728  0.61076  Biso   1.000  C
  C605     1.0000 0.40343  0.19409  0.47942  Biso   1.000  C
  C606     1.0000 0.51526  0.88167  0.29990  Biso   1.000  C
  C607     1.0000 0.29523  0.50252  0.90521  Biso   1.000  C
  C608     1.0000 0.61433  0.68886  0.99820  Biso   1.000  C
  C609     1.0000 0.51482  0.37285  0.20556  Biso   1.000  C
  C610     1.0000 0.79264  0.49529  0.60256  Biso   1.000  C
  C611     1.0000 0.10807  0.69401  0.53236  Biso   1.000  C
  C612     1.0000 0.01660  0.39548  0.29563  Biso   1.000  C
  C613     1.0000 0.79861  0.98341  0.11095  Biso   1.000  C
  C614     1.0000 0.11386  0.78069  0.03080  Biso   1.000  C
  C615     1.0000 0.98723  0.07886  0.79246  Biso   1.000  C
  C616     1.0000 0.30288  0.97323  0.39534  Biso   1.000  C
  C617     1.0000 0.60728  0.78029  0.51282  Biso   1.000  C
  C618     1.0000 0.48644  0.10491  0.70836  Biso   1.000  C
  C619     1.0000 0.72165  0.49124  0.09709  Biso   1.000  C
  C620     1.0000 0.40449  0.28463  0.01257  Biso   1.000  C
  C621     1.0000 0.50557  0.60154  0.79736  Biso   1.000  C
  C622     1.0000 0.22114  0.49089  0.41471  Biso   1.000  C
  C623     1.0000 0.90375  0.27891  0.52393  Biso   1.000  C
  C624     1.0000 0.99125  0.57855  0.72063  Biso   1.000  C
  C625     1.0000 0.99362  0.18757  0.89470  Biso   1.000  C
  C626     1.0000 0.91254  0.00200  0.21350  Biso   1.000  C
  C627     1.0000 0.21894  0.89104  0.01576  Biso   1.000  C
  C628     1.0000 0.47625  0.20374  0.59098  Biso   1.000  C
  C629     1.0000 0.40843  0.96648  0.28666  Biso   1.000  C
  C630     1.0000 0.71394  0.88803  0.50213  Biso   1.000  C
  C631     1.0000 0.51560  0.69810  0.91315  Biso   1.000  C
  C632     1.0000 0.61755  0.48332  0.20929  Biso   1.000  C
  C633     1.0000 0.30253  0.39144  0.99759  Biso   1.000  C
  C634     1.0000 0.99501  0.69125  0.61860  Biso   1.000  C
  C635     1.0000 0.12293  0.48467  0.30019  Biso   1.000  C
  C636     1.0000 0.79754  0.38421  0.50964  Biso   1.000  C
  C637     1.0000 0.00471  0.78063  0.12174  Biso   1.000  C
  C638     1.0000 0.09820  0.98251  0.78924  Biso   1.000  C
  C639     1.0000 0.79821  0.07961  0.01080  Biso   1.000  C
  C640     1.0000 0.49402  0.77829  0.41118  Biso   1.000  C
  C641     1.0000 0.59391  0.99277  0.71436  Biso   1.000  C
  C642     1.0000 0.29622  0.08996  0.48857  Biso   1.000  C
  C643     1.0000 0.51013  0.27626  0.09238  Biso   1.000  C
  C644     1.0000 0.39516  0.49751  0.79027  Biso   1.000  C
  C645     1.0000 0.71503  0.57766  0.00204  Biso   1.000  C
  C646     1.0000 0.99150  0.28131  0.39443  Biso   1.000  C
  C647     1.0000 0.89250  0.48810  0.71724  Biso   1.000  C
  C648     1.0000 0.21422  0.59027  0.52557  Biso   1.000  C
  C649     1.0000 0.02099  0.69723  0.41255  Biso   1.000  C
  C650     1.0000 0.39297  0.00203  0.70959  Biso   1.000  C
  C651     1.0000 0.71315  0.37426  0.99752  Biso   1.000  C
  C652     1.0000 0.51305  0.68691  0.11547  Biso   1.000  C
  C653     1.0000 0.88979  0.97038  0.79893  Biso   1.000  C
  C654     1.0000 0.21263  0.38591  0.50720  Biso   1.000  C
  C655     1.0000 0.52609  0.18786  0.39174  Biso   1.000  C
  C656     1.0000 0.09353  0.46771  0.71686  Biso   1.000  C
  C657     1.0000 0.79970  0.87504  0.00126  Biso   1.000  C
  C658     1.0000 0.00391  0.20057  0.10005  Biso   1.000  C
  C659     1.0000 0.59949  0.49883  0.78977  Biso   1.000  C
  C660     1.0000 0.29808  0.88694  0.51051  Biso   1.000  C
  C661     1.0000 0.01103  0.26979  0.60059  Biso   1.000  C
  C662     1.0000 0.61066  0.98688  0.29494  Biso   1.000  C
  C663     1.0000 0.30219  0.59531  0.00648  Biso   1.000  C
  C664     1.0000 0.47909  0.28487  0.89068  Biso   1.000  C
  C665     1.0000 0.11552  0.99682  0.20349  Biso   1.000  C
  C666     1.0000 0.80148  0.58809  0.49022  Biso   1.000  C
  C667     1.0000 0.52039  0.78893  0.61962  Biso   1.000  C
  C668     1.0000 0.91943  0.50458  0.29717  Biso   1.000  C
  C669     1.0000 0.21000  0.09806  0.99345  Biso   1.000  C
  C670     1.0000 0.00855  0.77538  0.91306  Biso   1.000  C
  C671     1.0000 0.41620  0.48157  0.21802  Biso   1.000  C
  C672     1.0000 0.71349  0.09253  0.51537  Biso   1.000  C
  C673     1.0000 0.19224  0.97642  0.79968  Biso   1.000  C
  C674     1.0000 0.80557  0.17048  0.98408  Biso   1.000  C
  C675     1.0000 0.01409  0.80151  0.21094  Biso   1.000  C
  C676     1.0000 0.68812  0.98123  0.70685  Biso   1.000  C
  C677     1.0000 0.31029  0.18517  0.48792  Biso   1.000  C
  C678     1.0000 0.50672  0.78560  0.31847  Biso   1.000  C
  C679     1.0000 0.30199  0.48831  0.81185  Biso   1.000  C
  C680     1.0000 0.70679  0.67257  0.00095  Biso   1.000  C
  C681     1.0000 0.51109  0.28083  0.18630  Biso   1.000  C
  C682     1.0000 0.79974  0.49895  0.70219  Biso   1.000  C
  C683     1.0000 0.20361  0.68369  0.54255  Biso   1.000  C
  C684     1.0000 0.00480  0.30025  0.30023  Biso   1.000  C
  C685     1.0000 0.81566  0.98394  0.20454  Biso   1.000  C
  C686     1.0000 0.20941  0.79762  0.02464  Biso   1.000  C
  C687     1.0000 0.98103  0.17136  0.80002  Biso   1.000  C
  C688     1.0000 0.31476  0.96974  0.30137  Biso   1.000  C
  C689     1.0000 0.70317  0.79173  0.50780  Biso   1.000  C
  C690     1.0000 0.47344  0.19598  0.68668  Biso   1.000  C
  C691     1.0000 0.71260  0.48818  0.19511  Biso   1.000  C
  C692     1.0000 0.31270  0.29926  0.01195  Biso   1.000  C
  C693     1.0000 0.51031  0.69256  0.81685  Biso   1.000  C
  C694     1.0000 0.21697  0.48768  0.31802  Biso   1.000  C
  C695     1.0000 0.81040  0.28853  0.51363  Biso   1.000  C
  C696     1.0000 0.99715  0.67146  0.71258  Biso   1.000  C
  C697     1.0000 0.70669  0.98233  0.30953  Biso   1.000  C
  C698     1.0000 0.31590  0.69035  0.01397  Biso   1.000  C
  C699     1.0000 0.98825  0.28079  0.69288  Biso   1.000  C
  C700     1.0000 0.20912  0.98348  0.18997  Biso   1.000  C
  C701     1.0000 0.81320  0.68483  0.50277  Biso   1.000  C
  C702     1.0000 0.47595  0.30229  0.79736  Biso   1.000  C
  C703     1.0000 0.82247  0.49393  0.30304  Biso   1.000  C
  C704     1.0000 0.19635  0.19187  0.00318  Biso   1.000  C
  C705     1.0000 0.51259  0.80876  0.71271  Biso   1.000  C
  C706     1.0000 0.32166  0.48824  0.20553  Biso   1.000  C
  C707     1.0000 0.69912  0.18446  0.51774  Biso   1.000  C
  C708     1.0000 0.01135  0.78538  0.81508  Biso   1.000  C
  C709     1.0000 0.30073  0.98402  0.69406  Biso   1.000  C
  C710     1.0000 0.69941  0.28223  0.97982  Biso   1.000  C
  C711     1.0000 0.02176  0.68889  0.31615  Biso   1.000  C
  C712     1.0000 0.79893  0.97666  0.81633  Biso   1.000  C
  C713     1.0000 0.20247  0.29344  0.49500  Biso   1.000  C
  C714     1.0000 0.52043  0.67294  0.21175  Biso   1.000  C
  C715     1.0000 0.18991  0.47250  0.71133  Biso   1.000  C
  C716     1.0000 0.82000  0.78167  0.99680  Biso   1.000  C
  C717     1.0000 0.51890  0.17468  0.29948  Biso   1.000  C
  C718     1.0000 0.69417  0.50082  0.80559  Biso   1.000  C
  C719     1.0000 0.30953  0.79376  0.54078  Biso   1.000  C
  C720     1.0000 0.01165  0.18913  0.19775  Biso   1.000  C
  C721     1.0000 0.53083  0.78668  0.29706  Biso   1.000  C
  C722     1.0000 0.30250  0.49969  0.78132  Biso   1.000  C
  C723     1.0000 0.78329  0.29309  0.52933  Biso   1.000  C
  C724     1.0000 0.99120  0.77886  0.21452  Biso   1.000  C
  C725     1.0000 0.77614  0.51919  0.69577  Biso   1.000  C
  C726     1.0000 0.28649  0.30258  0.99452  Biso   1.000  C
  C727     1.0000 0.98357  0.27755  0.29825  Biso   1.000  C
  C728     1.0000 0.21890  0.99282  0.80081  Biso   1.000  C
  C729     1.0000 0.73404  0.79668  0.51922  Biso   1.000  C
  C730     1.0000 0.49286  0.28218  0.21250  Biso   1.000  C
  C731     1.0000 0.71421  0.96522  0.70422  Biso   1.000  C
  C732     1.0000 0.23104  0.79990  0.00161  Biso   1.000  C
  C733     1.0000 0.45391  0.19315  0.71101  Biso   1.000  C
  C734     1.0000 0.71018  0.46944  0.22033  Biso   1.000  C
  C735     1.0000 0.19821  0.71244  0.52882  Biso   1.000  C
  C736     1.0000 0.96361  0.19853  0.80294  Biso   1.000  C
  C737     1.0000 0.24503  0.47394  0.32515  Biso   1.000  C
  C738     1.0000 0.73428  0.66896  0.01800  Biso   1.000  C
  C739     1.0000 0.01907  0.66996  0.73692  Biso   1.000  C
  C740     1.0000 0.79261  0.96288  0.20155  Biso   1.000  C
  C741     1.0000 0.28159  0.18315  0.47585  Biso   1.000  C
  C742     1.0000 0.52642  0.69044  0.78682  Biso   1.000  C
  C743     1.0000 0.29128  0.94971  0.29846  Biso   1.000  C
  C744     1.0000 0.80948  0.20080  0.99414  Biso   1.000  C
  C745     1.0000 0.04059  0.71493  0.32227  Biso   1.000  C
  C746     1.0000 0.27048  0.99167  0.68788  Biso   1.000  C
  C747     1.0000 0.72258  0.28024  0.00191  Biso   1.000  C
  C748     1.0000 0.53445  0.70139  0.20714  Biso   1.000  C
  C749     1.0000 0.80075  0.95874  0.79097  Biso   1.000  C
  C750     1.0000 0.22790  0.29291  0.51460  Biso   1.000  C
  C751     1.0000 0.53224  0.16994  0.27161  Biso   1.000  C
  C752     1.0000 0.21586  0.45561  0.70644  Biso   1.000  C
  C753     1.0000 0.79276  0.78284  0.97926  Biso   1.000  C
  C754     1.0000 0.02947  0.18765  0.22428  Biso   1.000  C
  C755     1.0000 0.69105  0.49331  0.77489  Biso   1.000  C
  C756     1.0000 0.28093  0.79912  0.55380  Biso   1.000  C
  C757     1.0000 0.96905  0.25557  0.68791  Biso   1.000  C
  C758     1.0000 0.70456  0.99464  0.28043  Biso   1.000  C
  C759     1.0000 0.28674  0.68465  0.02501  Biso   1.000  C
  C760     1.0000 0.49361  0.30541  0.77012  Biso   1.000  C
  C761     1.0000 0.23802  0.99562  0.18604  Biso   1.000  C
  C762     1.0000 0.81671  0.71321  0.48956  Biso   1.000  C
  C763     1.0000 0.49370  0.80925  0.73884  Biso   1.000  C
  C764     1.0000 0.79305  0.50707  0.30740  Biso   1.000  C
  C765     1.0000 0.22035  0.18911  0.02345  Biso   1.000  C
  C766     1.0000 0.99415  0.78935  0.78730  Biso   1.000  C
  C767     1.0000 0.32671  0.50235  0.23472  Biso   1.000  C
  C768     1.0000 0.69545  0.21119  0.50035  Biso   1.000  C
  C769     1.0000 0.49569  0.72055  0.82312  Biso   1.000  C
  C770     1.0000 0.80168  0.48804  0.73240  Biso   1.000  C
  C771     1.0000 0.69782  0.76306  0.49748  Biso   1.000  C
  C772     1.0000 0.97703  0.69555  0.71236  Biso   1.000  C
  C773     1.0000 0.27824  0.46797  0.82049  Biso   1.000  C
  C774     1.0000 0.21202  0.77419  0.04471  Biso   1.000  C
  C775     1.0000 0.99883  0.16930  0.77304  Biso   1.000  C
  C776     1.0000 0.68542  0.99626  0.73459  Biso   1.000  C
  C777     1.0000 0.81451  0.26181  0.49722  Biso   1.000  C
  C778     1.0000 0.49022  0.22391  0.68312  Biso   1.000  C
  C779     1.0000 0.18782  0.95732  0.77443  Biso   1.000  C
  C780     1.0000 0.31319  0.27242  0.03042  Biso   1.000  C
  C781     1.0000 0.52755  0.25446  0.18296  Biso   1.000  C
  C782     1.0000 0.21348  0.49973  0.28781  Biso   1.000  C
  C783     1.0000 0.31888  0.21263  0.50113  Biso   1.000  C
  C784     1.0000 0.02907  0.30011  0.28028  Biso   1.000  C
  C785     1.0000 0.73673  0.50696  0.19189  Biso   1.000  C
  C786     1.0000 0.77679  0.16456  0.97161  Biso   1.000  C
  C787     1.0000 0.03983  0.80098  0.22884  Biso   1.000  C
  C788     1.0000 0.31742  0.99431  0.28089  Biso   1.000  C
  C789     1.0000 0.22908  0.67988  0.56047  Biso   1.000  C
  C790     1.0000 0.48626  0.76187  0.31618  Biso   1.000  C
  C791     1.0000 0.81979  0.99928  0.23168  Biso   1.000  C
  C792     1.0000 0.70685  0.69708  0.98008  Biso   1.000  C
  C793     1.0000 0.50457  0.20136  0.30445  Biso   1.000  C
  C794     1.0000 0.29525  0.46982  0.20239  Biso   1.000  C
  C795     1.0000 0.20272  0.26946  0.47400  Biso   1.000  C
  C796     1.0000 0.99484  0.21539  0.19195  Biso   1.000  C
  C797     1.0000 0.82534  0.47792  0.27568  Biso   1.000  C
  C798     1.0000 0.69586  0.25763  0.95948  Biso   1.000  C
  C799     1.0000 0.00702  0.68740  0.28811  Biso   1.000  C
  C800     1.0000 0.20189  0.97061  0.21885  Biso   1.000  C
  C801     1.0000 0.31306  0.76456  0.53216  Biso   1.000  C
  C802     1.0000 0.50665  0.66839  0.24084  Biso   1.000  C
  C803     1.0000 0.73296  0.96454  0.31559  Biso   1.000  C
  C804     1.0000 0.82519  0.75311  0.01179  Biso   1.000  C
  C805     1.0000 0.53361  0.78497  0.71286  Biso   1.000  C
  C806     1.0000 0.72074  0.51507  0.81445  Biso   1.000  C
  C807     1.0000 0.78637  0.67947  0.51848  Biso   1.000  C
  C808     1.0000 0.02102  0.75567  0.82093  Biso   1.000  C
  C809     1.0000 0.18524  0.48407  0.73959  Biso   1.000  C
  C810     1.0000 0.32249  0.71892  0.00196  Biso   1.000  C
  C811     1.0000 0.00258  0.28371  0.72048  Biso   1.000  C
  C812     1.0000 0.77263  0.99344  0.81999  Biso   1.000  C
  C813     1.0000 0.72639  0.18029  0.53325  Biso   1.000  C
  C814     1.0000 0.45613  0.27814  0.79885  Biso   1.000  C
  C815     1.0000 0.30526  0.97030  0.72266  Biso   1.000  C
  C816     1.0000 0.19548  0.21876  0.98503  Biso   1.000  C
  C817     1.0000 0.96327  0.21997  0.78171  Biso   1.000  C
  C818     1.0000 0.77283  0.96285  0.22367  Biso   1.000  C
  C819     1.0000 0.25226  0.77901  0.99928  Biso   1.000  C
  C820     1.0000 0.45217  0.21530  0.73100  Biso   1.000  C
  C821     1.0000 0.27019  0.95279  0.27781  Biso   1.000  C
  C822     1.0000 0.75522  0.77615  0.51677  Biso   1.000  C
  C823     1.0000 0.52627  0.71546  0.76888  Biso   1.000  C
  C824     1.0000 0.73191  0.47168  0.24160  Biso   1.000  C
  C825     1.0000 0.26420  0.28272  0.99453  Biso   1.000  C
  C826     1.0000 0.02047  0.69255  0.75621  Biso   1.000  C
  C827     1.0000 0.26545  0.47084  0.30340  Biso   1.000  C
  C828     1.0000 0.76233  0.27242  0.52854  Biso   1.000  C
  C829     1.0000 0.99433  0.76115  0.23896  Biso   1.000  C
  C830     1.0000 0.23894  0.99151  0.77911  Biso   1.000  C
  C831     1.0000 0.78885  0.22206  0.98964  Biso   1.000  C
  C832     1.0000 0.53460  0.76537  0.27660  Biso   1.000  C
  C833     1.0000 0.73467  0.96300  0.72744  Biso   1.000  C
  C834     1.0000 0.26255  0.20469  0.47929  Biso   1.000  C
  C835     1.0000 0.49355  0.26016  0.23305  Biso   1.000  C
  C836     1.0000 0.28065  0.49242  0.76086  Biso   1.000  C
  C837     1.0000 0.75636  0.68817  0.01356  Biso   1.000  C
  C838     1.0000 0.98736  0.25662  0.27731  Biso   1.000  C
  C839     1.0000 0.75684  0.52686  0.71648  Biso   1.000  C
  C840     1.0000 0.21813  0.73404  0.53509  Biso   1.000  C
  C841     1.0000 0.20790  0.95576  0.75258  Biso   1.000  C
  C842     1.0000 0.75685  0.18807  0.96773  Biso   1.000  C
  C843     1.0000 0.04208  0.77944  0.25066  Biso   1.000  C
  C844     1.0000 0.70531  0.99369  0.75660  Biso   1.000  C
  C845     1.0000 0.29905  0.23398  0.50218  Biso   1.000  C
  C846     1.0000 0.49316  0.73929  0.29728  Biso   1.000  C
  C847     1.0000 0.25915  0.46101  0.79787  Biso   1.000  C
  C848     1.0000 0.72943  0.71739  0.97904  Biso   1.000  C
  C849     1.0000 0.52630  0.23175  0.20483  Biso   1.000  C
  C850     1.0000 0.78244  0.49627  0.75268  Biso   1.000  C
  C851     1.0000 0.24812  0.70340  0.56436  Biso   1.000  C
  C852     1.0000 0.03141  0.27867  0.25872  Biso   1.000  C
  C853     1.0000 0.80129  0.99444  0.25481  Biso   1.000  C
  C854     1.0000 0.23246  0.75453  0.04073  Biso   1.000  C
  C855     1.0000 0.99478  0.19071  0.75152  Biso   1.000  C
  C856     1.0000 0.29687  0.99491  0.25836  Biso   1.000  C
  C857     1.0000 0.71946  0.74325  0.49605  Biso   1.000  C
  C858     1.0000 0.48637  0.24586  0.70351  Biso   1.000  C
  C859     1.0000 0.75774  0.50775  0.21281  Biso   1.000  C
  C860     1.0000 0.29012  0.25274  0.03048  Biso   1.000  C
  C861     1.0000 0.49693  0.74358  0.80282  Biso   1.000  C
  C862     1.0000 0.23491  0.49525  0.26660  Biso   1.000  C
  C863     1.0000 0.79185  0.24280  0.49735  Biso   1.000  C
  C864     1.0000 0.97952  0.71632  0.73393  Biso   1.000  C
  C865     1.0000 0.71167  0.50199  0.75556  Biso   1.000  C
  C866     1.0000 0.79543  0.73319  0.49341  Biso   1.000  C
  C867     1.0000 0.49528  0.78953  0.76088  Biso   1.000  C
  C868     1.0000 0.23802  0.45582  0.72736  Biso   1.000  C
  C869     1.0000 0.26636  0.70639  0.02454  Biso   1.000  C
  C870     1.0000 0.99128  0.76634  0.76802  Biso   1.000  C
  C871     1.0000 0.77840  0.96166  0.77129  Biso   1.000  C
  C872     1.0000 0.71928  0.23005  0.49866  Biso   1.000  C
  C873     1.0000 0.96649  0.23525  0.71068  Biso   1.000  C
  C874     1.0000 0.24917  0.98913  0.70868  Biso   1.000  C
  C875     1.0000 0.24291  0.20866  0.02346  Biso   1.000  C
  C876     1.0000 0.49015  0.28582  0.74758  Biso   1.000  C
  C877     1.0000 0.30746  0.49656  0.25658  Biso   1.000  C
  C878     1.0000 0.24917  0.27219  0.51291  Biso   1.000  C
  C879     1.0000 0.53099  0.19092  0.24984  Biso   1.000  C
  C880     1.0000 0.77162  0.50644  0.28563  Biso   1.000  C
  C881     1.0000 0.74173  0.25757  0.00049  Biso   1.000  C
  C882     1.0000 0.02844  0.21066  0.24486  Biso   1.000  C
  C883     1.0000 0.26024  0.99283  0.20741  Biso   1.000  C
  C884     1.0000 0.25936  0.77790  0.55533  Biso   1.000  C
  C885     1.0000 0.03888  0.73809  0.30368  Biso   1.000  C
  C886     1.0000 0.72658  0.99067  0.26109  Biso   1.000  C
  C887     1.0000 0.77300  0.76090  0.97779  Biso   1.000  C
  C888     1.0000 0.53247  0.72310  0.22666  Biso   1.000  C
  C889     1.0000 0.75484  0.96097  0.29430  Biso   1.000  C
  C890     1.0000 0.30283  0.74015  0.00255  Biso   1.000  C
  C891     1.0000 0.99721  0.26307  0.74233  Biso   1.000  C
  C892     1.0000 0.22412  0.96978  0.23982  Biso   1.000  C
  C893     1.0000 0.76653  0.70112  0.52097  Biso   1.000  C
  C894     1.0000 0.45321  0.26066  0.77565  Biso   1.000  C
  C895     1.0000 0.80308  0.47764  0.25447  Biso   1.000  C
  C896     1.0000 0.21880  0.23863  0.98784  Biso   1.000  C
  C897     1.0000 0.53346  0.76376  0.73528  Biso   1.000  C
  C898     1.0000 0.27603  0.46864  0.22504  Biso   1.000  C
  C899     1.0000 0.74860  0.20096  0.53274  Biso   1.000  C
  C900     1.0000 0.01846  0.73444  0.79955  Biso   1.000  C
  C901     1.0000 0.28225  0.96536  0.74276  Biso   1.000  C
  C902     1.0000 0.71704  0.23731  0.95933  Biso   1.000  C
  C903     1.0000 0.00614  0.71127  0.27058  Biso   1.000  C
  C904     1.0000 0.75031  0.99469  0.79939  Biso   1.000  C
  C905     1.0000 0.22654  0.25031  0.47170  Biso   1.000  C
  C906     1.0000 0.50863  0.69064  0.26184  Biso   1.000  C
  C907     1.0000 0.20891  0.48432  0.75921  Biso   1.000  C
  C908     1.0000 0.80431  0.73094  0.01053  Biso   1.000  C
  C909     1.0000 0.50156  0.22099  0.28267  Biso   1.000  C
  C910     1.0000 0.74289  0.52081  0.79431  Biso   1.000  C
  C911     1.0000 0.29277  0.74293  0.53670  Biso   1.000  C
  C912     1.0000 0.99494  0.23821  0.21212  Biso   1.000  C
  C913     1.0000 0.75974  0.51547  0.74502  Biso   1.000  C
  C914     1.0000 0.74782  0.74953  0.50644  Biso   1.000  C
  C915     1.0000 0.51220  0.74058  0.77745  Biso   1.000  C
  C916     1.0000 0.26003  0.47399  0.77032  Biso   1.000  C
  C917     1.0000 0.25252  0.75621  0.01882  Biso   1.000  C
  C918     1.0000 0.00132  0.71492  0.75466  Biso   1.000  C
  C919     1.0000 0.73035  0.97751  0.75325  Biso   1.000  C
  C920     1.0000 0.76797  0.24677  0.51370  Biso   1.000  C
  C921     1.0000 0.97737  0.21415  0.75704  Biso   1.000  C
  C922     1.0000 0.23300  0.97222  0.75633  Biso   1.000  C
  C923     1.0000 0.26626  0.25619  0.01075  Biso   1.000  C
  C924     1.0000 0.46870  0.24043  0.72800  Biso   1.000  C
  C925     1.0000 0.26059  0.48123  0.27509  Biso   1.000  C
  C926     1.0000 0.27112  0.22983  0.49177  Biso   1.000  C
  C927     1.0000 0.50936  0.23571  0.23020  Biso   1.000  C
  C928     1.0000 0.75431  0.49165  0.23803  Biso   1.000  C
  C929     1.0000 0.76233  0.21541  0.97862  Biso   1.000  C
  C930     1.0000 0.01082  0.25728  0.25838  Biso   1.000  C
  C931     1.0000 0.27311  0.97493  0.25675  Biso   1.000  C
  C932     1.0000 0.24273  0.72887  0.55042  Biso   1.000  C
  C933     1.0000 0.01924  0.75985  0.25559  Biso   1.000  C
  C934     1.0000 0.77654  0.97802  0.24966  Biso   1.000  C
  C935     1.0000 0.75392  0.71344  0.99713  Biso   1.000  C
  C936     1.0000 0.51589  0.74168  0.27677  Biso   1.000  C
  C937     1.0000 0.73991  0.23795  0.97886  Biso   1.000  C
  C938     1.0000 0.02164  0.73705  0.27819  Biso   1.000  C
  C939     1.0000 0.25515  0.97402  0.73377  Biso   1.000  C
  C940     1.0000 0.24952  0.25210  0.49118  Biso   1.000  C
  C941     1.0000 0.51824  0.71773  0.25410  Biso   1.000  C
  C942     1.0000 0.75402  0.97825  0.77443  Biso   1.000  C
  C943     1.0000 0.77874  0.73419  0.99244  Biso   1.000  C
  C944     1.0000 0.51482  0.21611  0.25549  Biso   1.000  C
  C945     1.0000 0.23453  0.47164  0.75243  Biso   1.000  C
  C946     1.0000 0.26629  0.74947  0.54911  Biso   1.000  C
  C947     1.0000 0.01120  0.23428  0.23779  Biso   1.000  C
  C948     1.0000 0.73608  0.51610  0.76495  Biso   1.000  C
  C949     1.0000 0.27461  0.73379  0.01370  Biso   1.000  C
  C950     1.0000 0.97975  0.23992  0.73684  Biso   1.000  C
  C951     1.0000 0.75155  0.97504  0.26849  Biso   1.000  C
  C952     1.0000 0.77021  0.72773  0.50860  Biso   1.000  C
  C953     1.0000 0.46836  0.26433  0.74951  Biso   1.000  C
  C954     1.0000 0.25299  0.98011  0.23402  Biso   1.000  C
  C955     1.0000 0.24137  0.23431  0.00716  Biso   1.000  C
  C956     1.0000 0.51469  0.76585  0.75869  Biso   1.000  C
  C957     1.0000 0.77739  0.49226  0.25988  Biso   1.000  C
  C958     1.0000 0.74465  0.22517  0.51479  Biso   1.000  C
  C959     1.0000 0.00433  0.74018  0.77300  Biso   1.000  C
  C960     1.0000 0.28213  0.48091  0.25193  Biso   1.000  C
  Cu1      1.0000 0.99254  0.48053  0.65980  Biso   1.000  Cu
  Cu2      1.0000 0.65768  0.99045  0.50690  Biso   1.000  Cu
  Cu3      1.0000 0.51166  0.63986  0.01116  Biso   1.000  Cu
  Cu4      1.0000 0.49790  0.49622  0.84319  Biso   1.000  Cu
  Cu5      1.0000 0.16002  0.99191  0.99573  Biso   1.000  Cu
  Cu6      1.0000 0.00866  0.63948  0.51324  Biso   1.000  Cu
  Cu7      1.0000 0.49478  0.00150  0.66021  Biso   1.000  Cu
  Cu8      1.0000 0.85508  0.48579  0.50286  Biso   1.000  Cu
  Cu9      1.0000 0.00558  0.13886  0.00000  Biso   1.000  Cu
  Cu10     1.0000 0.99709  0.97886  0.84856  Biso   1.000  Cu
  Cu11     1.0000 0.35730  0.49547  0.00447  Biso   1.000  Cu
  Cu12     1.0000 0.50345  0.13900  0.49770  Biso   1.000  Cu
  Cu13     1.0000 0.01922  0.49384  0.35282  Biso   1.000  Cu
  Cu14     1.0000 0.35417  0.98832  0.49685  Biso   1.000  Cu
  Cu15     1.0000 0.50731  0.33586  0.99236  Biso   1.000  Cu
  Cu16     1.0000 0.51545  0.47859  0.15834  Biso   1.000  Cu
  Cu17     1.0000 0.85127  0.98149  0.00719  Biso   1.000  Cu
  Cu18     1.0000 0.00652  0.32960  0.50179  Biso   1.000  Cu
  Cu19     1.0000 0.50724  0.98219  0.34546  Biso   1.000  Cu
  Cu20     1.0000 0.15841  0.48864  0.51237  Biso   1.000  Cu
  Cu21     1.0000 0.01110  0.83149  0.01449  Biso   1.000  Cu
  Cu22     1.0000 0.01057  0.99323  0.15514  Biso   1.000  Cu
  Cu23     1.0000 0.66035  0.47527  0.00160  Biso   1.000  Cu
  Cu24     1.0000 0.50442  0.83382  0.51246  Biso   1.000  Cu
  Cu25     1.0000 0.21429  0.99266  0.99147  Biso   1.000  Cu
  Cu26     1.0000 0.99950  0.19196  0.99550  Biso   1.000  Cu
  Cu27     1.0000 0.01481  0.99547  0.20904  Biso   1.000  Cu
  Cu28     1.0000 0.71031  0.98870  0.50953  Biso   1.000  Cu
  Cu29     1.0000 0.50258  0.19342  0.49297  Biso   1.000  Cu
  Cu30     1.0000 0.51026  0.97999  0.29271  Biso   1.000  Cu
  Cu31     1.0000 0.30433  0.49374  0.00803  Biso   1.000  Cu
  Cu32     1.0000 0.51488  0.69242  0.01382  Biso   1.000  Cu
  Cu33     1.0000 0.51775  0.47309  0.21293  Biso   1.000  Cu
  Cu34     1.0000 0.80142  0.48798  0.49925  Biso   1.000  Cu
  Cu35     1.0000 0.00908  0.69438  0.51322  Biso   1.000  Cu
  Cu36     1.0000 0.01983  0.49470  0.29929  Biso   1.000  Cu
  Cu37     1.0000 0.79730  0.98062  0.01085  Biso   1.000  Cu
  Cu38     1.0000 0.01151  0.77686  0.01457  Biso   1.000  Cu
  Cu39     1.0000 0.99342  0.97662  0.79477  Biso   1.000  Cu
  Cu40     1.0000 0.30010  0.98926  0.49518  Biso   1.000  Cu
  Cu41     1.0000 0.50539  0.77980  0.51655  Biso   1.000  Cu
  Cu42     1.0000 0.49293  0.00159  0.71265  Biso   1.000  Cu
  Cu43     1.0000 0.71274  0.47672  0.99626  Biso   1.000  Cu
  Cu44     1.0000 0.50343  0.28152  0.99128  Biso   1.000  Cu
  Cu45     1.0000 0.49837  0.49902  0.78726  Biso   1.000  Cu
  Cu46     1.0000 0.21243  0.49026  0.51491  Biso   1.000  Cu
  Cu47     1.0000 0.00709  0.27509  0.49605  Biso   1.000  Cu
  Cu48     1.0000 0.99196  0.47407  0.71392  Biso   1.000  Cu
  H1       1.0000 0.23780  0.78428  0.56497  Biso   1.000  H
  H2       1.0000 0.50425  0.28920  0.72951  Biso   1.000  H
  H3       1.0000 0.75286  0.51975  0.29068  Biso   1.000  H
  H4       1.0000 0.75592  0.76387  0.96178  Biso   1.000  H
  H5       1.0000 0.95235  0.21580  0.71065  Biso   1.000  H
  H6       1.0000 0.31479  0.50624  0.27802  Biso   1.000  H
  H7       1.0000 0.26661  0.27218  0.52900  Biso   1.000  H
  H8       1.0000 0.97960  0.77045  0.74767  Biso   1.000  H
  H9       1.0000 0.72469  0.99993  0.23866  Biso   1.000  H
  H10      1.0000 0.75757  0.25866  0.01697  Biso   1.000  H
  H11      1.0000 0.47929  0.79268  0.77762  Biso   1.000  H
  H12      1.0000 0.28244  0.99781  0.20203  Biso   1.000  H
  H13      1.0000 0.71848  0.24858  0.48305  Biso   1.000  H
  H14      1.0000 0.54516  0.74185  0.22295  Biso   1.000  H
  H15      1.0000 0.25996  0.44601  0.72380  Biso   1.000  H
  H16      1.0000 0.26208  0.20389  0.03577  Biso   1.000  H
  H17      1.0000 0.05239  0.75589  0.30828  Biso   1.000  H
  H18      1.0000 0.70979  0.49675  0.73303  Biso   1.000  H
  H19      1.0000 0.79795  0.75514  0.48415  Biso   1.000  H
  H20      1.0000 0.03947  0.20858  0.26596  Biso   1.000  H
  H21      1.0000 0.22541  0.99482  0.70635  Biso   1.000  H
  H22      1.0000 0.24439  0.70427  0.03442  Biso   1.000  H
  H23      1.0000 0.54092  0.18263  0.22977  Biso   1.000  H
  H24      1.0000 0.77972  0.94630  0.75351  Biso   1.000  H
  H25      1.0000 0.25962  0.00257  0.77912  Biso   1.000  H
  H26      1.0000 0.79276  0.24424  0.99324  Biso   1.000  H
  H27      1.0000 0.97624  0.74652  0.24609  Biso   1.000  H
  H28      1.0000 0.75200  0.94849  0.72104  Biso   1.000  H
  H29      1.0000 0.24074  0.20008  0.46915  Biso   1.000  H
  H30      1.0000 0.55354  0.76628  0.26282  Biso   1.000  H
  H31      1.0000 0.28091  0.50153  0.73798  Biso   1.000  H
  H32      1.0000 0.77589  0.68034  0.02461  Biso   1.000  H
  H33      1.0000 0.47791  0.26236  0.25033  Biso   1.000  H
  H34      1.0000 0.73916  0.54200  0.71270  Biso   1.000  H
  H35      1.0000 0.21321  0.75499  0.52432  Biso   1.000  H
  H36      1.0000 0.97184  0.23885  0.27561  Biso   1.000  H
  H37      1.0000 0.75382  0.94764  0.22203  Biso   1.000  H
  H38      1.0000 0.26766  0.78183  0.98200  Biso   1.000  H
  H39      1.0000 0.94871  0.23749  0.78441  Biso   1.000  H
  H40      1.0000 0.25417  0.93567  0.27697  Biso   1.000  H
  H41      1.0000 0.77458  0.78048  0.52792  Biso   1.000  H
  H42      1.0000 0.43841  0.21413  0.74996  Biso   1.000  H
  H43      1.0000 0.72914  0.46038  0.26213  Biso   1.000  H
  H44      1.0000 0.24620  0.28714  0.97914  Biso   1.000  H
  H45      1.0000 0.53683  0.71308  0.74801  Biso   1.000  H
  H46      1.0000 0.28635  0.46193  0.30847  Biso   1.000  H
  H47      1.0000 0.74191  0.27518  0.54107  Biso   1.000  H
  H48      1.0000 0.03937  0.69262  0.77112  Biso   1.000  H
  H49      1.0000 0.23289  0.50154  0.24366  Biso   1.000  H
  H50      1.0000 0.30720  0.25611  0.50915  Biso   1.000  H
  H51      1.0000 0.54222  0.21444  0.20326  Biso   1.000  H
  H52      1.0000 0.77528  0.52287  0.20851  Biso   1.000  H
  H53      1.0000 0.73675  0.18554  0.95551  Biso   1.000  H
  H54      1.0000 0.05111  0.27827  0.24498  Biso   1.000  H
  H55      1.0000 0.29643  0.01371  0.24227  Biso   1.000  H
  H56      1.0000 0.26713  0.69791  0.57782  Biso   1.000  H
  H57      1.0000 0.06071  0.77836  0.26530  Biso   1.000  H
  H58      1.0000 0.80223  0.00895  0.27324  Biso   1.000  H
  H59      1.0000 0.72672  0.73491  0.96298  Biso   1.000  H
  H60      1.0000 0.47796  0.72166  0.29639  Biso   1.000  H
  H61      1.0000 0.78937  0.48853  0.77461  Biso   1.000  H
  H62      1.0000 0.71650  0.72140  0.48596  Biso   1.000  H
  H63      1.0000 0.48732  0.76335  0.80824  Biso   1.000  H
  H64      1.0000 0.24237  0.44578  0.80400  Biso   1.000  H
  H65      1.0000 0.23080  0.73677  0.05616  Biso   1.000  H
  H66      1.0000 0.96409  0.73476  0.73221  Biso   1.000  H
  H67      1.0000 0.70230  0.00782  0.77501  Biso   1.000  H
  H68      1.0000 0.78856  0.22514  0.48342  Biso   1.000  H
  H69      1.0000 0.00289  0.18898  0.72946  Biso   1.000  H
  H70      1.0000 0.20181  0.94322  0.73331  Biso   1.000  H
  H71      1.0000 0.29129  0.23468  0.04485  Biso   1.000  H
  H72      1.0000 0.49386  0.26631  0.69760  Biso   1.000  H
  H73      1.0000 0.76367  0.52655  0.80249  Biso   1.000  H
  H74      1.0000 0.74656  0.69745  0.53346  Biso   1.000  H
  H75      1.0000 0.54944  0.74714  0.73293  Biso   1.000  H
  H76      1.0000 0.20568  0.49821  0.77874  Biso   1.000  H
  H77      1.0000 0.30789  0.76188  0.99744  Biso   1.000  H
  H78      1.0000 0.03307  0.71561  0.80247  Biso   1.000  H
  H79      1.0000 0.73160  0.00776  0.80476  Biso   1.000  H
  H80      1.0000 0.76875  0.19699  0.54459  Biso   1.000  H
  H81      1.0000 0.00736  0.26078  0.76443  Biso   1.000  H
  H82      1.0000 0.28608  0.95516  0.76419  Biso   1.000  H
  H83      1.0000 0.21742  0.25898  0.97375  Biso   1.000  H
  H84      1.0000 0.43831  0.24361  0.77962  Biso   1.000  H
  H85      1.0000 0.25739  0.45493  0.22167  Biso   1.000  H
  H86      1.0000 0.22672  0.23334  0.45494  Biso   1.000  H
  H87      1.0000 0.48876  0.23955  0.28610  Biso   1.000  H
  H88      1.0000 0.80417  0.46254  0.23596  Biso   1.000  H
  H89      1.0000 0.71696  0.22290  0.94223  Biso   1.000  H
  H90      1.0000 0.98810  0.25832  0.20533  Biso   1.000  H
  H91      1.0000 0.21641  0.95954  0.25980  Biso   1.000  H
  H92      1.0000 0.29826  0.72190  0.52890  Biso   1.000  H
  H93      1.0000 0.99034  0.71000  0.25194  Biso   1.000  H
  H94      1.0000 0.77207  0.94618  0.29854  Biso   1.000  H
  H95      1.0000 0.80949  0.71302  0.02544  Biso   1.000  H
  H96      1.0000 0.49993  0.68586  0.28375  Biso   1.000  H
  H97      1.0000 0.86645  0.97086  0.91846  Biso   1.000  H
  H98      1.0000 0.91958  0.85030  0.00676  Biso   1.000  H
  H99      1.0000 0.02513  0.89492  0.87192  Biso   1.000  H
  H100     1.0000 0.36810  0.99343  0.59186  Biso   1.000  H
  H101     1.0000 0.41599  0.85366  0.51821  Biso   1.000  H
  H102     1.0000 0.49111  0.90543  0.64219  Biso   1.000  H
  H103     1.0000 0.63277  0.47662  0.90970  Biso   1.000  H
  H104     1.0000 0.59561  0.34625  0.98997  Biso   1.000  H
  H105     1.0000 0.49593  0.40362  0.85958  Biso   1.000  H
  H106     1.0000 0.12935  0.47807  0.60545  Biso   1.000  H
  H107     1.0000 0.09519  0.34905  0.50428  Biso   1.000  H
  H108     1.0000 0.99975  0.38899  0.63307  Biso   1.000  H
  H109     1.0000 0.14635  0.98890  0.08491  Biso   1.000  H
  H110     1.0000 0.09397  0.12607  0.99523  Biso   1.000  H
  H111     1.0000 0.02244  0.08637  0.13411  Biso   1.000  H
  H112     1.0000 0.64224  0.98981  0.41294  Biso   1.000  H
  H113     1.0000 0.59476  0.12046  0.51771  Biso   1.000  H
  H114     1.0000 0.51527  0.07378  0.36413  Biso   1.000  H
  H115     1.0000 0.38559  0.48751  0.10141  Biso   1.000  H
  H116     1.0000 0.41593  0.62399  0.02168  Biso   1.000  H
  H117     1.0000 0.52149  0.57404  0.14701  Biso   1.000  H
  H118     1.0000 0.88162  0.49215  0.41292  Biso   1.000  H
  H119     1.0000 0.91520  0.62324  0.49928  Biso   1.000  H
  H120     1.0000 0.02461  0.57935  0.37364  Biso   1.000  H
  H121     1.0000 0.09331  0.98729  0.86563  Biso   1.000  H
  H122     1.0000 0.87122  0.07012  0.00614  Biso   1.000  H
  H123     1.0000 0.01384  0.85207  0.10334  Biso   1.000  H
  H124     1.0000 0.58571  0.99726  0.63714  Biso   1.000  H
  H125     1.0000 0.37177  0.07935  0.48417  Biso   1.000  H
  H126     1.0000 0.49946  0.85314  0.42103  Biso   1.000  H
  H127     1.0000 0.41076  0.50402  0.86593  Biso   1.000  H
  H128     1.0000 0.63962  0.57030  0.00152  Biso   1.000  H
  H129     1.0000 0.51798  0.35141  0.08644  Biso   1.000  H
  H130     1.0000 0.89986  0.47386  0.64125  Biso   1.000  H
  H131     1.0000 0.13914  0.58042  0.52437  Biso   1.000  H
  H132     1.0000 0.00006  0.35463  0.40976  Biso   1.000  H
  H133     1.0000 0.92141  0.99850  0.14042  Biso   1.000  H
  H134     1.0000 0.14366  0.89725  0.00869  Biso   1.000  H
  H135     1.0000 0.00044  0.11340  0.90817  Biso   1.000  H
  H136     1.0000 0.41907  0.97203  0.36255  Biso   1.000  H
  H137     1.0000 0.63803  0.89642  0.50965  Biso   1.000  H
  H138     1.0000 0.48913  0.12986  0.58471  Biso   1.000  H
  H139     1.0000 0.60751  0.47712  0.13299  Biso   1.000  H
  H140     1.0000 0.37753  0.40397  0.00061  Biso   1.000  H
  H141     1.0000 0.51107  0.62100  0.91635  Biso   1.000  H
  H142     1.0000 0.11038  0.48981  0.37601  Biso   1.000  H
  H143     1.0000 0.87338  0.39467  0.50682  Biso   1.000  H
  H144     1.0000 0.00079  0.61662  0.60303  Biso   1.000  H
  H145     1.0000 0.58838  0.48591  0.86554  Biso   1.000  H
  H146     1.0000 0.87724  0.58189  0.50322  Biso   1.000  H
  H147     1.0000 0.50145  0.86062  0.60197  Biso   1.000  H
  H148     1.0000 0.08761  0.48031  0.64228  Biso   1.000  H
  H149     1.0000 0.37734  0.58491  0.01121  Biso   1.000  H
  H150     1.0000 0.01689  0.84993  0.92081  Biso   1.000  H
  H151     1.0000 0.90804  0.97370  0.87202  Biso   1.000  H
  H152     1.0000 0.63681  0.07853  0.51379  Biso   1.000  H
  H153     1.0000 0.01369  0.34629  0.58996  Biso   1.000  H
  H154     1.0000 0.40503  0.99274  0.63559  Biso   1.000  H
  H155     1.0000 0.13488  0.08268  0.99636  Biso   1.000  H
  H156     1.0000 0.47927  0.35990  0.90542  Biso   1.000  H
  H157     1.0000 0.42776  0.48199  0.14209  Biso   1.000  H
  H158     1.0000 0.13651  0.39398  0.50908  Biso   1.000  H
  H159     1.0000 0.51458  0.11337  0.40972  Biso   1.000  H
  H160     1.0000 0.92589  0.49534  0.37207  Biso   1.000  H
  H161     1.0000 0.63857  0.38962  0.99209  Biso   1.000  H
  H162     1.0000 0.00642  0.12573  0.09168  Biso   1.000  H
  H163     1.0000 0.10322  0.99887  0.12761  Biso   1.000  H
  H164     1.0000 0.37440  0.89268  0.50590  Biso   1.000  H
  H165     1.0000 0.02973  0.62205  0.41959  Biso   1.000  H
  H166     1.0000 0.60302  0.98967  0.37021  Biso   1.000  H
  H167     1.0000 0.87547  0.88804  0.00529  Biso   1.000  H
  H168     1.0000 0.52588  0.61493  0.10508  Biso   1.000  H
  H169     1.0000 0.00384  0.06952  0.86696  Biso   1.000  H
  H170     1.0000 0.87125  0.98380  0.09291  Biso   1.000  H
  H171     1.0000 0.10325  0.85571  0.01725  Biso   1.000  H
  H172     1.0000 0.49954  0.09128  0.63309  Biso   1.000  H
  H173     1.0000 0.37886  0.97659  0.40503  Biso   1.000  H
  H174     1.0000 0.59671  0.85579  0.50413  Biso   1.000  H
  H175     1.0000 0.51087  0.58667  0.87271  Biso   1.000  H
  H176     1.0000 0.64671  0.48139  0.09425  Biso   1.000  H
  H177     1.0000 0.41767  0.35892  0.00867  Biso   1.000  H
  H178     1.0000 0.98813  0.57138  0.64136  Biso   1.000  H
  H179     1.0000 0.14573  0.48736  0.42013  Biso   1.000  H
  H180     1.0000 0.91649  0.35239  0.51034  Biso   1.000  H
  H181     1.0000 0.01771  0.89949  0.14041  Biso   1.000  H
  H182     1.0000 0.13327  0.99044  0.90756  Biso   1.000  H
  H183     1.0000 0.91431  0.11211  0.99810  Biso   1.000  H
  H184     1.0000 0.49880  0.89506  0.37221  Biso   1.000  H
  H185     1.0000 0.63323  0.99481  0.59829  Biso   1.000  H
  H186     1.0000 0.40880  0.11757  0.48609  Biso   1.000  H
  H187     1.0000 0.51282  0.39296  0.13082  Biso   1.000  H
  H188     1.0000 0.37134  0.50699  0.91013  Biso   1.000  H
  H189     1.0000 0.59832  0.61475  0.99857  Biso   1.000  H
  H190     1.0000 0.01460  0.39869  0.37157  Biso   1.000  H
  H191     1.0000 0.86920  0.48604  0.60187  Biso   1.000  H
  H192     1.0000 0.10116  0.61993  0.51884  Biso   1.000  H
  H193     1.0000 0.27478  0.84933  0.52338  Biso   1.000  H
  H194     1.0000 0.47062  0.26530  0.84712  Biso   1.000  H
  H195     1.0000 0.87611  0.50956  0.27533  Biso   1.000  H
  H196     1.0000 0.78203  0.83122  0.99941  Biso   1.000  H
  H197     1.0000 0.99760  0.24900  0.64368  Biso   1.000  H
  H198     1.0000 0.37827  0.48564  0.24191  Biso   1.000  H
  H199     1.0000 0.23493  0.34281  0.50420  Biso   1.000  H
  H200     1.0000 0.00749  0.75250  0.87271  Biso   1.000  H
  H201     1.0000 0.65439  0.98309  0.27369  Biso   1.000  H
  H202     1.0000 0.73443  0.33431  0.98816  Biso   1.000  H
  H203     1.0000 0.52305  0.76930  0.66415  Biso   1.000  H
  H204     1.0000 0.15780  0.99815  0.22380  Biso   1.000  H
  H205     1.0000 0.73464  0.13393  0.51322  Biso   1.000  H
  H206     1.0000 0.50881  0.70591  0.15931  Biso   1.000  H
  H207     1.0000 0.13337  0.46561  0.74145  Biso   1.000  H
  H208     1.0000 0.23186  0.13934  0.99460  Biso   1.000  H
  H209     1.0000 0.02483  0.72100  0.37208  Biso   1.000  H
  H210     1.0000 0.64208  0.50604  0.77072  Biso   1.000  H
  H211     1.0000 0.77917  0.63325  0.49174  Biso   1.000  H
  H212     1.0000 0.01130  0.22472  0.14137  Biso   1.000  H
  H213     1.0000 0.35218  0.99619  0.73012  Biso   1.000  H
  H214     1.0000 0.28022  0.63753  0.00134  Biso   1.000  H
  H215     1.0000 0.52992  0.20602  0.34673  Biso   1.000  H
  H216     1.0000 0.84776  0.97905  0.78058  Biso   1.000  H
  H217     1.0000 0.24738  0.49157  0.37561  Biso   1.000  H
  H218     1.0000 0.36292  0.21866  0.47964  Biso   1.000  H
  H219     1.0000 0.51622  0.32761  0.22328  Biso   1.000  H
  H220     1.0000 0.74565  0.49339  0.14095  Biso   1.000  H
  H221     1.0000 0.85956  0.20270  0.97107  Biso   1.000  H
  H222     1.0000 0.01208  0.35482  0.27199  Biso   1.000  H
  H223     1.0000 0.28018  0.96523  0.35463  Biso   1.000  H
  H224     1.0000 0.14566  0.71722  0.54911  Biso   1.000  H
  H225     1.0000 0.02552  0.85825  0.24353  Biso   1.000  H
  H226     1.0000 0.78043  0.98901  0.15599  Biso   1.000  H
  H227     1.0000 0.65628  0.70937  0.00266  Biso   1.000  H
  H228     1.0000 0.51205  0.83648  0.28239  Biso   1.000  H
  H229     1.0000 0.76670  0.49642  0.64281  Biso   1.000  H
  H230     1.0000 0.64755  0.75918  0.51662  Biso   1.000  H
  H231     1.0000 0.50526  0.64664  0.78103  Biso   1.000  H
  H232     1.0000 0.27339  0.49397  0.86546  Biso   1.000  H
  H233     1.0000 0.15977  0.76185  0.03403  Biso   1.000  H
  H234     1.0000 0.99743  0.61865  0.74268  Biso   1.000  H
  H235     1.0000 0.72726  0.98422  0.65299  Biso   1.000  H
  H236     1.0000 0.86337  0.25465  0.52389  Biso   1.000  H
  H237     1.0000 0.97389  0.12127  0.77061  Biso   1.000  H
  H238     1.0000 0.22984  0.97808  0.85387  Biso   1.000  H
  H239     1.0000 0.36175  0.26565  0.01184  Biso   1.000  H
  H240     1.0000 0.47905  0.14812  0.72538  Biso   1.000  H
  H241     1.0000 0.72860  0.48140  0.85706  Biso   1.000  H
  H242     1.0000 0.86284  0.71821  0.51203  Biso   1.000  H
  H243     1.0000 0.50868  0.86011  0.74417  Biso   1.000  H
  H244     1.0000 0.22223  0.48952  0.66157  Biso   1.000  H
  H245     1.0000 0.37223  0.72258  0.02306  Biso   1.000  H
  H246     1.0000 0.02379  0.83526  0.78134  Biso   1.000  H
  H247     1.0000 0.76826  0.97822  0.86871  Biso   1.000  H
  H248     1.0000 0.64723  0.21669  0.52194  Biso   1.000  H
  H249     1.0000 0.97705  0.32962  0.72333  Biso   1.000  H
  H250     1.0000 0.26966  0.97535  0.63299  Biso   1.000  H
  H251     1.0000 0.14636  0.22504  0.00627  Biso   1.000  H
  H252     1.0000 0.47941  0.35291  0.76362  Biso   1.000  H
  H253     1.0000 0.28731  0.49641  0.15513  Biso   1.000  H
  H254     1.0000 0.15374  0.25961  0.48863  Biso   1.000  H
  H255     1.0000 0.50931  0.12424  0.26556  Biso   1.000  H
  H256     1.0000 0.78905  0.47882  0.35105  Biso   1.000  H
  H257     1.0000 0.64558  0.25007  0.97625  Biso   1.000  H
  H258     1.0000 0.02040  0.13400  0.23307  Biso   1.000  H
  H259     1.0000 0.24252  0.97358  0.13901  Biso   1.000  H
  H260     1.0000 0.36266  0.76212  0.55166  Biso   1.000  H
  H261     1.0000 0.02417  0.63773  0.27929  Biso   1.000  H
  H262     1.0000 0.73852  0.98553  0.36041  Biso   1.000  H
  H263     1.0000 0.87055  0.75327  0.99306  Biso   1.000  H
  H264     1.0000 0.52071  0.62033  0.24736  Biso   1.000  H
  H265     1.0000 0.98600  0.20723  0.85207  Biso   1.000  H
  H266     1.0000 0.87298  0.99338  0.23777  Biso   1.000  H
  H267     1.0000 0.24097  0.85045  0.02648  Biso   1.000  H
  H268     1.0000 0.46470  0.22622  0.63086  Biso   1.000  H
  H269     1.0000 0.36309  0.96631  0.26656  Biso   1.000  H
  H270     1.0000 0.73715  0.84536  0.49903  Biso   1.000  H
  H271     1.0000 0.51799  0.72121  0.87181  Biso   1.000  H
  H272     1.0000 0.66085  0.48859  0.22939  Biso   1.000  H
  H273     1.0000 0.27951  0.35186  0.00607  Biso   1.000  H
  H274     1.0000 0.99168  0.70836  0.66079  Biso   1.000  H
  H275     1.0000 0.16588  0.48149  0.28088  Biso   1.000  H
  H276     1.0000 0.77738  0.34160  0.51190  Biso   1.000  H
  H277     1.0000 0.00262  0.76410  0.16680  Biso   1.000  H
  H278     1.0000 0.14056  0.97698  0.76717  Biso   1.000  H
  H279     1.0000 0.77535  0.12034  0.00634  Biso   1.000  H
  H280     1.0000 0.49440  0.75387  0.36862  Biso   1.000  H
  H281     1.0000 0.63418  0.98094  0.73465  Biso   1.000  H
  H282     1.0000 0.27395  0.13498  0.49180  Biso   1.000  H
  H283     1.0000 0.50867  0.25041  0.13264  Biso   1.000  H
  H284     1.0000 0.35113  0.48701  0.77263  Biso   1.000  H
  H285     1.0000 0.73771  0.62045  0.99743  Biso   1.000  H
  H286     1.0000 0.99782  0.26181  0.34980  Biso   1.000  H
  H287     1.0000 0.85072  0.50065  0.73649  Biso   1.000  H
  H288     1.0000 0.23584  0.63123  0.53549  Biso   1.000  H
  H289     1.0000 0.09254  0.22193  0.01003  Biso   1.000  H
  H290     1.0000 0.02521  0.08331  0.23140  Biso   1.000  H
  H291     1.0000 0.24142  0.98457  0.08571  Biso   1.000  H
  H292     1.0000 0.59500  0.21719  0.51605  Biso   1.000  H
  H293     1.0000 0.50421  0.06953  0.26811  Biso   1.000  H
  H294     1.0000 0.73638  0.99715  0.41601  Biso   1.000  H
  H295     1.0000 0.42650  0.71749  0.03049  Biso   1.000  H
  H296     1.0000 0.52897  0.56485  0.24405  Biso   1.000  H
  H297     1.0000 0.28810  0.49798  0.09855  Biso   1.000  H
  H298     1.0000 0.91670  0.71785  0.51666  Biso   1.000  H
  H299     1.0000 0.02535  0.58620  0.27731  Biso   1.000  H
  H300     1.0000 0.78915  0.47870  0.40861  Biso   1.000  H
  H301     1.0000 0.92776  0.75708  0.00517  Biso   1.000  H
  H302     1.0000 0.02431  0.89100  0.77904  Biso   1.000  H
  H303     1.0000 0.76741  0.96622  0.92079  Biso   1.000  H
  H304     1.0000 0.41889  0.76439  0.54394  Biso   1.000  H
  H305     1.0000 0.49605  0.91178  0.73877  Biso   1.000  H
  H306     1.0000 0.27506  0.98562  0.58339  Biso   1.000  H
  H307     1.0000 0.59105  0.25461  0.96986  Biso   1.000  H
  H308     1.0000 0.48939  0.40559  0.76462  Biso   1.000  H
  H309     1.0000 0.72671  0.47286  0.90889  Biso   1.000  H
  H310     1.0000 0.09804  0.25713  0.48395  Biso   1.000  H
  H311     1.0000 0.97856  0.38358  0.72667  Biso   1.000  H
  H312     1.0000 0.22535  0.48960  0.60824  Biso   1.000  H
  H313     1.0000 0.22941  0.98664  0.90416  Biso   1.000  H
  H314     1.0000 0.91100  0.20455  0.98185  Biso   1.000  H
  H315     1.0000 0.02579  0.90854  0.23796  Biso   1.000  H
  H316     1.0000 0.72794  0.98524  0.59999  Biso   1.000  H
  H317     1.0000 0.41382  0.21379  0.47217  Biso   1.000  H
  H318     1.0000 0.51933  0.89217  0.27953  Biso   1.000  H
  H319     1.0000 0.27546  0.50163  0.91798  Biso   1.000  H
  H320     1.0000 0.60295  0.71002  0.99764  Biso   1.000  H
  H321     1.0000 0.51503  0.38370  0.22605  Biso   1.000  H
  H322     1.0000 0.77235  0.49804  0.58895  Biso   1.000  H
  H323     1.0000 0.09507  0.71275  0.52756  Biso   1.000  H
  H324     1.0000 0.01938  0.40821  0.27519  Biso   1.000  H
  H325     1.0000 0.77912  0.98529  0.09799  Biso   1.000  H
  H326     1.0000 0.10108  0.75983  0.03237  Biso   1.000  H
  H327     1.0000 0.98434  0.06522  0.77291  Biso   1.000  H
  H328     1.0000 0.28357  0.97369  0.40846  Biso   1.000  H
  H329     1.0000 0.59516  0.76060  0.51703  Biso   1.000  H
  H330     1.0000 0.48790  0.09588  0.73015  Biso   1.000  H
  H331     1.0000 0.74044  0.49420  0.08329  Biso   1.000  H
  H332     1.0000 0.41536  0.26343  0.01109  Biso   1.000  H
  H333     1.0000 0.50572  0.59031  0.77602  Biso   1.000  H
  H334     1.0000 0.24010  0.49240  0.42877  Biso   1.000  H
  H335     1.0000 0.91522  0.25886  0.52492  Biso   1.000  H
  H336     1.0000 0.99060  0.56706  0.73989  Biso   1.000  H
  H337     1.0000 0.99553  0.20801  0.90765  Biso   1.000  H
  H338     1.0000 0.92526  0.00360  0.23314  Biso   1.000  H
  H339     1.0000 0.23620  0.90651  0.01461  Biso   1.000  H
  H340     1.0000 0.47313  0.22205  0.57743  Biso   1.000  H
  H341     1.0000 0.42084  0.96110  0.26699  Biso   1.000  H
  H342     1.0000 0.73330  0.90084  0.49846  Biso   1.000  H
  H343     1.0000 0.52004  0.71481  0.92913  Biso   1.000  H
  H344     1.0000 0.60617  0.48392  0.23081  Biso   1.000  H
  H345     1.0000 0.28387  0.40433  0.99812  Biso   1.000  H
  H346     1.0000 0.99479  0.71271  0.60786  Biso   1.000  H
  H347     1.0000 0.11348  0.48447  0.27882  Biso   1.000  H
  H348     1.0000 0.77826  0.39653  0.51149  Biso   1.000  H
  H349     1.0000 0.00148  0.75915  0.11261  Biso   1.000  H
  H350     1.0000 0.08598  0.98508  0.76801  Biso   1.000  H
  H351     1.0000 0.77823  0.06606  0.01834  Biso   1.000  H
  H352     1.0000 0.48723  0.75838  0.42293  Biso   1.000  H
  H353     1.0000 0.58512  0.99395  0.73510  Biso   1.000  H
  H354     1.0000 0.27631  0.07626  0.48834  Biso   1.000  H
  H355     1.0000 0.50579  0.25695  0.07941  Biso   1.000  H
  H356     1.0000 0.40553  0.49764  0.76921  Biso   1.000  H
  H357     1.0000 0.73528  0.56492  0.00105  Biso   1.000  H
  H358     1.0000 0.99105  0.26082  0.40646  Biso   1.000  H
  H359     1.0000 0.90699  0.49315  0.73546  Biso   1.000  H
  H360     1.0000 0.23490  0.57778  0.52576  Biso   1.000  H
  H361     1.0000 0.01972  0.71550  0.42534  Biso   1.000  H
  H362     1.0000 0.40414  0.00972  0.72974  Biso   1.000  H
  H363     1.0000 0.73500  0.38455  0.99907  Biso   1.000  H
  H364     1.0000 0.51368  0.70834  0.10317  Biso   1.000  H
  H365     1.0000 0.89940  0.96923  0.77819  Biso   1.000  H
  H366     1.0000 0.23269  0.39752  0.50975  Biso   1.000  H
  H367     1.0000 0.53161  0.20699  0.40308  Biso   1.000  H
  H368     1.0000 0.07961  0.46423  0.73514  Biso   1.000  H
  H369     1.0000 0.77839  0.88463  0.00221  Biso   1.000  H
  H370     1.0000 0.00027  0.21923  0.08654  Biso   1.000  H
  H371     1.0000 0.58698  0.50308  0.76963  Biso   1.000  H
  H372     1.0000 0.27719  0.89821  0.50816  Biso   1.000  H
  H373     1.0000 0.01470  0.25073  0.58961  Biso   1.000  H
  H374     1.0000 0.59602  0.98986  0.27412  Biso   1.000  H
  H375     1.0000 0.28256  0.58191  0.00348  Biso   1.000  H
  H376     1.0000 0.47559  0.26444  0.90046  Biso   1.000  H
  H377     1.0000 0.10473  0.00305  0.22408  Biso   1.000  H
  H378     1.0000 0.78378  0.57417  0.48637  Biso   1.000  H
  H379     1.0000 0.52641  0.76936  0.60740  Biso   1.000  H
  H380     1.0000 0.93073  0.50791  0.27664  Biso   1.000  H
  H381     1.0000 0.23097  0.08888  0.98905  Biso   1.000  H
  H382     1.0000 0.00449  0.75374  0.92442  Biso   1.000  H
  H383     1.0000 0.42779  0.48161  0.23855  Biso   1.000  H
  H384     1.0000 0.73453  0.08170  0.51472  Biso   1.000  H
  H385     1.0000 0.25259  0.46655  0.34756  Biso   1.000  H
  H386     1.0000 0.27502  0.16369  0.46423  Biso   1.000  H
  H387     1.0000 0.47995  0.30182  0.21475  Biso   1.000  H
  H388     1.0000 0.69074  0.45582  0.22392  Biso   1.000  H
  H389     1.0000 0.82719  0.20607  0.00749  Biso   1.000  H
  H390     1.0000 0.96613  0.27720  0.31290  Biso   1.000  H
  H391     1.0000 0.29175  0.93060  0.31246  Biso   1.000  H
  H392     1.0000 0.17932  0.71852  0.51586  Biso   1.000  H
  H393     1.0000 0.96957  0.77871  0.20390  Biso   1.000  H
  H394     1.0000 0.79066  0.94909  0.18219  Biso   1.000  H
  H395     1.0000 0.73766  0.65109  0.03483  Biso   1.000  H
  H396     1.0000 0.54740  0.80353  0.29790  Biso   1.000  H
  H397     1.0000 0.77399  0.52909  0.67385  Biso   1.000  H
  H398     1.0000 0.73784  0.81577  0.53263  Biso   1.000  H
  H399     1.0000 0.53671  0.67213  0.77949  Biso   1.000  H
  H400     1.0000 0.31926  0.51355  0.77362  Biso   1.000  H
  H401     1.0000 0.23066  0.81749  0.98565  Biso   1.000  H
  H402     1.0000 0.03603  0.65291  0.74049  Biso   1.000  H
  H403     1.0000 0.71833  0.95107  0.68580  Biso   1.000  H
  H404     1.0000 0.77783  0.31129  0.54366  Biso   1.000  H
  H405     1.0000 0.94697  0.20178  0.82077  Biso   1.000  H
  H406     1.0000 0.22501  0.00718  0.81959  Biso   1.000  H
  H407     1.0000 0.28680  0.31857  0.97782  Biso   1.000  H
  H408     1.0000 0.44205  0.17314  0.71378  Biso   1.000  H
  H409     1.0000 0.28979  0.45807  0.18265  Biso   1.000  H
  H410     1.0000 0.18471  0.26659  0.45786  Biso   1.000  H
  H411     1.0000 0.49072  0.20555  0.32251  Biso   1.000  H
  H412     1.0000 0.84383  0.46412  0.27390  Biso   1.000  H
  H413     1.0000 0.67731  0.25534  0.94556  Biso   1.000  H
  H414     1.0000 0.98165  0.21782  0.17161  Biso   1.000  H
  H415     1.0000 0.18001  0.96392  0.22308  Biso   1.000  H
  H416     1.0000 0.33370  0.75644  0.52208  Biso   1.000  H
  H417     1.0000 0.99441  0.66887  0.28502  Biso   1.000  H
  H418     1.0000 0.73282  0.94976  0.33421  Biso   1.000  H
  H419     1.0000 0.84284  0.74931  0.02822  Biso   1.000  H
  H420     1.0000 0.49512  0.64819  0.24764  Biso   1.000  H
  H421     1.0000 0.72339  0.52416  0.83652  Biso   1.000  H
  H422     1.0000 0.78238  0.65820  0.52883  Biso   1.000  H
  H423     1.0000 0.55198  0.78452  0.69729  Biso   1.000  H
  H424     1.0000 0.16568  0.49492  0.74361  Biso   1.000  H
  H425     1.0000 0.34393  0.72463  0.99401  Biso   1.000  H
  H426     1.0000 0.03291  0.75072  0.84104  Biso   1.000  H
  H427     1.0000 0.76791  0.00551  0.83929  Biso   1.000  H
  H428     1.0000 0.72861  0.15995  0.54595  Biso   1.000  H
  H429     1.0000 0.02008  0.29844  0.72261  Biso   1.000  H
  H430     1.0000 0.32646  0.96400  0.72848  Biso   1.000  H
  H431     1.0000 0.17730  0.22369  0.97125  Biso   1.000  H
  H432     1.0000 0.44100  0.27186  0.81658  Biso   1.000  H
  H433     1.0000 0.26380  0.99916  0.66713  Biso   1.000  H
  H434     1.0000 0.72535  0.29705  0.01914  Biso   1.000  H
  H435     1.0000 0.05539  0.71513  0.33990  Biso   1.000  H
  H436     1.0000 0.81624  0.94151  0.78721  Biso   1.000  H
  H437     1.0000 0.22888  0.30798  0.53332  Biso   1.000  H
  H438     1.0000 0.54739  0.70752  0.18795  Biso   1.000  H
  H439     1.0000 0.21774  0.44059  0.68741  Biso   1.000  H
  H440     1.0000 0.78651  0.80113  0.96680  Biso   1.000  H
  H441     1.0000 0.54586  0.15061  0.26676  Biso   1.000  H
  H442     1.0000 0.67310  0.48225  0.76176  Biso   1.000  H
  H443     1.0000 0.27590  0.82130  0.55966  Biso   1.000  H
  H444     1.0000 0.04363  0.16904  0.22829  Biso   1.000  H
  H445     1.0000 0.68925  0.01004  0.27527  Biso   1.000  H
  H446     1.0000 0.28046  0.66496  0.03476  Biso   1.000  H
  H447     1.0000 0.95716  0.25529  0.66693  Biso   1.000  H
  H448     1.0000 0.24326  0.00711  0.16493  Biso   1.000  H
  H449     1.0000 0.83596  0.71914  0.47813  Biso   1.000  H
  H450     1.0000 0.50895  0.32271  0.76688  Biso   1.000  H
  H451     1.0000 0.78987  0.51838  0.32766  Biso   1.000  H
  H452     1.0000 0.22101  0.17080  0.04000  Biso   1.000  H
  H453     1.0000 0.47457  0.82480  0.74001  Biso   1.000  H
  H454     1.0000 0.34464  0.51706  0.24062  Biso   1.000  H
  H455     1.0000 0.67549  0.21611  0.48732  Biso   1.000  H
  H456     1.0000 0.98256  0.80968  0.78606  Biso   1.000  H
  H457     1.0000 0.67505  0.75958  0.48833  Biso   1.000  H
  H458     1.0000 0.48264  0.72212  0.84268  Biso   1.000  H
  H459     1.0000 0.81958  0.47389  0.73880  Biso   1.000  H
  H460     1.0000 0.19803  0.76836  0.06336  Biso   1.000  H
  H461     1.0000 0.95951  0.69661  0.69575  Biso   1.000  H
  H462     1.0000 0.27642  0.45761  0.84255  Biso   1.000  H
  H463     1.0000 0.83359  0.26070  0.48366  Biso   1.000  H
  H464     1.0000 0.01225  0.15072  0.76844  Biso   1.000  H
  H465     1.0000 0.66787  0.01253  0.73895  Biso   1.000  H
  H466     1.0000 0.33008  0.26497  0.04485  Biso   1.000  H
  H467     1.0000 0.50322  0.22720  0.66448  Biso   1.000  H
  H468     1.0000 0.17025  0.94123  0.77266  Biso   1.000  H
  H469     1.0000 0.33900  0.21633  0.51388  Biso   1.000  H
  H470     1.0000 0.54072  0.25265  0.16441  Biso   1.000  H
  H471     1.0000 0.19380  0.51131  0.28262  Biso   1.000  H
  H472     1.0000 0.77321  0.14378  0.96013  Biso   1.000  H
  H473     1.0000 0.04505  0.31635  0.28566  Biso   1.000  H
  H474     1.0000 0.73702  0.52165  0.17344  Biso   1.000  H
  H475     1.0000 0.23242  0.65906  0.57191  Biso   1.000  H
  H476     1.0000 0.05927  0.81550  0.22560  Biso   1.000  H
  H477     1.0000 0.33543  0.00946  0.28149  Biso   1.000  H
  H478     1.0000 0.68900  0.70078  0.96697  Biso   1.000  H
  H479     1.0000 0.46708  0.75967  0.32923  Biso   1.000  H
  H480     1.0000 0.83776  0.01568  0.23295  Biso   1.000  H
  N1       1.0000 0.67944  0.16437  0.51883  Biso   1.000  N
  N2       1.0000 0.52003  0.65378  0.19343  Biso   1.000  N
  N3       1.0000 0.17091  0.47532  0.69147  Biso   1.000  N
  N4       1.0000 0.17809  0.17103  0.00106  Biso   1.000  N
  N5       1.0000 0.02265  0.66823  0.33524  Biso   1.000  N
  N6       1.0000 0.67445  0.49302  0.82369  Biso   1.000  N
  N7       1.0000 0.83164  0.66517  0.50028  Biso   1.000  N
  N8       1.0000 0.01173  0.17104  0.17846  Biso   1.000  N
  N9       1.0000 0.31940  0.98661  0.67441  Biso   1.000  N
  N10      1.0000 0.33597  0.67117  0.01539  Biso   1.000  N
  N11      1.0000 0.51754  0.15566  0.31860  Biso   1.000  N
  N12      1.0000 0.81936  0.97618  0.83519  Biso   1.000  N
  N13      1.0000 0.32827  0.81381  0.53549  Biso   1.000  N
  N14      1.0000 0.47903  0.32010  0.81728  Biso   1.000  N
  N15      1.0000 0.84249  0.49395  0.32279  Biso   1.000  N
  N16      1.0000 0.83693  0.80268  0.99936  Biso   1.000  N
  N17      1.0000 0.99207  0.30065  0.67348  Biso   1.000  N
  N18      1.0000 0.34160  0.48948  0.18542  Biso   1.000  N
  N19      1.0000 0.18188  0.31183  0.49797  Biso   1.000  N
  N20      1.0000 0.01623  0.80340  0.83535  Biso   1.000  N
  N21      1.0000 0.68572  0.98359  0.32850  Biso   1.000  N
  N22      1.0000 0.68058  0.30264  0.98372  Biso   1.000  N
  N23      1.0000 0.51040  0.82586  0.69106  Biso   1.000  N
  N24      1.0000 0.18914  0.98606  0.17092  Biso   1.000  N
  N25      1.0000 0.81921  0.49359  0.68234  Biso   1.000  N
  N26      1.0000 0.68363  0.81179  0.50794  Biso   1.000  N
  N27      1.0000 0.51086  0.67269  0.83589  Biso   1.000  N
  N28      1.0000 0.32282  0.49290  0.82896  Biso   1.000  N
  N29      1.0000 0.18878  0.81574  0.02398  Biso   1.000  N
  N30      1.0000 0.99647  0.65316  0.69157  Biso   1.000  N
  N31      1.0000 0.66941  0.98331  0.68577  Biso   1.000  N
  N32      1.0000 0.82957  0.30878  0.51324  Biso   1.000  N
  N33      1.0000 0.98352  0.15309  0.82067  Biso   1.000  N
  N34      1.0000 0.17439  0.97879  0.81992  Biso   1.000  N
  N35      1.0000 0.33185  0.31884  0.00956  Biso   1.000  N
  N36      1.0000 0.47603  0.17524  0.66925  Biso   1.000  N
  N37      1.0000 0.19701  0.48931  0.33595  Biso   1.000  N
  N38      1.0000 0.32768  0.16516  0.48629  Biso   1.000  N
  N39      1.0000 0.51173  0.30140  0.16906  Biso   1.000  N
  N40      1.0000 0.69283  0.48831  0.17607  Biso   1.000  N
  N41      1.0000 0.82588  0.15175  0.98897  Biso   1.000  N
  N42      1.0000 0.00461  0.31828  0.32077  Biso   1.000  N
  N43      1.0000 0.33400  0.96742  0.32012  Biso   1.000  N
  N44      1.0000 0.18383  0.66400  0.54033  Biso   1.000  N
  N45      1.0000 0.01381  0.82070  0.19231  Biso   1.000  N
  N46      1.0000 0.83428  0.98730  0.18488  Biso   1.000  N
  N47      1.0000 0.68655  0.65313  1.00000  Biso   1.000  N
  N48      1.0000 0.50354  0.80592  0.33619  Biso   1.000  N
  O1       1.0000 0.35551  0.53536  0.00912  Biso   1.000  O
  O2       1.0000 0.01433  0.32483  0.54251  Biso   1.000  O
  O3       1.0000 0.55021  0.98900  0.34614  Biso   1.000  O
  O4       1.0000 0.85298  0.52835  0.50185  Biso   1.000  O
  O5       1.0000 0.49822  0.33444  0.95076  Biso   1.000  O
  O6       1.0000 0.05292  0.99393  0.15257  Biso   1.000  O
  O7       1.0000 0.16083  0.03376  0.99398  Biso   1.000  O
  O8       1.0000 0.50999  0.83423  0.55479  Biso   1.000  O
  O9       1.0000 0.97538  0.49628  0.35084  Biso   1.000  O
  O10      1.0000 0.65949  0.03130  0.51221  Biso   1.000  O
  O11      1.0000 0.01368  0.82758  0.97214  Biso   1.000  O
  O12      1.0000 0.47382  0.47761  0.16421  Biso   1.000  O
  O13      1.0000 0.66160  0.43327  0.01049  Biso   1.000  O
  O14      1.0000 0.01445  0.64094  0.46965  Biso   1.000  O
  O15      1.0000 0.45330  0.00403  0.65801  Biso   1.000  O
  O16      1.0000 0.15999  0.44511  0.51152  Biso   1.000  O
  O17      1.0000 0.51456  0.63702  0.05465  Biso   1.000  O
  O18      1.0000 0.95393  0.97299  0.84579  Biso   1.000  O
  O19      1.0000 0.85048  0.93776  0.00835  Biso   1.000  O
  O20      1.0000 0.51476  0.14056  0.45750  Biso   1.000  O
  O21      1.0000 0.03456  0.47530  0.66247  Biso   1.000  O
  O22      1.0000 0.34762  0.94666  0.50169  Biso   1.000  O
  O23      1.0000 0.00408  0.14456  0.04159  Biso   1.000  O
  O24      1.0000 0.53876  0.49751  0.84151  Biso   1.000  O
  O25      1.0000 0.96940  0.99252  0.15926  Biso   1.000  O
  O26      1.0000 0.16379  0.94666  0.99903  Biso   1.000  O
  O27      1.0000 0.00365  0.13888  0.95909  Biso   1.000  O
  O28      1.0000 0.46747  0.97355  0.33775  Biso   1.000  O
  O29      1.0000 0.65963  0.94733  0.50118  Biso   1.000  O
  O30      1.0000 0.49521  0.14866  0.53877  Biso   1.000  O
  O31      1.0000 0.55691  0.48145  0.15964  Biso   1.000  O
  O32      1.0000 0.35269  0.45390  0.00065  Biso   1.000  O
  O33      1.0000 0.50781  0.64371  0.96942  Biso   1.000  O
  O34      1.0000 0.06036  0.48906  0.35005  Biso   1.000  O
  O35      1.0000 0.84883  0.44393  0.50387  Biso   1.000  O
  O36      1.0000 0.00546  0.64575  0.55336  Biso   1.000  O
  O37      1.0000 0.03961  0.98365  0.84305  Biso   1.000  O
  O38      1.0000 0.84862  0.02260  0.00695  Biso   1.000  O
  O39      1.0000 0.01203  0.82959  0.05781  Biso   1.000  O
  O40      1.0000 0.53699  0.00017  0.66106  Biso   1.000  O
  O41      1.0000 0.35003  0.02965  0.48728  Biso   1.000  O
  O42      1.0000 0.49928  0.83114  0.46961  Biso   1.000  O
  O43      1.0000 0.45634  0.49979  0.84151  Biso   1.000  O
  O44      1.0000 0.65912  0.51865  0.99451  Biso   1.000  O
  O45      1.0000 0.51370  0.33138  0.03560  Biso   1.000  O
  O46      1.0000 0.95047  0.48211  0.66236  Biso   1.000  O
  O47      1.0000 0.16305  0.53047  0.51150  Biso   1.000  O
  O48      1.0000 0.99537  0.32879  0.46020  Biso   1.000  O
  O49      1.0000 0.00998  0.94942  0.16001  Biso   1.000  O
  O50      1.0000 0.15830  0.99113  0.95585  Biso   1.000  O
  O51      1.0000 0.96295  0.13757  0.99610  Biso   1.000  O
  O52      1.0000 0.51442  0.94132  0.34763  Biso   1.000  O
  O53      1.0000 0.65573  0.99092  0.54942  Biso   1.000  O
  O54      1.0000 0.46262  0.14123  0.48929  Biso   1.000  O
  O55      1.0000 0.51210  0.43746  0.15795  Biso   1.000  O
  O56      1.0000 0.35121  0.50191  0.96353  Biso   1.000  O
  O57      1.0000 0.55408  0.64170  0.01227  Biso   1.000  O
  O58      1.0000 0.01180  0.45183  0.35051  Biso   1.000  O
  O59      1.0000 0.84894  0.48818  0.54503  Biso   1.000  O
  O60      1.0000 0.04870  0.63999  0.52069  Biso   1.000  O
  O61      1.0000 0.99352  0.01961  0.84703  Biso   1.000  O
  O62      1.0000 0.84830  0.98233  0.04899  Biso   1.000  O
  O63      1.0000 0.05323  0.83028  0.02053  Biso   1.000  O
  O64      1.0000 0.49449  0.04362  0.66177  Biso   1.000  O
  O65      1.0000 0.35501  0.98371  0.45564  Biso   1.000  O
  O66      1.0000 0.54499  0.83088  0.50953  Biso   1.000  O
  O67      1.0000 0.49802  0.53853  0.84195  Biso   1.000  O
  O68      1.0000 0.66413  0.48352  0.04227  Biso   1.000  O
  O69      1.0000 0.46597  0.33546  0.99964  Biso   1.000  O
  O70      1.0000 0.99507  0.52145  0.66472  Biso   1.000  O
  O71      1.0000 0.16554  0.48843  0.47068  Biso   1.000  O
  O72      1.0000 0.96526  0.32694  0.51229  Biso   1.000  O
  O73      1.0000 0.98837  0.43705  0.65957  Biso   1.000  O
  O74      1.0000 0.66268  0.99216  0.46299  Biso   1.000  O
  O75      1.0000 0.47024  0.64447  0.01021  Biso   1.000  O
  O76      1.0000 0.49706  0.45203  0.84006  Biso   1.000  O
  O77      1.0000 0.16894  0.99277  0.03871  Biso   1.000  O
  O78      1.0000 0.96701  0.64369  0.50648  Biso   1.000  O
  O79      1.0000 0.49344  0.95919  0.66476  Biso   1.000  O
  O80      1.0000 0.85519  0.48699  0.46050  Biso   1.000  O
  O81      1.0000 0.04651  0.14572  0.99838  Biso   1.000  O
  O82      1.0000 0.00446  0.93888  0.85100  Biso   1.000  O
  O83      1.0000 0.35589  0.48670  0.04772  Biso   1.000  O
  O84      1.0000 0.54572  0.14120  0.50557  Biso   1.000  O
  O85      1.0000 0.02032  0.53314  0.34884  Biso   1.000  O
  O86      1.0000 0.34881  0.99215  0.53717  Biso   1.000  O
  O87      1.0000 0.54755  0.32982  0.98218  Biso   1.000  O
  O88      1.0000 0.51730  0.52249  0.16453  Biso   1.000  O
  O89      1.0000 0.84395  0.98197  0.96549  Biso   1.000  O
  O90      1.0000 0.04819  0.32689  0.49233  Biso   1.000  O
  O91      1.0000 0.50374  0.02234  0.34281  Biso   1.000  O
  O92      1.0000 0.15642  0.48579  0.55610  Biso   1.000  O
  O93      1.0000 0.96975  0.83005  0.01551  Biso   1.000  O
  O94      1.0000 0.01239  0.03660  0.15643  Biso   1.000  O
  O95      1.0000 0.65782  0.46747  0.95819  Biso   1.000  O
  O96      1.0000 0.46249  0.83202  0.52038  Biso   1.000  O
  O97      1.0000 0.46240  0.18828  0.48160  Biso   1.000  O
  O98      1.0000 0.51962  0.43256  0.20642  Biso   1.000  O
  O99      1.0000 0.21443  0.49102  0.47427  Biso   1.000  O
  O100     1.0000 0.95745  0.18615  0.99435  Biso   1.000  O
  O101     1.0000 0.01825  0.45385  0.30189  Biso   1.000  O
  O102     1.0000 0.71267  0.47704  0.03919  Biso   1.000  O
  O103     1.0000 0.04941  0.68824  0.52011  Biso   1.000  O
  O104     1.0000 0.01000  0.95278  0.20977  Biso   1.000  O
  O105     1.0000 0.30640  0.98715  0.45564  Biso   1.000  O
  O106     1.0000 0.55631  0.69009  0.00862  Biso   1.000  O
  O107     1.0000 0.51542  0.94025  0.29896  Biso   1.000  O
  O108     1.0000 0.79973  0.97806  0.05052  Biso   1.000  O
  O109     1.0000 0.54671  0.78155  0.51426  Biso   1.000  O
  O110     1.0000 0.50261  0.54252  0.79478  Biso   1.000  O
  O111     1.0000 0.80066  0.48809  0.54330  Biso   1.000  O
  O112     1.0000 0.05419  0.78152  0.01912  Biso   1.000  O
  O113     1.0000 0.99253  0.51626  0.71230  Biso   1.000  O
  O114     1.0000 0.30357  0.50485  0.96557  Biso   1.000  O
  O115     1.0000 0.96189  0.27894  0.50654  Biso   1.000  O
  O116     1.0000 0.98948  0.01958  0.79874  Biso   1.000  O
  O117     1.0000 0.70397  0.98372  0.55022  Biso   1.000  O
  O118     1.0000 0.46298  0.28819  0.00355  Biso   1.000  O
  O119     1.0000 0.49482  0.04354  0.70874  Biso   1.000  O
  O120     1.0000 0.20840  0.98913  0.95212  Biso   1.000  O
  O121     1.0000 0.03266  0.47016  0.71151  Biso   1.000  O
  O122     1.0000 0.70825  0.02992  0.50965  Biso   1.000  O
  O123     1.0000 0.51914  0.68461  0.05456  Biso   1.000  O
  O124     1.0000 0.53906  0.49553  0.79259  Biso   1.000  O
  O125     1.0000 0.20897  0.03529  0.99048  Biso   1.000  O
  O126     1.0000 0.01606  0.68923  0.47102  Biso   1.000  O
  O127     1.0000 0.45180  0.00263  0.70745  Biso   1.000  O
  O128     1.0000 0.80371  0.52895  0.49671  Biso   1.000  O
  O129     1.0000 0.99508  0.19043  0.03894  Biso   1.000  O
  O130     1.0000 0.95059  0.97417  0.79784  Biso   1.000  O
  O131     1.0000 0.30712  0.53376  0.01290  Biso   1.000  O
  O132     1.0000 0.51526  0.18907  0.45335  Biso   1.000  O
  O133     1.0000 0.97955  0.49987  0.30094  Biso   1.000  O
  O134     1.0000 0.30104  0.94640  0.49779  Biso   1.000  O
  O135     1.0000 0.49364  0.28467  0.94987  Biso   1.000  O
  O136     1.0000 0.47880  0.47179  0.21347  Biso   1.000  O
  O137     1.0000 0.80290  0.93843  0.00525  Biso   1.000  O
  O138     1.0000 0.01657  0.27502  0.53670  Biso   1.000  O
  O139     1.0000 0.55048  0.98423  0.29681  Biso   1.000  O
  O140     1.0000 0.20842  0.44667  0.51637  Biso   1.000  O
  O141     1.0000 0.01134  0.77736  0.97311  Biso   1.000  O
  O142     1.0000 0.05512  0.98753  0.20110  Biso   1.000  O
  O143     1.0000 0.70964  0.43496  0.00403  Biso   1.000  O
  O144     1.0000 0.51187  0.78431  0.55983  Biso   1.000  O
  O145     1.0000 0.55905  0.47485  0.20777  Biso   1.000  O
  O146     1.0000 0.21190  0.53331  0.51588  Biso   1.000  O
  O147     1.0000 0.48945  0.19603  0.53163  Biso   1.000  O
  O148     1.0000 0.06260  0.48934  0.30082  Biso   1.000  O
  O149     1.0000 0.70915  0.51781  0.99589  Biso   1.000  O
  O150     1.0000 0.00036  0.18576  0.95490  Biso   1.000  O
  O151     1.0000 0.97355  0.00255  0.20674  Biso   1.000  O
  O152     1.0000 0.30078  0.03068  0.49508  Biso   1.000  O
  O153     1.0000 0.00364  0.69452  0.55495  Biso   1.000  O
  O154     1.0000 0.46775  0.97544  0.29007  Biso   1.000  O
  O155     1.0000 0.80016  0.01964  0.01361  Biso   1.000  O
  O156     1.0000 0.51038  0.69091  0.97358  Biso   1.000  O
  O157     1.0000 0.45653  0.50292  0.79068  Biso   1.000  O
  O158     1.0000 0.80033  0.44487  0.50409  Biso   1.000  O
  O159     1.0000 0.49817  0.78174  0.47162  Biso   1.000  O
  O160     1.0000 0.95126  0.47811  0.71298  Biso   1.000  O
  O161     1.0000 0.30415  0.45205  0.00274  Biso   1.000  O
  O162     1.0000 0.00599  0.78170  0.05567  Biso   1.000  O
  O163     1.0000 0.03575  0.98562  0.79503  Biso   1.000  O
  O164     1.0000 0.70799  0.94780  0.50799  Biso   1.000  O
  O165     1.0000 0.00024  0.28217  0.45468  Biso   1.000  O
  O166     1.0000 0.53442  0.99967  0.71110  Biso   1.000  O
  O167     1.0000 0.21254  0.94893  0.99327  Biso   1.000  O
  O168     1.0000 0.51610  0.28239  0.03240  Biso   1.000  O
  O169     1.0000 0.02303  0.03583  0.20431  Biso   1.000  O
  O170     1.0000 0.21673  0.99646  0.03415  Biso   1.000  O
  O171     1.0000 0.04243  0.19481  0.99738  Biso   1.000  O
  O172     1.0000 0.50229  0.02010  0.29446  Biso   1.000  O
  O173     1.0000 0.71071  0.98960  0.46602  Biso   1.000  O
  O174     1.0000 0.54306  0.18936  0.50745  Biso   1.000  O
  O175     1.0000 0.51799  0.51504  0.21264  Biso   1.000  O
  O176     1.0000 0.30752  0.49171  0.05163  Biso   1.000  O
  O177     1.0000 0.47283  0.69184  0.01730  Biso   1.000  O
  O178     1.0000 0.02837  0.53272  0.30154  Biso   1.000  O
  O179     1.0000 0.80672  0.48785  0.45642  Biso   1.000  O
  O180     1.0000 0.96731  0.69272  0.50804  Biso   1.000  O
  O181     1.0000 0.00318  0.93374  0.80090  Biso   1.000  O
  O182     1.0000 0.79437  0.98071  0.96909  Biso   1.000  O
  O183     1.0000 0.97159  0.78203  0.01035  Biso   1.000  O
  O184     1.0000 0.49113  0.95942  0.71389  Biso   1.000  O
  O185     1.0000 0.29803  0.99162  0.53625  Biso   1.000  O
  O186     1.0000 0.46482  0.78357  0.52142  Biso   1.000  O
  O187     1.0000 0.49321  0.45435  0.78907  Biso   1.000  O
  O188     1.0000 0.70668  0.47010  0.95607  Biso   1.000  O
  O189     1.0000 0.54288  0.28030  0.98150  Biso   1.000  O
  O190     1.0000 0.98579  0.43257  0.70881  Biso   1.000  O
  O191     1.0000 0.20461  0.48827  0.55710  Biso   1.000  O
  O192     1.0000 0.04873  0.27953  0.48638  Biso   1.000  O
