data_image0
_cell_length_a       47.1063
_cell_length_b       46.5873
_cell_length_c       46.6914
_cell_angle_alpha    90
_cell_angle_beta     90
_cell_angle_gamma    90

_symmetry_space_group_name_H-M    "P 1"
_symmetry_int_tables_number       1

loop_
  _symmetry_equiv_pos_as_xyz
  'x, y, z'

loop_
  _atom_site_label
  _atom_site_occupancy
  _atom_site_fract_x
  _atom_site_fract_y
  _atom_site_fract_z
  _atom_site_thermal_displace_type
  _atom_site_B_iso_or_equiv
  _atom_site_type_symbol
  C1       1.0000 0.56196  0.99104  0.31700  Biso   1.000  C
  C2       1.0000 0.33076  0.54789  0.00227  Biso   1.000  C
  C3       1.0000 0.01952  0.30048  0.55812  Biso   1.000  C
  C4       1.0000 0.05899  0.98176  0.18456  Biso   1.000  C
  C5       1.0000 0.83278  0.53473  0.50620  Biso   1.000  C
  C6       1.0000 0.49893  0.30347  0.94708  Biso   1.000  C
  C7       1.0000 0.95283  0.49028  0.32717  Biso   1.000  C
  C8       1.0000 0.18777  0.04425  0.99715  Biso   1.000  C
  C9       1.0000 0.50925  0.79717  0.54784  Biso   1.000  C
  C10      1.0000 0.45169  0.49123  0.17949  Biso   1.000  C
  C11      1.0000 0.68931  0.03316  0.49424  Biso   1.000  C
  C12      1.0000 0.01920  0.80944  0.94966  Biso   1.000  C
  C13      1.0000 0.46667  0.96886  0.67931  Biso   1.000  C
  C14      1.0000 0.68867  0.42260  0.00590  Biso   1.000  C
  C15      1.0000 0.01767  0.66608  0.45102  Biso   1.000  C
  C16      1.0000 0.96666  0.99199  0.82342  Biso   1.000  C
  C17      1.0000 0.19289  0.43018  0.50089  Biso   1.000  C
  C18      1.0000 0.51185  0.67102  0.04563  Biso   1.000  C
  C19      1.0000 0.06738  0.47771  0.68270  Biso   1.000  C
  C20      1.0000 0.82917  0.92250  0.97942  Biso   1.000  C
  C21      1.0000 0.51850  0.16742  0.44966  Biso   1.000  C
  C22      1.0000 0.56881  0.48711  0.82106  Biso   1.000  C
  C23      1.0000 0.32865  0.93120  0.49529  Biso   1.000  C
  C24      1.0000 0.01239  0.16522  0.05826  Biso   1.000  C
  C25      1.0000 0.33052  0.03740  0.50697  Biso   1.000  C
  C26      1.0000 0.50911  0.30699  0.05630  Biso   1.000  C
  C27      1.0000 0.06224  0.47918  0.32317  Biso   1.000  C
  C28      1.0000 0.83074  0.02970  0.99943  Biso   1.000  C
  C29      1.0000 0.01405  0.29943  0.44954  Biso   1.000  C
  C30      1.0000 0.56053  0.48840  0.18253  Biso   1.000  C
  C31      1.0000 0.19213  0.53738  0.50352  Biso   1.000  C
  C32      1.0000 0.01487  0.80536  0.05968  Biso   1.000  C
  C33      1.0000 0.45326  0.98223  0.32097  Biso   1.000  C
  C34      1.0000 0.69165  0.53098  0.00486  Biso   1.000  C
  C35      1.0000 0.50714  0.80627  0.43995  Biso   1.000  C
  C36      1.0000 0.95085  0.98289  0.17756  Biso   1.000  C
  C37      1.0000 0.69177  0.92538  0.49463  Biso   1.000  C
  C38      1.0000 0.51643  0.66370  0.93783  Biso   1.000  C
  C39      1.0000 0.96011  0.49062  0.68081  Biso   1.000  C
  C40      1.0000 0.19361  0.93643  0.00785  Biso   1.000  C
  C41      1.0000 0.00529  0.66271  0.55829  Biso   1.000  C
  C42      1.0000 0.46241  0.47745  0.82016  Biso   1.000  C
  C43      1.0000 0.83314  0.42721  0.50396  Biso   1.000  C
  C44      1.0000 0.00301  0.16142  0.94903  Biso   1.000  C
  C45      1.0000 0.57387  0.98193  0.67643  Biso   1.000  C
  C46      1.0000 0.32530  0.44000  0.99308  Biso   1.000  C
  C47      1.0000 0.50903  0.16293  0.55780  Biso   1.000  C
  C48      1.0000 0.07095  0.97949  0.81677  Biso   1.000  C
  C49      1.0000 0.02310  0.03847  0.82136  Biso   1.000  C
  C50      1.0000 0.82854  0.96669  0.04375  Biso   1.000  C
  C51      1.0000 0.06865  0.80976  0.00819  Biso   1.000  C
  C52      1.0000 0.51345  0.02937  0.67729  Biso   1.000  C
  C53      1.0000 0.32733  0.99148  0.44882  Biso   1.000  C
  C54      1.0000 0.56589  0.80005  0.49323  Biso   1.000  C
  C55      1.0000 0.50820  0.53463  0.81782  Biso   1.000  C
  C56      1.0000 0.69206  0.47609  0.05871  Biso   1.000  C
  C57      1.0000 0.44887  0.31345  0.00596  Biso   1.000  C
  C58      1.0000 0.02004  0.53577  0.67888  Biso   1.000  C
  C59      1.0000 0.18692  0.48399  0.44654  Biso   1.000  C
  C60      1.0000 0.96028  0.29920  0.50625  Biso   1.000  C
  C61      1.0000 0.00096  0.92921  0.18575  Biso   1.000  C
  C62      1.0000 0.19144  0.98482  0.94925  Biso   1.000  C
  C63      1.0000 0.95208  0.15839  0.01182  Biso   1.000  C
  C64      1.0000 0.51475  0.93209  0.32262  Biso   1.000  C
  C65      1.0000 0.69217  0.98613  0.54717  Biso   1.000  C
  C66      1.0000 0.46108  0.16344  0.50185  Biso   1.000  C
  C67      1.0000 0.50937  0.43661  0.18230  Biso   1.000  C
  C68      1.0000 0.33005  0.49746  0.94516  Biso   1.000  C
  C69      1.0000 0.56862  0.66357  0.99752  Biso   1.000  C
  C70      1.0000 0.99972  0.42838  0.32654  Biso   1.000  C
  C71      1.0000 0.83366  0.48218  0.55663  Biso   1.000  C
  C72      1.0000 0.06411  0.66072  0.51637  Biso   1.000  C
  C73      1.0000 0.01286  0.53698  0.32310  Biso   1.000  C
  C74      1.0000 0.33101  0.97908  0.55663  Biso   1.000  C
  C75      1.0000 0.55756  0.30327  0.99855  Biso   1.000  C
  C76      1.0000 0.51026  0.54710  0.17566  Biso   1.000  C
  C77      1.0000 0.83377  0.98262  0.93652  Biso   1.000  C
  C78      1.0000 0.07148  0.29865  0.50174  Biso   1.000  C
  C79      1.0000 0.50797  0.04022  0.31915  Biso   1.000  C
  C80      1.0000 0.19205  0.48554  0.55532  Biso   1.000  C
  C81      1.0000 0.96113  0.80640  0.99893  Biso   1.000  C
  C82      1.0000 0.00588  0.03694  0.18289  Biso   1.000  C
  C83      1.0000 0.69016  0.47675  0.95004  Biso   1.000  C
  C84      1.0000 0.45306  0.80376  0.49339  Biso   1.000  C
  C85      1.0000 0.00643  0.42875  0.68416  Biso   1.000  C
  C86      1.0000 0.68530  0.97434  0.43900  Biso   1.000  C
  C87      1.0000 0.46163  0.66793  0.98739  Biso   1.000  C
  C88      1.0000 0.51930  0.42556  0.82090  Biso   1.000  C
  C89      1.0000 0.18435  0.99558  0.05674  Biso   1.000  C
  C90      1.0000 0.95713  0.66439  0.50364  Biso   1.000  C
  C91      1.0000 0.52579  0.92105  0.67461  Biso   1.000  C
  C92      1.0000 0.83187  0.48212  0.45064  Biso   1.000  C
  C93      1.0000 0.06034  0.16877  0.99342  Biso   1.000  C
  C94      1.0000 0.01565  0.92812  0.81882  Biso   1.000  C
  C95      1.0000 0.32918  0.48954  0.05166  Biso   1.000  C
  C96      1.0000 0.57127  0.16622  0.50838  Biso   1.000  C
  C97      1.0000 0.69118  0.06518  0.49376  Biso   1.000  C
  C98      1.0000 0.51501  0.67140  0.07794  Biso   1.000  C
  C99      1.0000 0.09960  0.47436  0.68346  Biso   1.000  C
  C100     1.0000 0.18889  0.07609  0.99126  Biso   1.000  C
  C101     1.0000 0.02045  0.66541  0.41848  Biso   1.000  C
  C102     1.0000 0.60028  0.49283  0.82299  Biso   1.000  C
  C103     1.0000 0.83381  0.56624  0.50870  Biso   1.000  C
  C104     1.0000 0.00735  0.16471  0.08949  Biso   1.000  C
  C105     1.0000 0.43311  0.97121  0.67891  Biso   1.000  C
  C106     1.0000 0.33193  0.58045  0.99868  Biso   1.000  C
  C107     1.0000 0.51577  0.16781  0.41725  Biso   1.000  C
  C108     1.0000 0.93531  0.99783  0.82311  Biso   1.000  C
  C109     1.0000 0.32796  0.90000  0.49648  Biso   1.000  C
  C110     1.0000 0.49502  0.30235  0.91510  Biso   1.000  C
  C111     1.0000 0.91992  0.49107  0.32519  Biso   1.000  C
  C112     1.0000 0.83175  0.89031  0.97411  Biso   1.000  C
  C113     1.0000 0.01459  0.30025  0.58920  Biso   1.000  C
  C114     1.0000 0.41976  0.48811  0.17742  Biso   1.000  C
  C115     1.0000 0.19205  0.39790  0.50048  Biso   1.000  C
  C116     1.0000 0.02183  0.80521  0.91765  Biso   1.000  C
  C117     1.0000 0.59332  0.99364  0.31676  Biso   1.000  C
  C118     1.0000 0.68979  0.39030  0.00264  Biso   1.000  C
  C119     1.0000 0.51227  0.79687  0.58011  Biso   1.000  C
  C120     1.0000 0.09083  0.98565  0.18484  Biso   1.000  C
  C121     1.0000 0.82868  0.96835  0.07564  Biso   1.000  C
  C122     1.0000 0.10139  0.81063  0.00402  Biso   1.000  C
  C123     1.0000 0.02183  0.07071  0.82327  Biso   1.000  C
  C124     1.0000 0.32378  0.99473  0.41786  Biso   1.000  C
  C125     1.0000 0.59743  0.79958  0.49620  Biso   1.000  C
  C126     1.0000 0.51025  0.06033  0.68020  Biso   1.000  C
  C127     1.0000 0.69137  0.47510  0.09032  Biso   1.000  C
  C128     1.0000 0.41633  0.31457  0.00764  Biso   1.000  C
  C129     1.0000 0.50296  0.56579  0.81621  Biso   1.000  C
  C130     1.0000 0.18800  0.48519  0.41329  Biso   1.000  C
  C131     1.0000 0.92785  0.29871  0.50923  Biso   1.000  C
  C132     1.0000 0.02075  0.56726  0.68196  Biso   1.000  C
  C133     1.0000 0.19288  0.98415  0.91808  Biso   1.000  C
  C134     1.0000 0.91921  0.15953  0.01138  Biso   1.000  C
  C135     1.0000 0.00005  0.89765  0.18644  Biso   1.000  C
  C136     1.0000 0.69431  0.99513  0.57803  Biso   1.000  C
  C137     1.0000 0.42870  0.16116  0.50103  Biso   1.000  C
  C138     1.0000 0.51837  0.90050  0.32048  Biso   1.000  C
  C139     1.0000 0.33124  0.49357  0.91235  Biso   1.000  C
  C140     1.0000 0.60086  0.66331  0.00157  Biso   1.000  C
  C141     1.0000 0.51602  0.40512  0.18270  Biso   1.000  C
  C142     1.0000 0.83416  0.48633  0.58795  Biso   1.000  C
  C143     1.0000 0.09587  0.66095  0.52450  Biso   1.000  C
  C144     1.0000 0.99816  0.39478  0.32625  Biso   1.000  C
  C145     1.0000 0.32794  0.48272  0.08289  Biso   1.000  C
  C146     1.0000 0.10293  0.29757  0.50418  Biso   1.000  C
  C147     1.0000 0.50448  0.07280  0.32058  Biso   1.000  C
  C148     1.0000 0.82894  0.48422  0.41893  Biso   1.000  C
  C149     1.0000 0.59009  0.30137  0.99669  Biso   1.000  C
  C150     1.0000 0.00285  0.06921  0.18232  Biso   1.000  C
  C151     1.0000 0.18668  0.99634  0.08875  Biso   1.000  C
  C152     1.0000 0.41998  0.80333  0.49588  Biso   1.000  C
  C153     1.0000 0.01549  0.56863  0.32291  Biso   1.000  C
  C154     1.0000 0.68483  0.96899  0.40688  Biso   1.000  C
  C155     1.0000 0.92983  0.80419  0.99909  Biso   1.000  C
  C156     1.0000 0.52102  0.57642  0.17278  Biso   1.000  C
  C157     1.0000 0.69098  0.48397  0.91853  Biso   1.000  C
  C158     1.0000 0.92591  0.66339  0.51168  Biso   1.000  C
  C159     1.0000 0.52880  0.88970  0.67397  Biso   1.000  C
  C160     1.0000 0.19357  0.48629  0.58648  Biso   1.000  C
  C161     1.0000 0.43038  0.67031  0.98512  Biso   1.000  C
  C162     1.0000 0.01590  0.89611  0.81890  Biso   1.000  C
  C163     1.0000 0.83287  0.98131  0.90554  Biso   1.000  C
  C164     1.0000 0.60368  0.16413  0.50734  Biso   1.000  C
  C165     1.0000 0.00662  0.39726  0.68326  Biso   1.000  C
  C166     1.0000 0.33247  0.98053  0.58920  Biso   1.000  C
  C167     1.0000 0.09152  0.17016  0.98498  Biso   1.000  C
  C168     1.0000 0.51528  0.39368  0.81982  Biso   1.000  C
  C169     1.0000 0.01365  0.80426  0.09176  Biso   1.000  C
  C170     1.0000 0.10311  0.98233  0.81566  Biso   1.000  C
  C171     1.0000 0.82840  0.06150  0.00149  Biso   1.000  C
  C172     1.0000 0.50892  0.80481  0.40851  Biso   1.000  C
  C173     1.0000 0.60631  0.98477  0.67651  Biso   1.000  C
  C174     1.0000 0.33352  0.06900  0.51098  Biso   1.000  C
  C175     1.0000 0.51282  0.30677  0.08722  Biso   1.000  C
  C176     1.0000 0.42903  0.47929  0.81909  Biso   1.000  C
  C177     1.0000 0.69383  0.56387  0.00669  Biso   1.000  C
  C178     1.0000 0.00688  0.29759  0.41844  Biso   1.000  C
  C179     1.0000 0.92755  0.49507  0.68024  Biso   1.000  C
  C180     1.0000 0.19219  0.57036  0.50678  Biso   1.000  C
  C181     1.0000 0.00722  0.16186  0.91677  Biso   1.000  C
  C182     1.0000 0.91767  0.98863  0.17531  Biso   1.000  C
  C183     1.0000 0.19576  0.90406  0.00383  Biso   1.000  C
  C184     1.0000 0.50451  0.16226  0.58984  Biso   1.000  C
  C185     1.0000 0.42002  0.98253  0.32369  Biso   1.000  C
  C186     1.0000 0.69447  0.89409  0.49959  Biso   1.000  C
  C187     1.0000 0.51486  0.66361  0.90498  Biso   1.000  C
  C188     1.0000 0.59287  0.48582  0.18204  Biso   1.000  C
  C189     1.0000 0.32382  0.40693  0.99556  Biso   1.000  C
  C190     1.0000 0.00377  0.66093  0.59006  Biso   1.000  C
  C191     1.0000 0.09465  0.48231  0.32111  Biso   1.000  C
  C192     1.0000 0.83319  0.39379  0.50165  Biso   1.000  C
  C193     1.0000 0.86022  0.98026  0.88989  Biso   1.000  C
  C194     1.0000 0.91324  0.82899  0.99101  Biso   1.000  C
  C195     1.0000 0.01576  0.88166  0.84723  Biso   1.000  C
  C196     1.0000 0.35999  0.97864  0.60331  Biso   1.000  C
  C197     1.0000 0.40420  0.83095  0.49553  Biso   1.000  C
  C198     1.0000 0.52946  0.87355  0.64692  Biso   1.000  C
  C199     1.0000 0.66506  0.48469  0.90287  Biso   1.000  C
  C200     1.0000 0.60779  0.32707  0.99792  Biso   1.000  C
  C201     1.0000 0.50904  0.37846  0.84675  Biso   1.000  C
  C202     1.0000 0.16726  0.48724  0.60490  Biso   1.000  C
  C203     1.0000 0.11737  0.32521  0.50543  Biso   1.000  C
  C204     1.0000 0.00947  0.38037  0.65717  Biso   1.000  C
  C205     1.0000 0.15914  0.99250  0.10414  Biso   1.000  C
  C206     1.0000 0.10808  0.14411  0.98033  Biso   1.000  C
  C207     1.0000 0.00619  0.08612  0.15644  Biso   1.000  C
  C208     1.0000 0.65786  0.97617  0.39154  Biso   1.000  C
  C209     1.0000 0.61792  0.13665  0.49999  Biso   1.000  C
  C210     1.0000 0.50748  0.09074  0.34808  Biso   1.000  C
  C211     1.0000 0.35365  0.48007  0.09913  Biso   1.000  C
  C212     1.0000 0.41174  0.64316  0.98562  Biso   1.000  C
  C213     1.0000 0.51460  0.59234  0.14589  Biso   1.000  C
  C214     1.0000 0.85481  0.48705  0.40116  Biso   1.000  C
  C215     1.0000 0.91136  0.63515  0.50845  Biso   1.000  C
  C216     1.0000 0.01579  0.58491  0.35040  Biso   1.000  C
  C217     1.0000 0.11712  0.98084  0.84403  Biso   1.000  C
  C218     1.0000 0.85398  0.07863  0.00358  Biso   1.000  C
  C219     1.0000 0.01067  0.83207  0.10770  Biso   1.000  C
  C220     1.0000 0.62030  0.99082  0.65082  Biso   1.000  C
  C221     1.0000 0.36046  0.08427  0.50886  Biso   1.000  C
  C222     1.0000 0.51190  0.83126  0.39222  Biso   1.000  C
  C223     1.0000 0.41312  0.48584  0.84547  Biso   1.000  C
  C224     1.0000 0.66802  0.58219  0.00620  Biso   1.000  C
  C225     1.0000 0.51592  0.33426  0.10177  Biso   1.000  C
  C226     1.0000 0.91219  0.49302  0.65254  Biso   1.000  C
  C227     1.0000 0.16561  0.58606  0.51074  Biso   1.000  C
  C228     1.0000 0.00422  0.32477  0.40252  Biso   1.000  C
  C229     1.0000 0.90279  0.98387  0.14787  Biso   1.000  C
  C230     1.0000 0.16876  0.88884  0.00016  Biso   1.000  C
  C231     1.0000 0.01251  0.13615  0.89994  Biso   1.000  C
  C232     1.0000 0.40505  0.98809  0.35046  Biso   1.000  C
  C233     1.0000 0.66761  0.87656  0.49511  Biso   1.000  C
  C234     1.0000 0.50551  0.13397  0.60421  Biso   1.000  C
  C235     1.0000 0.61017  0.48528  0.15497  Biso   1.000  C
  C236     1.0000 0.35065  0.39139  0.00121  Biso   1.000  C
  C237     1.0000 0.51463  0.63456  0.89031  Biso   1.000  C
  C238     1.0000 0.11060  0.48583  0.34807  Biso   1.000  C
  C239     1.0000 0.85975  0.37836  0.50528  Biso   1.000  C
  C240     1.0000 0.01017  0.63531  0.60506  Biso   1.000  C
  C241     1.0000 0.61435  0.49223  0.85107  Biso   1.000  C
  C242     1.0000 0.86166  0.58281  0.50675  Biso   1.000  C
  C243     1.0000 0.51931  0.82201  0.59709  Biso   1.000  C
  C244     1.0000 0.11616  0.48110  0.65709  Biso   1.000  C
  C245     1.0000 0.35956  0.59500  0.99486  Biso   1.000  C
  C246     1.0000 0.02190  0.83125  0.90087  Biso   1.000  C
  C247     1.0000 0.91507  0.99066  0.84645  Biso   1.000  C
  C248     1.0000 0.66528  0.08228  0.49427  Biso   1.000  C
  C249     1.0000 0.01357  0.32689  0.60512  Biso   1.000  C
  C250     1.0000 0.41476  0.97186  0.65269  Biso   1.000  C
  C251     1.0000 0.16108  0.09281  0.98657  Biso   1.000  C
  C252     1.0000 0.49554  0.32840  0.89911  Biso   1.000  C
  C253     1.0000 0.40429  0.48584  0.15007  Biso   1.000  C
  C254     1.0000 0.16570  0.38042  0.50331  Biso   1.000  C
  C255     1.0000 0.51330  0.14137  0.39918  Biso   1.000  C
  C256     1.0000 0.90192  0.49300  0.35114  Biso   1.000  C
  C257     1.0000 0.66208  0.37593  0.00042  Biso   1.000  C
  C258     1.0000 0.00903  0.13861  0.10601  Biso   1.000  C
  C259     1.0000 0.10725  0.98742  0.15770  Biso   1.000  C
  C260     1.0000 0.35440  0.88274  0.49710  Biso   1.000  C
  C261     1.0000 0.01946  0.63766  0.40255  Biso   1.000  C
  C262     1.0000 0.60929  0.98930  0.34325  Biso   1.000  C
  C263     1.0000 0.86076  0.87710  0.97903  Biso   1.000  C
  C264     1.0000 0.51474  0.64454  0.09433  Biso   1.000  C
  C265     1.0000 0.02027  0.08629  0.85008  Biso   1.000  C
  C266     1.0000 0.85605  0.97295  0.09326  Biso   1.000  C
  C267     1.0000 0.11626  0.83824  0.99912  Biso   1.000  C
  C268     1.0000 0.51054  0.07961  0.65437  Biso   1.000  C
  C269     1.0000 0.35153  0.99251  0.40087  Biso   1.000  C
  C270     1.0000 0.61519  0.82570  0.49458  Biso   1.000  C
  C271     1.0000 0.50746  0.58139  0.84249  Biso   1.000  C
  C272     1.0000 0.66388  0.47815  0.10544  Biso   1.000  C
  C273     1.0000 0.40065  0.34136  0.00813  Biso   1.000  C
  C274     1.0000 0.01698  0.58306  0.65575  Biso   1.000  C
  C275     1.0000 0.16135  0.48579  0.39743  Biso   1.000  C
  C276     1.0000 0.91246  0.32687  0.50787  Biso   1.000  C
  C277     1.0000 0.00306  0.88176  0.15998  Biso   1.000  C
  C278     1.0000 0.16675  0.98270  0.89968  Biso   1.000  C
  C279     1.0000 0.90280  0.13230  0.01009  Biso   1.000  C
  C280     1.0000 0.51704  0.88267  0.34540  Biso   1.000  C
  C281     1.0000 0.66771  0.99467  0.59562  Biso   1.000  C
  C282     1.0000 0.41328  0.13489  0.50479  Biso   1.000  C
  C283     1.0000 0.51732  0.38889  0.15396  Biso   1.000  C
  C284     1.0000 0.35830  0.49291  0.89765  Biso   1.000  C
  C285     1.0000 0.61672  0.63632  0.00329  Biso   1.000  C
  C286     1.0000 0.00026  0.37821  0.35276  Biso   1.000  C
  C287     1.0000 0.86114  0.48487  0.60308  Biso   1.000  C
  C288     1.0000 0.11431  0.63573  0.52157  Biso   1.000  C
  C289     1.0000 0.35183  0.85055  0.49527  Biso   1.000  C
  C290     1.0000 0.50121  0.32718  0.86822  Biso   1.000  C
  C291     1.0000 0.87222  0.48920  0.34847  Biso   1.000  C
  C292     1.0000 0.86086  0.84561  0.98204  Biso   1.000  C
  C293     1.0000 0.00932  0.32682  0.63666  Biso   1.000  C
  C294     1.0000 0.37313  0.48603  0.15147  Biso   1.000  C
  C295     1.0000 0.16915  0.34882  0.50402  Biso   1.000  C
  C296     1.0000 0.02143  0.82890  0.87018  Biso   1.000  C
  C297     1.0000 0.64010  0.98295  0.34039  Biso   1.000  C
  C298     1.0000 0.66135  0.34540  0.99786  Biso   1.000  C
  C299     1.0000 0.52186  0.82155  0.62818  Biso   1.000  C
  C300     1.0000 0.13798  0.98718  0.15633  Biso   1.000  C
  C301     1.0000 0.66877  0.11339  0.49376  Biso   1.000  C
  C302     1.0000 0.51664  0.64483  0.12528  Biso   1.000  C
  C303     1.0000 0.14692  0.47672  0.65598  Biso   1.000  C
  C304     1.0000 0.16080  0.12434  0.98872  Biso   1.000  C
  C305     1.0000 0.01945  0.63800  0.37024  Biso   1.000  C
  C306     1.0000 0.64602  0.49577  0.85144  Biso   1.000  C
  C307     1.0000 0.85860  0.61483  0.50627  Biso   1.000  C
  C308     1.0000 0.00418  0.13759  0.13706  Biso   1.000  C
  C309     1.0000 0.38279  0.97474  0.65497  Biso   1.000  C
  C310     1.0000 0.35890  0.62652  0.99282  Biso   1.000  C
  C311     1.0000 0.51279  0.14341  0.36760  Biso   1.000  C
  C312     1.0000 0.88548  0.99102  0.84105  Biso   1.000  C
  C313     1.0000 0.16287  0.48685  0.36649  Biso   1.000  C
  C314     1.0000 0.38206  0.13706  0.50784  Biso   1.000  C
  C315     1.0000 0.51675  0.35723  0.15440  Biso   1.000  C
  C316     1.0000 0.66435  0.48320  0.13533  Biso   1.000  C
  C317     1.0000 0.87184  0.13191  0.00898  Biso   1.000  C
  C318     1.0000 0.99795  0.34670  0.35238  Biso   1.000  C
  C319     1.0000 0.35052  0.99359  0.36967  Biso   1.000  C
  C320     1.0000 0.14459  0.63912  0.51677  Biso   1.000  C
  C321     1.0000 0.00673  0.85084  0.16047  Biso   1.000  C
  C322     1.0000 0.85265  0.97752  0.12459  Biso   1.000  C
  C323     1.0000 0.64806  0.63615  0.00265  Biso   1.000  C
  C324     1.0000 0.51863  0.85206  0.34162  Biso   1.000  C
  C325     1.0000 0.86011  0.48866  0.63408  Biso   1.000  C
  C326     1.0000 0.64733  0.82396  0.49642  Biso   1.000  C
  C327     1.0000 0.50745  0.61269  0.84165  Biso   1.000  C
  C328     1.0000 0.35955  0.48825  0.86678  Biso   1.000  C
  C329     1.0000 0.14823  0.83711  0.99725  Biso   1.000  C
  C330     1.0000 0.01225  0.61381  0.65821  Biso   1.000  C
  C331     1.0000 0.67079  0.99255  0.62684  Biso   1.000  C
  C332     1.0000 0.88100  0.32766  0.50637  Biso   1.000  C
  C333     1.0000 0.01897  0.11753  0.84826  Biso   1.000  C
  C334     1.0000 0.16905  0.98422  0.86805  Biso   1.000  C
  C335     1.0000 0.36872  0.33924  0.00832  Biso   1.000  C
  C336     1.0000 0.50958  0.11057  0.65650  Biso   1.000  C
  C337     1.0000 0.66749  0.49301  0.87317  Biso   1.000  C
  C338     1.0000 0.87970  0.63624  0.50823  Biso   1.000  C
  C339     1.0000 0.52552  0.84250  0.64934  Biso   1.000  C
  C340     1.0000 0.16813  0.48093  0.63496  Biso   1.000  C
  C341     1.0000 0.38113  0.64630  0.98925  Biso   1.000  C
  C342     1.0000 0.01903  0.84981  0.84876  Biso   1.000  C
  C343     1.0000 0.86173  0.98624  0.86022  Biso   1.000  C
  C344     1.0000 0.64864  0.13638  0.49615  Biso   1.000  C
  C345     1.0000 0.01041  0.34909  0.65892  Biso   1.000  C
  C346     1.0000 0.36074  0.97520  0.63462  Biso   1.000  C
  C347     1.0000 0.13909  0.14589  0.98685  Biso   1.000  C
  C348     1.0000 0.50695  0.34722  0.84612  Biso   1.000  C
  C349     1.0000 0.35120  0.48235  0.13020  Biso   1.000  C
  C350     1.0000 0.14937  0.32550  0.50370  Biso   1.000  C
  C351     1.0000 0.51077  0.12145  0.34655  Biso   1.000  C
  C352     1.0000 0.85090  0.48825  0.37029  Biso   1.000  C
  C353     1.0000 0.63866  0.32490  0.99781  Biso   1.000  C
  C354     1.0000 0.00276  0.11649  0.15821  Biso   1.000  C
  C355     1.0000 0.15924  0.99122  0.13522  Biso   1.000  C
  C356     1.0000 0.37242  0.82934  0.49565  Biso   1.000  C
  C357     1.0000 0.01791  0.61662  0.34735  Biso   1.000  C
  C358     1.0000 0.66134  0.97642  0.36110  Biso   1.000  C
  C359     1.0000 0.88186  0.82592  0.98817  Biso   1.000  C
  C360     1.0000 0.51723  0.62360  0.14764  Biso   1.000  C
  C361     1.0000 0.01491  0.13889  0.86933  Biso   1.000  C
  C362     1.0000 0.87228  0.98140  0.14734  Biso   1.000  C
  C363     1.0000 0.17098  0.85795  0.99944  Biso   1.000  C
  C364     1.0000 0.50829  0.13348  0.63611  Biso   1.000  C
  C365     1.0000 0.37317  0.99018  0.35076  Biso   1.000  C
  C366     1.0000 0.66909  0.84508  0.49666  Biso   1.000  C
  C367     1.0000 0.50987  0.63653  0.86062  Biso   1.000  C
  C368     1.0000 0.64133  0.48553  0.15593  Biso   1.000  C
  C369     1.0000 0.34803  0.35920  0.00143  Biso   1.000  C
  C370     1.0000 0.00901  0.63577  0.63659  Biso   1.000  C
  C371     1.0000 0.14106  0.48698  0.34481  Biso   1.000  C
  C372     1.0000 0.85829  0.34774  0.50583  Biso   1.000  C
  C373     1.0000 0.00922  0.83047  0.13837  Biso   1.000  C
  C374     1.0000 0.14854  0.98409  0.84611  Biso   1.000  C
  C375     1.0000 0.85155  0.10945  0.00525  Biso   1.000  C
  C376     1.0000 0.51608  0.83046  0.36139  Biso   1.000  C
  C377     1.0000 0.65204  0.99085  0.65041  Biso   1.000  C
  C378     1.0000 0.36054  0.11532  0.50938  Biso   1.000  C
  C379     1.0000 0.51754  0.33500  0.13304  Biso   1.000  C
  C380     1.0000 0.38061  0.48462  0.84636  Biso   1.000  C
  C381     1.0000 0.66922  0.61363  0.00461  Biso   1.000  C
  C382     1.0000 0.99988  0.32453  0.37290  Biso   1.000  C
  C383     1.0000 0.88089  0.49166  0.65512  Biso   1.000  C
  C384     1.0000 0.16556  0.61782  0.51327  Biso   1.000  C
  C385     1.0000 0.18780  0.13917  0.98982  Biso   1.000  C
  C386     1.0000 0.99991  0.16408  0.15342  Biso   1.000  C
  C387     1.0000 0.15378  0.98610  0.18298  Biso   1.000  C
  C388     1.0000 0.69733  0.12754  0.49221  Biso   1.000  C
  C389     1.0000 0.51615  0.17017  0.35280  Biso   1.000  C
  C390     1.0000 0.65537  0.98357  0.31336  Biso   1.000  C
  C391     1.0000 0.33371  0.64399  0.99602  Biso   1.000  C
  C392     1.0000 0.51770  0.67157  0.14090  Biso   1.000  C
  C393     1.0000 0.35684  0.48597  0.17699  Biso   1.000  C
  C394     1.0000 0.82996  0.63040  0.50849  Biso   1.000  C
  C395     1.0000 0.02033  0.66522  0.35535  Biso   1.000  C
  C396     1.0000 0.85742  0.48909  0.32203  Biso   1.000  C
  C397     1.0000 0.83583  0.82734  0.98013  Biso   1.000  C
  C398     1.0000 0.01973  0.80145  0.85452  Biso   1.000  C
  C399     1.0000 0.87316  0.99677  0.81348  Biso   1.000  C
  C400     1.0000 0.32388  0.83567  0.49524  Biso   1.000  C
  C401     1.0000 0.51851  0.79453  0.64214  Biso   1.000  C
  C402     1.0000 0.36827  0.97681  0.68203  Biso   1.000  C
  C403     1.0000 0.68832  0.32831  0.99865  Biso   1.000  C
  C404     1.0000 0.50262  0.30016  0.85300  Biso   1.000  C
  C405     1.0000 0.66243  0.50060  0.82587  Biso   1.000  C
  C406     1.0000 0.19706  0.33537  0.50450  Biso   1.000  C
  C407     1.0000 0.00733  0.30043  0.65318  Biso   1.000  C
  C408     1.0000 0.16286  0.46851  0.68110  Biso   1.000  C
  C409     1.0000 0.16589  0.98345  0.81991  Biso   1.000  C
  C410     1.0000 0.82412  0.12382  0.00346  Biso   1.000  C
  C411     1.0000 0.01291  0.80274  0.15384  Biso   1.000  C
  C412     1.0000 0.66963  0.98906  0.67645  Biso   1.000  C
  C413     1.0000 0.33391  0.13145  0.51010  Biso   1.000  C
  C414     1.0000 0.51768  0.80310  0.34554  Biso   1.000  C
  C415     1.0000 0.36462  0.48062  0.81953  Biso   1.000  C
  C416     1.0000 0.69705  0.62802  0.00358  Biso   1.000  C
  C417     1.0000 0.51450  0.30813  0.14935  Biso   1.000  C
  C418     1.0000 0.86373  0.49370  0.68258  Biso   1.000  C
  C419     1.0000 0.19145  0.63402  0.50907  Biso   1.000  C
  C420     1.0000 0.99618  0.29751  0.35811  Biso   1.000  C
  C421     1.0000 0.85554  0.98463  0.17309  Biso   1.000  C
  C422     1.0000 0.19691  0.84203  0.00171  Biso   1.000  C
  C423     1.0000 0.01045  0.16548  0.85351  Biso   1.000  C
  C424     1.0000 0.35708  0.98838  0.32248  Biso   1.000  C
  C425     1.0000 0.69551  0.83103  0.50221  Biso   1.000  C
  C426     1.0000 0.50859  0.15967  0.65226  Biso   1.000  C
  C427     1.0000 0.65682  0.48514  0.18274  Biso   1.000  C
  C428     1.0000 0.32086  0.34426  0.00004  Biso   1.000  C
  C429     1.0000 0.50821  0.66155  0.84493  Biso   1.000  C
  C430     1.0000 0.15720  0.48557  0.31776  Biso   1.000  C
  C431     1.0000 0.83184  0.33154  0.50435  Biso   1.000  C
  C432     1.0000 0.00612  0.66249  0.65333  Biso   1.000  C
  C433     1.0000 0.01733  0.13352  0.82176  Biso   1.000  C
  C434     1.0000 0.82404  0.97524  0.13964  Biso   1.000  C
  C435     1.0000 0.16312  0.81028  0.99955  Biso   1.000  C
  C436     1.0000 0.50968  0.12560  0.68484  Biso   1.000  C
  C437     1.0000 0.32339  0.99377  0.35358  Biso   1.000  C
  C438     1.0000 0.66131  0.79645  0.50146  Biso   1.000  C
  C439     1.0000 0.50322  0.62670  0.81463  Biso   1.000  C
  C440     1.0000 0.69048  0.48202  0.15183  Biso   1.000  C
  C441     1.0000 0.35331  0.31232  0.00878  Biso   1.000  C
  C442     1.0000 0.01146  0.62948  0.68506  Biso   1.000  C
  C443     1.0000 0.18993  0.48715  0.35171  Biso   1.000  C
  C444     1.0000 0.86636  0.30022  0.50519  Biso   1.000  C
  C445     1.0000 0.00950  0.83441  0.18568  Biso   1.000  C
  C446     1.0000 0.19742  0.98442  0.85375  Biso   1.000  C
  C447     1.0000 0.85409  0.15773  0.00924  Biso   1.000  C
  C448     1.0000 0.52419  0.83649  0.31408  Biso   1.000  C
  C449     1.0000 0.69915  0.99401  0.64088  Biso   1.000  C
  C450     1.0000 0.36690  0.16378  0.50802  Biso   1.000  C
  C451     1.0000 0.51594  0.34165  0.18173  Biso   1.000  C
  C452     1.0000 0.33268  0.48418  0.85147  Biso   1.000  C
  C453     1.0000 0.66460  0.66223  0.99985  Biso   1.000  C
  C454     1.0000 0.99414  0.33168  0.32559  Biso   1.000  C
  C455     1.0000 0.83345  0.49233  0.65026  Biso   1.000  C
  C456     1.0000 0.15992  0.66600  0.51667  Biso   1.000  C
  C457     1.0000 0.01823  0.63337  0.32160  Biso   1.000  C
  C458     1.0000 0.33454  0.97599  0.65238  Biso   1.000  C
  C459     1.0000 0.65404  0.29839  0.99922  Biso   1.000  C
  C460     1.0000 0.52278  0.63928  0.17382  Biso   1.000  C
  C461     1.0000 0.83712  0.99222  0.84245  Biso   1.000  C
  C462     1.0000 0.16669  0.30041  0.50548  Biso   1.000  C
  C463     1.0000 0.51200  0.13681  0.31965  Biso   1.000  C
  C464     1.0000 0.19568  0.47598  0.64878  Biso   1.000  C
  C465     1.0000 0.86822  0.79791  0.98936  Biso   1.000  C
  C466     1.0000 0.99995  0.13093  0.18545  Biso   1.000  C
  C467     1.0000 0.69397  0.49991  0.85891  Biso   1.000  C
  C468     1.0000 0.35639  0.80220  0.49510  Biso   1.000  C
  C469     1.0000 0.00887  0.33401  0.68577  Biso   1.000  C
  C470     1.0000 0.68701  0.97120  0.34490  Biso   1.000  C
  C471     1.0000 0.36764  0.67325  0.99019  Biso   1.000  C
  C472     1.0000 0.51030  0.33081  0.81951  Biso   1.000  C
  C473     1.0000 0.18586  0.99357  0.15140  Biso   1.000  C
  C474     1.0000 0.86349  0.66206  0.51154  Biso   1.000  C
  C475     1.0000 0.52177  0.82652  0.67523  Biso   1.000  C
  C476     1.0000 0.82459  0.48442  0.35481  Biso   1.000  C
  C477     1.0000 0.15493  0.17323  0.99004  Biso   1.000  C
  C478     1.0000 0.01757  0.83322  0.82251  Biso   1.000  C
  C479     1.0000 0.32506  0.48192  0.14425  Biso   1.000  C
  C480     1.0000 0.66528  0.16210  0.49786  Biso   1.000  C
  C481     1.0000 0.37203  0.77487  0.49919  Biso   1.000  C
  C482     1.0000 0.51349  0.34547  0.79139  Biso   1.000  C
  C483     1.0000 0.79984  0.48066  0.37367  Biso   1.000  C
  C484     1.0000 0.88525  0.77191  0.99661  Biso   1.000  C
  C485     1.0000 0.00669  0.35020  0.71200  Biso   1.000  C
  C486     1.0000 0.29766  0.47996  0.12810  Biso   1.000  C
  C487     1.0000 0.15316  0.27210  0.50638  Biso   1.000  C
  C488     1.0000 0.01600  0.84736  0.79418  Biso   1.000  C
  C489     1.0000 0.71355  0.96220  0.36154  Biso   1.000  C
  C490     1.0000 0.63696  0.27089  0.99674  Biso   1.000  C
  C491     1.0000 0.52486  0.84025  0.70275  Biso   1.000  C
  C492     1.0000 0.21220  0.99668  0.13503  Biso   1.000  C
  C493     1.0000 0.65114  0.19112  0.50518  Biso   1.000  C
  C494     1.0000 0.53046  0.62333  0.19881  Biso   1.000  C
  C495     1.0000 0.22286  0.47901  0.63181  Biso   1.000  C
  C496     1.0000 0.13776  0.19923  0.99318  Biso   1.000  C
  C497     1.0000 0.01727  0.61717  0.29488  Biso   1.000  C
  C498     1.0000 0.72036  0.50181  0.87598  Biso   1.000  C
  C499     1.0000 0.87825  0.68914  0.51781  Biso   1.000  C
  C500     1.0000 0.99465  0.11466  0.21197  Biso   1.000  C
  C501     1.0000 0.30676  0.97871  0.63752  Biso   1.000  C
  C502     1.0000 0.38556  0.69927  0.99014  Biso   1.000  C
  C503     1.0000 0.50945  0.12059  0.29302  Biso   1.000  C
  C504     1.0000 0.80863  0.98874  0.85776  Biso   1.000  C
  C505     1.0000 0.64790  0.49977  0.79690  Biso   1.000  C
  C506     1.0000 0.80274  0.61278  0.50794  Biso   1.000  C
  C507     1.0000 0.51100  0.76696  0.62450  Biso   1.000  C
  C508     1.0000 0.14728  0.46356  0.70762  Biso   1.000  C
  C509     1.0000 0.30626  0.62950  0.99984  Biso   1.000  C
  C510     1.0000 0.01778  0.77563  0.87126  Biso   1.000  C
  C511     1.0000 0.89219  0.00303  0.78883  Biso   1.000  C
  C512     1.0000 0.72100  0.10952  0.49066  Biso   1.000  C
  C513     1.0000 0.00751  0.27350  0.63552  Biso   1.000  C
  C514     1.0000 0.38618  0.97708  0.70784  Biso   1.000  C
  C515     1.0000 0.21478  0.12268  0.98995  Biso   1.000  C
  C516     1.0000 0.49988  0.27430  0.86999  Biso   1.000  C
  C517     1.0000 0.37125  0.48646  0.20386  Biso   1.000  C
  C518     1.0000 0.22321  0.35263  0.49982  Biso   1.000  C
  C519     1.0000 0.51939  0.19681  0.37078  Biso   1.000  C
  C520     1.0000 0.87353  0.49182  0.29465  Biso   1.000  C
  C521     1.0000 0.71571  0.34273  0.00279  Biso   1.000  C
  C522     1.0000 0.99991  0.19152  0.13726  Biso   1.000  C
  C523     1.0000 0.13875  0.98247  0.21117  Biso   1.000  C
  C524     1.0000 0.29851  0.85306  0.49123  Biso   1.000  C
  C525     1.0000 0.01934  0.69258  0.37108  Biso   1.000  C
  C526     1.0000 0.63985  0.99208  0.28747  Biso   1.000  C
  C527     1.0000 0.80704  0.84102  0.97448  Biso   1.000  C
  C528     1.0000 0.51838  0.69886  0.12450  Biso   1.000  C
  C529     1.0000 0.79738  0.10754  0.00000  Biso   1.000  C
  C530     1.0000 0.01997  0.77607  0.13933  Biso   1.000  C
  C531     1.0000 0.15209  0.98525  0.79206  Biso   1.000  C
  C532     1.0000 0.30581  0.11761  0.51075  Biso   1.000  C
  C533     1.0000 0.51031  0.77637  0.36107  Biso   1.000  C
  C534     1.0000 0.65386  0.98625  0.70338  Biso   1.000  C
  C535     1.0000 0.72322  0.61061  0.00252  Biso   1.000  C
  C536     1.0000 0.51002  0.28010  0.13581  Biso   1.000  C
  C537     1.0000 0.38071  0.47703  0.79252  Biso   1.000  C
  C538     1.0000 0.21901  0.61832  0.50177  Biso   1.000  C
  C539     1.0000 0.99833  0.26955  0.37131  Biso   1.000  C
  C540     1.0000 0.88102  0.49825  0.70915  Biso   1.000  C
  C541     1.0000 0.22404  0.85721  0.00457  Biso   1.000  C
  C542     1.0000 0.00705  0.19177  0.87063  Biso   1.000  C
  C543     1.0000 0.87020  0.98897  0.20077  Biso   1.000  C
  C544     1.0000 0.72125  0.84862  0.50462  Biso   1.000  C
  C545     1.0000 0.50187  0.18757  0.64016  Biso   1.000  C
  C546     1.0000 0.37232  0.98138  0.29622  Biso   1.000  C
  C547     1.0000 0.29263  0.36097  0.00157  Biso   1.000  C
  C548     1.0000 0.51071  0.69140  0.85759  Biso   1.000  C
  C549     1.0000 0.64030  0.48642  0.20985  Biso   1.000  C
  C550     1.0000 0.80536  0.34722  0.49692  Biso   1.000  C
  C551     1.0000 0.00197  0.68969  0.63814  Biso   1.000  C
  C552     1.0000 0.14267  0.48281  0.29109  Biso   1.000  C
  C553     1.0000 0.01863  0.11652  0.79431  Biso   1.000  C
  C554     1.0000 0.79755  0.96995  0.12155  Biso   1.000  C
  C555     1.0000 0.14915  0.78210  0.99959  Biso   1.000  C
  C556     1.0000 0.51001  0.10603  0.71022  Biso   1.000  C
  C557     1.0000 0.29641  0.99429  0.36908  Biso   1.000  C
  C558     1.0000 0.64434  0.77040  0.50427  Biso   1.000  C
  C559     1.0000 0.49779  0.61002  0.78695  Biso   1.000  C
  C560     1.0000 0.71900  0.48006  0.13607  Biso   1.000  C
  C561     1.0000 0.36987  0.28589  0.00814  Biso   1.000  C
  C562     1.0000 0.01701  0.61278  0.71095  Biso   1.000  C
  C563     1.0000 0.21687  0.48871  0.36745  Biso   1.000  C
  C564     1.0000 0.88187  0.27330  0.50778  Biso   1.000  C
  C565     1.0000 0.00745  0.84922  0.21354  Biso   1.000  C
  C566     1.0000 0.22331  0.98302  0.87043  Biso   1.000  C
  C567     1.0000 0.86977  0.18588  0.00816  Biso   1.000  C
  C568     1.0000 0.52780  0.85606  0.28876  Biso   1.000  C
  C569     1.0000 0.72495  0.99857  0.62407  Biso   1.000  C
  C570     1.0000 0.38255  0.19067  0.50345  Biso   1.000  C
  C571     1.0000 0.51685  0.35676  0.21003  Biso   1.000  C
  C572     1.0000 0.30468  0.48293  0.86656  Biso   1.000  C
  C573     1.0000 0.64745  0.69005  0.99729  Biso   1.000  C
  C574     1.0000 0.99200  0.34832  0.29953  Biso   1.000  C
  C575     1.0000 0.80724  0.49085  0.63496  Biso   1.000  C
  C576     1.0000 0.14258  0.69111  0.52271  Biso   1.000  C
  C577     1.0000 0.29914  0.48113  0.09659  Biso   1.000  C
  C578     1.0000 0.12119  0.27186  0.50467  Biso   1.000  C
  C579     1.0000 0.50749  0.08972  0.29373  Biso   1.000  C
  C580     1.0000 0.80233  0.47965  0.40438  Biso   1.000  C
  C581     1.0000 0.60495  0.27367  0.99579  Biso   1.000  C
  C582     1.0000 0.99665  0.08366  0.21035  Biso   1.000  C
  C583     1.0000 0.21298  0.00051  0.10478  Biso   1.000  C
  C584     1.0000 0.40453  0.77464  0.49866  Biso   1.000  C
  C585     1.0000 0.01623  0.58511  0.29590  Biso   1.000  C
  C586     1.0000 0.71179  0.96169  0.39201  Biso   1.000  C
  C587     1.0000 0.91464  0.77546  0.00493  Biso   1.000  C
  C588     1.0000 0.52966  0.59167  0.19800  Biso   1.000  C
  C589     1.0000 0.71900  0.49412  0.90640  Biso   1.000  C
  C590     1.0000 0.90930  0.69044  0.51699  Biso   1.000  C
  C591     1.0000 0.52785  0.87319  0.70136  Biso   1.000  C
  C592     1.0000 0.22227  0.48510  0.60158  Biso   1.000  C
  C593     1.0000 0.41654  0.69813  0.98459  Biso   1.000  C
  C594     1.0000 0.01650  0.87873  0.79237  Biso   1.000  C
  C595     1.0000 0.80635  0.98313  0.88824  Biso   1.000  C
  C596     1.0000 0.61974  0.19082  0.51092  Biso   1.000  C
  C597     1.0000 0.00590  0.38255  0.71119  Biso   1.000  C
  C598     1.0000 0.30587  0.98165  0.60614  Biso   1.000  C
  C599     1.0000 0.10687  0.19802  0.99060  Biso   1.000  C
  C600     1.0000 0.51772  0.37709  0.79337  Biso   1.000  C
  C601     1.0000 0.22122  0.98292  0.90180  Biso   1.000  C
  C602     1.0000 0.90148  0.18585  0.01218  Biso   1.000  C
  C603     1.0000 0.00258  0.88076  0.21339  Biso   1.000  C
  C604     1.0000 0.72278  0.99695  0.59288  Biso   1.000  C
  C605     1.0000 0.41395  0.18898  0.50052  Biso   1.000  C
  C606     1.0000 0.52464  0.88796  0.29257  Biso   1.000  C
  C607     1.0000 0.30529  0.48791  0.89762  Biso   1.000  C
  C608     1.0000 0.61596  0.68965  0.00117  Biso   1.000  C
  C609     1.0000 0.51625  0.38904  0.20915  Biso   1.000  C
  C610     1.0000 0.80589  0.48867  0.60391  Biso   1.000  C
  C611     1.0000 0.11126  0.68732  0.52746  Biso   1.000  C
  C612     1.0000 0.99353  0.37999  0.29891  Biso   1.000  C
  C613     1.0000 0.80022  0.96668  0.09080  Biso   1.000  C
  C614     1.0000 0.11793  0.78280  0.00145  Biso   1.000  C
  C615     1.0000 0.02309  0.08537  0.79582  Biso   1.000  C
  C616     1.0000 0.29578  0.99642  0.40197  Biso   1.000  C
  C617     1.0000 0.61222  0.77165  0.50129  Biso   1.000  C
  C618     1.0000 0.50852  0.07556  0.70761  Biso   1.000  C
  C619     1.0000 0.71946  0.47547  0.10549  Biso   1.000  C
  C620     1.0000 0.40055  0.28682  0.00871  Biso   1.000  C
  C621     1.0000 0.49494  0.57871  0.78908  Biso   1.000  C
  C622     1.0000 0.21633  0.48825  0.39932  Biso   1.000  C
  C623     1.0000 0.91211  0.27215  0.51031  Biso   1.000  C
  C624     1.0000 0.02219  0.58128  0.70971  Biso   1.000  C
  C625     1.0000 0.00608  0.18974  0.90099  Biso   1.000  C
  C626     1.0000 0.90042  0.99257  0.20114  Biso   1.000  C
  C627     1.0000 0.22401  0.88904  0.00597  Biso   1.000  C
  C628     1.0000 0.49985  0.18924  0.60886  Biso   1.000  C
  C629     1.0000 0.40372  0.97813  0.29595  Biso   1.000  C
  C630     1.0000 0.72100  0.87957  0.50306  Biso   1.000  C
  C631     1.0000 0.51402  0.69156  0.88866  Biso   1.000  C
  C632     1.0000 0.60906  0.48558  0.20942  Biso   1.000  C
  C633     1.0000 0.29475  0.39196  0.99590  Biso   1.000  C
  C634     1.0000 0.00092  0.68716  0.60811  Biso   1.000  C
  C635     1.0000 0.11090  0.48226  0.29292  Biso   1.000  C
  C636     1.0000 0.80540  0.37813  0.49754  Biso   1.000  C
  C637     1.0000 0.02170  0.77748  0.10765  Biso   1.000  C
  C638     1.0000 0.12052  0.98227  0.78837  Biso   1.000  C
  C639     1.0000 0.79965  0.07548  0.99952  Biso   1.000  C
  C640     1.0000 0.50731  0.77708  0.39287  Biso   1.000  C
  C641     1.0000 0.62245  0.98280  0.70299  Biso   1.000  C
  C642     1.0000 0.30700  0.08598  0.51314  Biso   1.000  C
  C643     1.0000 0.50886  0.28047  0.10347  Biso   1.000  C
  C644     1.0000 0.41205  0.47557  0.79265  Biso   1.000  C
  C645     1.0000 0.72149  0.57915  0.00400  Biso   1.000  C
  C646     1.0000 0.00288  0.27007  0.40305  Biso   1.000  C
  C647     1.0000 0.91244  0.49865  0.70770  Biso   1.000  C
  C648     1.0000 0.21883  0.58696  0.50256  Biso   1.000  C
  C649     1.0000 0.02042  0.69303  0.40193  Biso   1.000  C
  C650     1.0000 0.41710  0.97243  0.70755  Biso   1.000  C
  C651     1.0000 0.71665  0.37344  0.00468  Biso   1.000  C
  C652     1.0000 0.51813  0.69840  0.09363  Biso   1.000  C
  C653     1.0000 0.92351  0.00365  0.79469  Biso   1.000  C
  C654     1.0000 0.22000  0.38311  0.49769  Biso   1.000  C
  C655     1.0000 0.51750  0.19586  0.40237  Biso   1.000  C
  C656     1.0000 0.11546  0.46691  0.70898  Biso   1.000  C
  C657     1.0000 0.80587  0.87239  0.97200  Biso   1.000  C
  C658     1.0000 0.00400  0.19124  0.10520  Biso   1.000  C
  C659     1.0000 0.61609  0.49702  0.79612  Biso   1.000  C
  C660     1.0000 0.30000  0.88458  0.49351  Biso   1.000  C
  C661     1.0000 0.01297  0.27271  0.60444  Biso   1.000  C
  C662     1.0000 0.60841  0.99717  0.28990  Biso   1.000  C
  C663     1.0000 0.30491  0.59806  0.00059  Biso   1.000  C
  C664     1.0000 0.49616  0.27352  0.90083  Biso   1.000  C
  C665     1.0000 0.10727  0.98467  0.21191  Biso   1.000  C
  C666     1.0000 0.80588  0.58119  0.50854  Biso   1.000  C
  C667     1.0000 0.50867  0.76872  0.59376  Biso   1.000  C
  C668     1.0000 0.90507  0.49283  0.29578  Biso   1.000  C
  C669     1.0000 0.21618  0.09154  0.99164  Biso   1.000  C
  C670     1.0000 0.02071  0.77723  0.90243  Biso   1.000  C
  C671     1.0000 0.40279  0.48777  0.20348  Biso   1.000  C
  C672     1.0000 0.71882  0.07892  0.49031  Biso   1.000  C
  C673     1.0000 0.21393  0.98147  0.80727  Biso   1.000  C
  C674     1.0000 0.80657  0.16937  0.00522  Biso   1.000  C
  C675     1.0000 0.01634  0.78781  0.19967  Biso   1.000  C
  C676     1.0000 0.71498  0.99646  0.68861  Biso   1.000  C
  C677     1.0000 0.32083  0.17998  0.50777  Biso   1.000  C
  C678     1.0000 0.52903  0.79104  0.29871  Biso   1.000  C
  C679     1.0000 0.31790  0.47517  0.80607  Biso   1.000  C
  C680     1.0000 0.71084  0.67526  0.99633  Biso   1.000  C
  C681     1.0000 0.51361  0.29536  0.19786  Biso   1.000  C
  C682     1.0000 0.81859  0.49685  0.69884  Biso   1.000  C
  C683     1.0000 0.20519  0.68067  0.50547  Biso   1.000  C
  C684     1.0000 0.99126  0.28442  0.31099  Biso   1.000  C
  C685     1.0000 0.81135  0.98211  0.18790  Biso   1.000  C
  C686     1.0000 0.21146  0.79723  0.00541  Biso   1.000  C
  C687     1.0000 0.00986  0.18078  0.80775  Biso   1.000  C
  C688     1.0000 0.30943  0.99330  0.30767  Biso   1.000  C
  C689     1.0000 0.70821  0.78409  0.50725  Biso   1.000  C
  C690     1.0000 0.50871  0.17261  0.69903  Biso   1.000  C
  C691     1.0000 0.70320  0.48680  0.19910  Biso   1.000  C
  C692     1.0000 0.30581  0.29831  0.00248  Biso   1.000  C
  C693     1.0000 0.50504  0.67359  0.79765  Biso   1.000  C
  C694     1.0000 0.20246  0.48647  0.30348  Biso   1.000  C
  C695     1.0000 0.81916  0.28488  0.50403  Biso   1.000  C
  C696     1.0000 0.01056  0.67620  0.69959  Biso   1.000  C
  C697     1.0000 0.70244  0.97640  0.29841  Biso   1.000  C
  C698     1.0000 0.32396  0.69188  0.00048  Biso   1.000  C
  C699     1.0000 0.00882  0.28764  0.70009  Biso   1.000  C
  C700     1.0000 0.20017  0.99111  0.19812  Biso   1.000  C
  C701     1.0000 0.81768  0.67806  0.51327  Biso   1.000  C
  C702     1.0000 0.50888  0.28354  0.80834  Biso   1.000  C
  C703     1.0000 0.81068  0.48417  0.30777  Biso   1.000  C
  C704     1.0000 0.20104  0.18651  0.99135  Biso   1.000  C
  C705     1.0000 0.51686  0.78152  0.69003  Biso   1.000  C
  C706     1.0000 0.31028  0.48509  0.19018  Biso   1.000  C
  C707     1.0000 0.71165  0.17485  0.49509  Biso   1.000  C
  C708     1.0000 0.01668  0.78635  0.80749  Biso   1.000  C
  C709     1.0000 0.32248  0.97840  0.70075  Biso   1.000  C
  C710     1.0000 0.69951  0.28096  0.00421  Biso   1.000  C
  C711     1.0000 0.02017  0.67889  0.30778  Biso   1.000  C
  C712     1.0000 0.82860  0.99998  0.79404  Biso   1.000  C
  C713     1.0000 0.21390  0.28786  0.50641  Biso   1.000  C
  C714     1.0000 0.52715  0.68605  0.18634  Biso   1.000  C
  C715     1.0000 0.20928  0.46755  0.69544  Biso   1.000  C
  C716     1.0000 0.82107  0.78206  0.98330  Biso   1.000  C
  C717     1.0000 0.51620  0.18404  0.30618  Biso   1.000  C
  C718     1.0000 0.70973  0.50459  0.81252  Biso   1.000  C
  C719     1.0000 0.31008  0.78879  0.49155  Biso   1.000  C
  C720     1.0000 0.99827  0.17761  0.20017  Biso   1.000  C
  C721     1.0000 0.54278  0.76250  0.30405  Biso   1.000  C
  C722     1.0000 0.29357  0.49525  0.80431  Biso   1.000  C
  C723     1.0000 0.79094  0.28758  0.51995  Biso   1.000  C
  C724     1.0000 0.00113  0.75906  0.19732  Biso   1.000  C
  C725     1.0000 0.79495  0.51684  0.69708  Biso   1.000  C
  C726     1.0000 0.28116  0.30030  0.98360  Biso   1.000  C
  C727     1.0000 0.97563  0.25549  0.31643  Biso   1.000  C
  C728     1.0000 0.24199  0.99548  0.81066  Biso   1.000  C
  C729     1.0000 0.73178  0.78967  0.52729  Biso   1.000  C
  C730     1.0000 0.49379  0.29808  0.22258  Biso   1.000  C
  C731     1.0000 0.74333  0.98317  0.68491  Biso   1.000  C
  C732     1.0000 0.23714  0.80174  0.02246  Biso   1.000  C
  C733     1.0000 0.49414  0.16882  0.72689  Biso   1.000  C
  C734     1.0000 0.70392  0.50975  0.22090  Biso   1.000  C
  C735     1.0000 0.19731  0.70786  0.49138  Biso   1.000  C
  C736     1.0000 0.99299  0.20713  0.81194  Biso   1.000  C
  C737     1.0000 0.23043  0.47197  0.30570  Biso   1.000  C
  C738     1.0000 0.74077  0.67110  0.00922  Biso   1.000  C
  C739     1.0000 0.02566  0.70330  0.69509  Biso   1.000  C
  C740     1.0000 0.79086  0.95808  0.18969  Biso   1.000  C
  C741     1.0000 0.29657  0.17559  0.49010  Biso   1.000  C
  C742     1.0000 0.52075  0.67050  0.77113  Biso   1.000  C
  C743     1.0000 0.28027  0.98166  0.31017  Biso   1.000  C
  C744     1.0000 0.80929  0.19493  0.02522  Biso   1.000  C
  C745     1.0000 0.03650  0.70563  0.30998  Biso   1.000  C
  C746     1.0000 0.29539  0.99214  0.69665  Biso   1.000  C
  C747     1.0000 0.72846  0.28123  0.99013  Biso   1.000  C
  C748     1.0000 0.54443  0.71184  0.18178  Biso   1.000  C
  C749     1.0000 0.83170  0.98518  0.76670  Biso   1.000  C
  C750     1.0000 0.24213  0.29447  0.51816  Biso   1.000  C
  C751     1.0000 0.52612  0.18073  0.27687  Biso   1.000  C
  C752     1.0000 0.23858  0.45322  0.68973  Biso   1.000  C
  C753     1.0000 0.79982  0.77914  0.95912  Biso   1.000  C
  C754     1.0000 0.01337  0.17432  0.22782  Biso   1.000  C
  C755     1.0000 0.73538  0.48682  0.81422  Biso   1.000  C
  C756     1.0000 0.28240  0.79190  0.50505  Biso   1.000  C
  C757     1.0000 0.98937  0.26314  0.69851  Biso   1.000  C
  C758     1.0000 0.73201  0.98667  0.30549  Biso   1.000  C
  C759     1.0000 0.30004  0.68775  0.02281  Biso   1.000  C
  C760     1.0000 0.52588  0.28629  0.78229  Biso   1.000  C
  C761     1.0000 0.22006  0.01584  0.19709  Biso   1.000  C
  C762     1.0000 0.82366  0.70607  0.50017  Biso   1.000  C
  C763     1.0000 0.50016  0.78696  0.71762  Biso   1.000  C
  C764     1.0000 0.78150  0.49807  0.31401  Biso   1.000  C
  C765     1.0000 0.22750  0.18212  0.00653  Biso   1.000  C
  C766     1.0000 0.99710  0.78751  0.78202  Biso   1.000  C
  C767     1.0000 0.31074  0.50517  0.21469  Biso   1.000  C
  C768     1.0000 0.70627  0.20317  0.48083  Biso   1.000  C
  C769     1.0000 0.49018  0.70031  0.80134  Biso   1.000  C
  C770     1.0000 0.81885  0.47979  0.72536  Biso   1.000  C
  C771     1.0000 0.70766  0.75515  0.49145  Biso   1.000  C
  C772     1.0000 0.99625  0.67325  0.72714  Biso   1.000  C
  C773     1.0000 0.32079  0.45214  0.78243  Biso   1.000  C
  C774     1.0000 0.20980  0.76950  0.98882  Biso   1.000  C
  C775     1.0000 0.02564  0.17811  0.78024  Biso   1.000  C
  C776     1.0000 0.70919  0.01034  0.71545  Biso   1.000  C
  C777     1.0000 0.82238  0.25873  0.48541  Biso   1.000  C
  C778     1.0000 0.52364  0.20024  0.69617  Biso   1.000  C
  C779     1.0000 0.21062  0.96292  0.78119  Biso   1.000  C
  C780     1.0000 0.30724  0.27281  0.02019  Biso   1.000  C
  C781     1.0000 0.53368  0.26982  0.19525  Biso   1.000  C
  C782     1.0000 0.19709  0.50282  0.27666  Biso   1.000  C
  C783     1.0000 0.32483  0.20691  0.52325  Biso   1.000  C
  C784     1.0000 0.00341  0.28786  0.28248  Biso   1.000  C
  C785     1.0000 0.72705  0.46803  0.19753  Biso   1.000  C
  C786     1.0000 0.77888  0.16655  0.99119  Biso   1.000  C
  C787     1.0000 0.03311  0.79052  0.22671  Biso   1.000  C
  C788     1.0000 0.31591  0.00973  0.28062  Biso   1.000  C
  C789     1.0000 0.23500  0.67642  0.51206  Biso   1.000  C
  C790     1.0000 0.51937  0.79617  0.26918  Biso   1.000  C
  C791     1.0000 0.81029  0.00312  0.21099  Biso   1.000  C
  C792     1.0000 0.70678  0.70140  0.98031  Biso   1.000  C
  C793     1.0000 0.50392  0.21335  0.31093  Biso   1.000  C
  C794     1.0000 0.28623  0.46479  0.19060  Biso   1.000  C
  C795     1.0000 0.20880  0.26013  0.49250  Biso   1.000  C
  C796     1.0000 0.97965  0.20266  0.19760  Biso   1.000  C
  C797     1.0000 0.81469  0.47560  0.27750  Biso   1.000  C
  C798     1.0000 0.69186  0.25498  0.02086  Biso   1.000  C
  C799     1.0000 0.00167  0.67506  0.28292  Biso   1.000  C
  C800     1.0000 0.20215  0.97171  0.22173  Biso   1.000  C
  C801     1.0000 0.31538  0.76202  0.47621  Biso   1.000  C
  C802     1.0000 0.51184  0.68499  0.21357  Biso   1.000  C
  C803     1.0000 0.69732  0.96612  0.26952  Biso   1.000  C
  C804     1.0000 0.81819  0.76255  0.00765  Biso   1.000  C
  C805     1.0000 0.53064  0.75352  0.68651  Biso   1.000  C
  C806     1.0000 0.70800  0.52239  0.78653  Biso   1.000  C
  C807     1.0000 0.78921  0.67244  0.52765  Biso   1.000  C
  C808     1.0000 0.03428  0.75972  0.80994  Biso   1.000  C
  C809     1.0000 0.20672  0.47808  0.72472  Biso   1.000  C
  C810     1.0000 0.32427  0.72060  0.98384  Biso   1.000  C
  C811     1.0000 0.02521  0.29061  0.72689  Biso   1.000  C
  C812     1.0000 0.80109  0.01670  0.79870  Biso   1.000  C
  C813     1.0000 0.73855  0.17272  0.51063  Biso   1.000  C
  C814     1.0000 0.48849  0.25912  0.80915  Biso   1.000  C
  C815     1.0000 0.32663  0.96433  0.72749  Biso   1.000  C
  C816     1.0000 0.19599  0.21405  0.97674  Biso   1.000  C
  C817     1.0000 0.99071  0.22838  0.79101  Biso   1.000  C
  C818     1.0000 0.77128  0.95554  0.21149  Biso   1.000  C
  C819     1.0000 0.25843  0.77993  0.02324  Biso   1.000  C
  C820     1.0000 0.49298  0.19203  0.74781  Biso   1.000  C
  C821     1.0000 0.26085  0.98378  0.28713  Biso   1.000  C
  C822     1.0000 0.75348  0.76853  0.52921  Biso   1.000  C
  C823     1.0000 0.52078  0.69161  0.74988  Biso   1.000  C
  C824     1.0000 0.72580  0.51182  0.24052  Biso   1.000  C
  C825     1.0000 0.26226  0.27749  0.98057  Biso   1.000  C
  C826     1.0000 0.02535  0.72385  0.71671  Biso   1.000  C
  C827     1.0000 0.25168  0.47398  0.28463  Biso   1.000  C
  C828     1.0000 0.77063  0.26708  0.51577  Biso   1.000  C
  C829     1.0000 0.00349  0.73765  0.21856  Biso   1.000  C
  C830     1.0000 0.26325  0.99704  0.78810  Biso   1.000  C
  C831     1.0000 0.78728  0.21416  0.03095  Biso   1.000  C
  C832     1.0000 0.54571  0.74352  0.28187  Biso   1.000  C
  C833     1.0000 0.76381  0.98471  0.70560  Biso   1.000  C
  C834     1.0000 0.27504  0.19695  0.48923  Biso   1.000  C
  C835     1.0000 0.49559  0.27565  0.24191  Biso   1.000  C
  C836     1.0000 0.27459  0.49158  0.78034  Biso   1.000  C
  C837     1.0000 0.76340  0.68966  0.00091  Biso   1.000  C
  C838     1.0000 0.97492  0.23500  0.29387  Biso   1.000  C
  C839     1.0000 0.77560  0.52112  0.72037  Biso   1.000  C
  C840     1.0000 0.21777  0.72870  0.48604  Biso   1.000  C
  C841     1.0000 0.23277  0.96074  0.76142  Biso   1.000  C
  C842     1.0000 0.75694  0.18643  0.99678  Biso   1.000  C
  C843     1.0000 0.03570  0.76773  0.24654  Biso   1.000  C
  C844     1.0000 0.73004  0.00946  0.73577  Biso   1.000  C
  C845     1.0000 0.30411  0.22768  0.51936  Biso   1.000  C
  C846     1.0000 0.52543  0.77691  0.24676  Biso   1.000  C
  C847     1.0000 0.29990  0.44990  0.76039  Biso   1.000  C
  C848     1.0000 0.72883  0.72193  0.97797  Biso   1.000  C
  C849     1.0000 0.53352  0.24854  0.21601  Biso   1.000  C
  C850     1.0000 0.79822  0.48342  0.74682  Biso   1.000  C
  C851     1.0000 0.25642  0.69743  0.50216  Biso   1.000  C
  C852     1.0000 0.00443  0.26537  0.26184  Biso   1.000  C
  C853     1.0000 0.78932  0.00007  0.23383  Biso   1.000  C
  C854     1.0000 0.23231  0.74966  0.99058  Biso   1.000  C
  C855     1.0000 0.02301  0.19969  0.75920  Biso   1.000  C
  C856     1.0000 0.29283  0.01286  0.26001  Biso   1.000  C
  C857     1.0000 0.72969  0.73537  0.49390  Biso   1.000  C
  C858     1.0000 0.52199  0.22260  0.71628  Biso   1.000  C
  C859     1.0000 0.74953  0.46953  0.21838  Biso   1.000  C
  C860     1.0000 0.28793  0.24993  0.01729  Biso   1.000  C
  C861     1.0000 0.49172  0.72277  0.78094  Biso   1.000  C
  C862     1.0000 0.21902  0.50426  0.25465  Biso   1.000  C
  C863     1.0000 0.80021  0.23904  0.48256  Biso   1.000  C
  C864     1.0000 0.99749  0.69376  0.74907  Biso   1.000  C
  C865     1.0000 0.75562  0.48664  0.79255  Biso   1.000  C
  C866     1.0000 0.80394  0.72799  0.50328  Biso   1.000  C
  C867     1.0000 0.49769  0.76606  0.73914  Biso   1.000  C
  C868     1.0000 0.26080  0.45366  0.71011  Biso   1.000  C
  C869     1.0000 0.27833  0.71006  0.02548  Biso   1.000  C
  C870     1.0000 0.99694  0.76502  0.76272  Biso   1.000  C
  C871     1.0000 0.80969  0.98571  0.74681  Biso   1.000  C
  C872     1.0000 0.72630  0.22599  0.48184  Biso   1.000  C
  C873     1.0000 0.98589  0.24494  0.72224  Biso   1.000  C
  C874     1.0000 0.27391  0.99218  0.71790  Biso   1.000  C
  C875     1.0000 0.24738  0.20340  0.00812  Biso   1.000  C
  C876     1.0000 0.52502  0.26611  0.76131  Biso   1.000  C
  C877     1.0000 0.29048  0.50544  0.23667  Biso   1.000  C
  C878     1.0000 0.26235  0.27272  0.51621  Biso   1.000  C
  C879     1.0000 0.52368  0.20150  0.25543  Biso   1.000  C
  C880     1.0000 0.76114  0.50140  0.29212  Biso   1.000  C
  C881     1.0000 0.74875  0.26008  0.99643  Biso   1.000  C
  C882     1.0000 0.01083  0.19424  0.24915  Biso   1.000  C
  C883     1.0000 0.24137  0.01873  0.21733  Biso   1.000  C
  C884     1.0000 0.26126  0.77079  0.50404  Biso   1.000  C
  C885     1.0000 0.03799  0.72508  0.28766  Biso   1.000  C
  C886     1.0000 0.75413  0.98488  0.28430  Biso   1.000  C
  C887     1.0000 0.77970  0.75717  0.95963  Biso   1.000  C
  C888     1.0000 0.54830  0.73249  0.20388  Biso   1.000  C
  C889     1.0000 0.71879  0.96845  0.24866  Biso   1.000  C
  C890     1.0000 0.30370  0.74121  0.99042  Biso   1.000  C
  C891     1.0000 0.02386  0.26936  0.74753  Biso   1.000  C
  C892     1.0000 0.22381  0.97470  0.24187  Biso   1.000  C
  C893     1.0000 0.76842  0.69477  0.52851  Biso   1.000  C
  C894     1.0000 0.48603  0.23965  0.78640  Biso   1.000  C
  C895     1.0000 0.79482  0.48244  0.25666  Biso   1.000  C
  C896     1.0000 0.21822  0.23400  0.97747  Biso   1.000  C
  C897     1.0000 0.52567  0.73322  0.70790  Biso   1.000  C
  C898     1.0000 0.26417  0.46674  0.21233  Biso   1.000  C
  C899     1.0000 0.75840  0.19548  0.51016  Biso   1.000  C
  C900     1.0000 0.03039  0.73758  0.79127  Biso   1.000  C
  C901     1.0000 0.30608  0.96314  0.74887  Biso   1.000  C
  C902     1.0000 0.71243  0.23209  0.02460  Biso   1.000  C
  C903     1.0000 0.00106  0.69656  0.26270  Biso   1.000  C
  C904     1.0000 0.77952  0.01581  0.77768  Biso   1.000  C
  C905     1.0000 0.23100  0.24023  0.48953  Biso   1.000  C
  C906     1.0000 0.51981  0.70468  0.23654  Biso   1.000  C
  C907     1.0000 0.22905  0.47702  0.74315  Biso   1.000  C
  C908     1.0000 0.79681  0.74030  0.00684  Biso   1.000  C
  C909     1.0000 0.50430  0.23467  0.28994  Biso   1.000  C
  C910     1.0000 0.72856  0.52019  0.76555  Biso   1.000  C
  C911     1.0000 0.29385  0.74118  0.47584  Biso   1.000  C
  C912     1.0000 0.97865  0.22276  0.21931  Biso   1.000  C
  C913     1.0000 0.77654  0.50416  0.74499  Biso   1.000  C
  C914     1.0000 0.75282  0.74323  0.51239  Biso   1.000  C
  C915     1.0000 0.50554  0.71647  0.75496  Biso   1.000  C
  C916     1.0000 0.27756  0.47032  0.75933  Biso   1.000  C
  C917     1.0000 0.25583  0.75419  0.00784  Biso   1.000  C
  C918     1.0000 0.01310  0.71803  0.74378  Biso   1.000  C
  C919     1.0000 0.75709  0.99965  0.73074  Biso   1.000  C
  C920     1.0000 0.77526  0.24364  0.49750  Biso   1.000  C
  C921     1.0000 0.00689  0.22416  0.76550  Biso   1.000  C
  C922     1.0000 0.25712  0.97839  0.76538  Biso   1.000  C
  C923     1.0000 0.26470  0.25341  0.99758  Biso   1.000  C
  C924     1.0000 0.50681  0.21861  0.74140  Biso   1.000  C
  C925     1.0000 0.24355  0.48757  0.25888  Biso   1.000  C
  C926     1.0000 0.27993  0.22361  0.50181  Biso   1.000  C
  C927     1.0000 0.51381  0.25108  0.23868  Biso   1.000  C
  C928     1.0000 0.74725  0.49076  0.23906  Biso   1.000  C
  C929     1.0000 0.76062  0.21000  0.01697  Biso   1.000  C
  C930     1.0000 0.98863  0.24024  0.26760  Biso   1.000  C
  C931     1.0000 0.26641  0.99809  0.26189  Biso   1.000  C
  C932     1.0000 0.24717  0.72244  0.48920  Biso   1.000  C
  C933     1.0000 0.02089  0.74198  0.24222  Biso   1.000  C
  C934     1.0000 0.76958  0.97731  0.23296  Biso   1.000  C
  C935     1.0000 0.75729  0.71488  0.98702  Biso   1.000  C
  C936     1.0000 0.53900  0.75174  0.25416  Biso   1.000  C
  C937     1.0000 0.74139  0.23513  0.01310  Biso   1.000  C
  C938     1.0000 0.01970  0.72093  0.26460  Biso   1.000  C
  C939     1.0000 0.27965  0.97731  0.74341  Biso   1.000  C
  C940     1.0000 0.25713  0.24558  0.50363  Biso   1.000  C
  C941     1.0000 0.53823  0.72771  0.23115  Biso   1.000  C
  C942     1.0000 0.78251  0.99927  0.75187  Biso   1.000  C
  C943     1.0000 0.77864  0.73819  0.98384  Biso   1.000  C
  C944     1.0000 0.51232  0.22870  0.26072  Biso   1.000  C
  C945     1.0000 0.25591  0.46547  0.73712  Biso   1.000  C
  C946     1.0000 0.26699  0.74590  0.48856  Biso   1.000  C
  C947     1.0000 0.99179  0.21796  0.24493  Biso   1.000  C
  C948     1.0000 0.75209  0.50283  0.76759  Biso   1.000  C
  C949     1.0000 0.27939  0.73400  0.00770  Biso   1.000  C
  C950     1.0000 0.00444  0.24748  0.74518  Biso   1.000  C
  C951     1.0000 0.74733  0.97671  0.25535  Biso   1.000  C
  C952     1.0000 0.77555  0.72128  0.51394  Biso   1.000  C
  C953     1.0000 0.50473  0.24306  0.76231  Biso   1.000  C
  C954     1.0000 0.24300  0.99775  0.24017  Biso   1.000  C
  C955     1.0000 0.24266  0.22882  0.99526  Biso   1.000  C
  C956     1.0000 0.51236  0.74088  0.73433  Biso   1.000  C
  C957     1.0000 0.76729  0.49278  0.26309  Biso   1.000  C
  C958     1.0000 0.75254  0.22121  0.49561  Biso   1.000  C
  C959     1.0000 0.01425  0.74087  0.76641  Biso   1.000  C
  C960     1.0000 0.26531  0.48790  0.23469  Biso   1.000  C
  Cu1      1.0000 0.01404  0.48465  0.65409  Biso   1.000  Cu
  Cu2      1.0000 0.66174  0.98083  0.49433  Biso   1.000  Cu
  Cu3      1.0000 0.51308  0.63803  0.99385  Biso   1.000  Cu
  Cu4      1.0000 0.51550  0.48079  0.84759  Biso   1.000  Cu
  Cu5      1.0000 0.16279  0.98972  0.00316  Biso   1.000  Cu
  Cu6      1.0000 0.01082  0.63595  0.50301  Biso   1.000  Cu
  Cu7      1.0000 0.51998  0.97608  0.64881  Biso   1.000  Cu
  Cu8      1.0000 0.85902  0.48121  0.50547  Biso   1.000  Cu
  Cu9      1.0000 0.00815  0.13617  0.00331  Biso   1.000  Cu
  Cu10     1.0000 0.02133  0.98302  0.84653  Biso   1.000  Cu
  Cu11     1.0000 0.35647  0.49301  0.99778  Biso   1.000  Cu
  Cu12     1.0000 0.51567  0.13813  0.50256  Biso   1.000  Cu
  Cu13     1.0000 0.00723  0.48421  0.35219  Biso   1.000  Cu
  Cu14     1.0000 0.35775  0.98369  0.50011  Biso   1.000  Cu
  Cu15     1.0000 0.50405  0.33519  0.00118  Biso   1.000  Cu
  Cu16     1.0000 0.50606  0.49099  0.15325  Biso   1.000  Cu
  Cu17     1.0000 0.85717  0.97583  0.99098  Biso   1.000  Cu
  Cu18     1.0000 0.01622  0.32744  0.50245  Biso   1.000  Cu
  Cu19     1.0000 0.50832  0.98676  0.34743  Biso   1.000  Cu
  Cu20     1.0000 0.16352  0.48246  0.50230  Biso   1.000  Cu
  Cu21     1.0000 0.01450  0.83671  0.00491  Biso   1.000  Cu
  Cu22     1.0000 0.00657  0.98178  0.15627  Biso   1.000  Cu
  Cu23     1.0000 0.66113  0.47601  0.00585  Biso   1.000  Cu
  Cu24     1.0000 0.51071  0.83023  0.49390  Biso   1.000  Cu
  Cu25     1.0000 0.21666  0.99111  0.00268  Biso   1.000  Cu
  Cu26     1.0000 0.00513  0.18978  0.00324  Biso   1.000  Cu
  Cu27     1.0000 0.00375  0.98296  0.21138  Biso   1.000  Cu
  Cu28     1.0000 0.71647  0.97914  0.49164  Biso   1.000  Cu
  Cu29     1.0000 0.51345  0.19351  0.50578  Biso   1.000  Cu
  Cu30     1.0000 0.50795  0.98690  0.29361  Biso   1.000  Cu
  Cu31     1.0000 0.30172  0.49583  0.99639  Biso   1.000  Cu
  Cu32     1.0000 0.51623  0.69171  0.99178  Biso   1.000  Cu
  Cu33     1.0000 0.50639  0.49219  0.20732  Biso   1.000  Cu
  Cu34     1.0000 0.80656  0.48139  0.50654  Biso   1.000  Cu
  Cu35     1.0000 0.00924  0.69206  0.50459  Biso   1.000  Cu
  Cu36     1.0000 0.00649  0.48386  0.29690  Biso   1.000  Cu
  Cu37     1.0000 0.80365  0.97601  0.98978  Biso   1.000  Cu
  Cu38     1.0000 0.01603  0.78141  0.00473  Biso   1.000  Cu
  Cu39     1.0000 0.01677  0.98527  0.79088  Biso   1.000  Cu
  Cu40     1.0000 0.30420  0.98470  0.50270  Biso   1.000  Cu
  Cu41     1.0000 0.50895  0.77542  0.49495  Biso   1.000  Cu
  Cu42     1.0000 0.52196  0.97443  0.70274  Biso   1.000  Cu
  Cu43     1.0000 0.71433  0.47740  0.00474  Biso   1.000  Cu
  Cu44     1.0000 0.50187  0.27921  0.00144  Biso   1.000  Cu
  Cu45     1.0000 0.51454  0.47878  0.79332  Biso   1.000  Cu
  Cu46     1.0000 0.21763  0.48356  0.50092  Biso   1.000  Cu
  Cu47     1.0000 0.01713  0.27198  0.50300  Biso   1.000  Cu
  Cu48     1.0000 0.01237  0.48217  0.70770  Biso   1.000  Cu
  H1       1.0000 0.24185  0.77591  0.51526  Biso   1.000  H
  H2       1.0000 0.54205  0.26928  0.74445  Biso   1.000  H
  H3       1.0000 0.73976  0.50952  0.29984  Biso   1.000  H
  H4       1.0000 0.76125  0.75673  0.94470  Biso   1.000  H
  H5       1.0000 0.97145  0.22666  0.72400  Biso   1.000  H
  H6       1.0000 0.29428  0.51891  0.25489  Biso   1.000  H
  H7       1.0000 0.28261  0.27684  0.52551  Biso   1.000  H
  H8       1.0000 0.98360  0.76997  0.74350  Biso   1.000  H
  H9       1.0000 0.77750  0.99074  0.29264  Biso   1.000  H
  H10      1.0000 0.77092  0.26235  0.98976  Biso   1.000  H
  H11      1.0000 0.48715  0.77114  0.75875  Biso   1.000  H
  H12      1.0000 0.25556  0.03684  0.21821  Biso   1.000  H
  H13      1.0000 0.71918  0.24713  0.47390  Biso   1.000  H
  H14      1.0000 0.56146  0.75260  0.19868  Biso   1.000  H
  H15      1.0000 0.28136  0.44355  0.70367  Biso   1.000  H
  H16      1.0000 0.26623  0.19826  0.01959  Biso   1.000  H
  H17      1.0000 0.05558  0.74182  0.28957  Biso   1.000  H
  H18      1.0000 0.77302  0.47099  0.79535  Biso   1.000  H
  H19      1.0000 0.80821  0.74612  0.49064  Biso   1.000  H
  H20      1.0000 0.02358  0.19335  0.26930  Biso   1.000  H
  H21      1.0000 0.25592  0.00582  0.71610  Biso   1.000  H
  H22      1.0000 0.25854  0.70600  0.03827  Biso   1.000  H
  H23      1.0000 0.53099  0.19484  0.23353  Biso   1.000  H
  H24      1.0000 0.81476  0.97465  0.72668  Biso   1.000  H
  H25      1.0000 0.28273  0.01222  0.78901  Biso   1.000  H
  H26      1.0000 0.79067  0.23111  0.04647  Biso   1.000  H
  H27      1.0000 0.99234  0.71830  0.21256  Biso   1.000  H
  H28      1.0000 0.78498  0.97736  0.69882  Biso   1.000  H
  H29      1.0000 0.25590  0.19293  0.47544  Biso   1.000  H
  H30      1.0000 0.55676  0.72328  0.28513  Biso   1.000  H
  H31      1.0000 0.25763  0.50688  0.77673  Biso   1.000  H
  H32      1.0000 0.78457  0.68745  0.00988  Biso   1.000  H
  H33      1.0000 0.47827  0.27443  0.25905  Biso   1.000  H
  H34      1.0000 0.76147  0.53891  0.71940  Biso   1.000  H
  H35      1.0000 0.21028  0.74805  0.47442  Biso   1.000  H
  H36      1.0000 0.96349  0.21486  0.29871  Biso   1.000  H
  H37      1.0000 0.75672  0.93603  0.21025  Biso   1.000  H
  H38      1.0000 0.27812  0.78389  0.03514  Biso   1.000  H
  H39      1.0000 0.97584  0.24653  0.79450  Biso   1.000  H
  H40      1.0000 0.24063  0.97252  0.29163  Biso   1.000  H
  H41      1.0000 0.77029  0.76899  0.54525  Biso   1.000  H
  H42      1.0000 0.48010  0.19206  0.76651  Biso   1.000  H
  H43      1.0000 0.72668  0.52831  0.25729  Biso   1.000  H
  H44      1.0000 0.24477  0.27892  0.96601  Biso   1.000  H
  H45      1.0000 0.53385  0.68706  0.73153  Biso   1.000  H
  H46      1.0000 0.27379  0.46516  0.28648  Biso   1.000  H
  H47      1.0000 0.74846  0.27001  0.52666  Biso   1.000  H
  H48      1.0000 0.03875  0.74250  0.71407  Biso   1.000  H
  H49      1.0000 0.21868  0.51826  0.23717  Biso   1.000  H
  H50      1.0000 0.30757  0.24535  0.53508  Biso   1.000  H
  H51      1.0000 0.54850  0.22981  0.21356  Biso   1.000  H
  H52      1.0000 0.76532  0.45186  0.22172  Biso   1.000  H
  H53      1.0000 0.73752  0.18551  0.98562  Biso   1.000  H
  H54      1.0000 0.01799  0.26558  0.24287  Biso   1.000  H
  H55      1.0000 0.29835  0.02418  0.23993  Biso   1.000  H
  H56      1.0000 0.27849  0.69421  0.50589  Biso   1.000  H
  H57      1.0000 0.04931  0.77122  0.26607  Biso   1.000  H
  H58      1.0000 0.78585  0.01788  0.24917  Biso   1.000  H
  H59      1.0000 0.72507  0.74131  0.96680  Biso   1.000  H
  H60      1.0000 0.51943  0.77950  0.22367  Biso   1.000  H
  H61      1.0000 0.79732  0.47050  0.76488  Biso   1.000  H
  H62      1.0000 0.72912  0.71554  0.48194  Biso   1.000  H
  H63      1.0000 0.48111  0.74326  0.78580  Biso   1.000  H
  H64      1.0000 0.30439  0.43392  0.74461  Biso   1.000  H
  H65      1.0000 0.23364  0.73023  0.97803  Biso   1.000  H
  H66      1.0000 0.98785  0.69076  0.77030  Biso   1.000  H
  H67      1.0000 0.72485  0.01721  0.75661  Biso   1.000  H
  H68      1.0000 0.80120  0.22021  0.46930  Biso   1.000  H
  H69      1.0000 0.03770  0.19739  0.74034  Biso   1.000  H
  H70      1.0000 0.23120  0.94707  0.74189  Biso   1.000  H
  H71      1.0000 0.28761  0.23180  0.03269  Biso   1.000  H
  H72      1.0000 0.53419  0.24300  0.71162  Biso   1.000  H
  H73      1.0000 0.72370  0.53241  0.74662  Biso   1.000  H
  H74      1.0000 0.74776  0.69054  0.53748  Biso   1.000  H
  H75      1.0000 0.53595  0.71189  0.70364  Biso   1.000  H
  H76      1.0000 0.22183  0.48394  0.76632  Biso   1.000  H
  H77      1.0000 0.30738  0.76226  0.98067  Biso   1.000  H
  H78      1.0000 0.04060  0.71709  0.79678  Biso   1.000  H
  H79      1.0000 0.75931  0.02645  0.78024  Biso   1.000  H
  H80      1.0000 0.77870  0.19319  0.52250  Biso   1.000  H
  H81      1.0000 0.03842  0.27027  0.76582  Biso   1.000  H
  H82      1.0000 0.31487  0.95383  0.76956  Biso   1.000  H
  H83      1.0000 0.21622  0.25130  0.96282  Biso   1.000  H
  H84      1.0000 0.47249  0.22099  0.79224  Biso   1.000  H
  H85      1.0000 0.24901  0.44928  0.21151  Biso   1.000  H
  H86      1.0000 0.22496  0.22030  0.47898  Biso   1.000  H
  H87      1.0000 0.49941  0.25599  0.29728  Biso   1.000  H
  H88      1.0000 0.80026  0.47956  0.23402  Biso   1.000  H
  H89      1.0000 0.70555  0.21246  0.03682  Biso   1.000  H
  H90      1.0000 0.96828  0.24341  0.21404  Biso   1.000  H
  H91      1.0000 0.22364  0.95727  0.25727  Biso   1.000  H
  H92      1.0000 0.29846  0.72129  0.46339  Biso   1.000  H
  H93      1.0000 0.98401  0.69315  0.24685  Biso   1.000  H
  H94      1.0000 0.71146  0.95956  0.22621  Biso   1.000  H
  H95      1.0000 0.79431  0.72607  0.02566  Biso   1.000  H
  H96      1.0000 0.50898  0.70580  0.25803  Biso   1.000  H
  H97      1.0000 0.88014  0.97786  0.90197  Biso   1.000  H
  H98      1.0000 0.92376  0.85073  0.98786  Biso   1.000  H
  H99      1.0000 0.01501  0.89596  0.86588  Biso   1.000  H
  H100     1.0000 0.38032  0.97950  0.59111  Biso   1.000  H
  H101     1.0000 0.41633  0.85060  0.48991  Biso   1.000  H
  H102     1.0000 0.52791  0.88289  0.62530  Biso   1.000  H
  H103     1.0000 0.64518  0.48077  0.91455  Biso   1.000  H
  H104     1.0000 0.59650  0.34894  0.00102  Biso   1.000  H
  H105     1.0000 0.50574  0.39058  0.86672  Biso   1.000  H
  H106     1.0000 0.14627  0.49179  0.59540  Biso   1.000  H
  H107     1.0000 0.10618  0.34623  0.50353  Biso   1.000  H
  H108     1.0000 0.01178  0.38598  0.63644  Biso   1.000  H
  H109     1.0000 0.13936  0.98840  0.09275  Biso   1.000  H
  H110     1.0000 0.09847  0.12421  0.97598  Biso   1.000  H
  H111     1.0000 0.01199  0.07514  0.13628  Biso   1.000  H
  H112     1.0000 0.63847  0.98372  0.40377  Biso   1.000  H
  H113     1.0000 0.60549  0.11580  0.50097  Biso   1.000  H
  H114     1.0000 0.50601  0.08106  0.36886  Biso   1.000  H
  H115     1.0000 0.37594  0.47916  0.08895  Biso   1.000  H
  H116     1.0000 0.42164  0.62174  0.98470  Biso   1.000  H
  H117     1.0000 0.50986  0.58325  0.12505  Biso   1.000  H
  H118     1.0000 0.87685  0.48792  0.40918  Biso   1.000  H
  H119     1.0000 0.92381  0.61488  0.50448  Biso   1.000  H
  H120     1.0000 0.01692  0.57438  0.37139  Biso   1.000  H
  H121     1.0000 0.10586  0.97894  0.86470  Biso   1.000  H
  H122     1.0000 0.87427  0.06556  0.00710  Biso   1.000  H
  H123     1.0000 0.01143  0.85293  0.09936  Biso   1.000  H
  H124     1.0000 0.60863  0.99451  0.63164  Biso   1.000  H
  H125     1.0000 0.38252  0.07306  0.50889  Biso   1.000  H
  H126     1.0000 0.50962  0.85189  0.40309  Biso   1.000  H
  H127     1.0000 0.42325  0.49299  0.86488  Biso   1.000  H
  H128     1.0000 0.64543  0.57411  0.00528  Biso   1.000  H
  H129     1.0000 0.51810  0.35407  0.08988  Biso   1.000  H
  H130     1.0000 0.92165  0.49051  0.63181  Biso   1.000  H
  H131     1.0000 0.14695  0.57166  0.51055  Biso   1.000  H
  H132     1.0000 0.00225  0.34623  0.41525  Biso   1.000  H
  H133     1.0000 0.91395  0.98662  0.12671  Biso   1.000  H
  H134     1.0000 0.14743  0.89976  0.99697  Biso   1.000  H
  H135     1.0000 0.01316  0.11451  0.90858  Biso   1.000  H
  H136     1.0000 0.41732  0.99575  0.36978  Biso   1.000  H
  H137     1.0000 0.64661  0.88737  0.49062  Biso   1.000  H
  H138     1.0000 0.50365  0.11496  0.59075  Biso   1.000  H
  H139     1.0000 0.59679  0.48665  0.13406  Biso   1.000  H
  H140     1.0000 0.37074  0.40153  0.00652  Biso   1.000  H
  H141     1.0000 0.51791  0.61518  0.90258  Biso   1.000  H
  H142     1.0000 0.10108  0.48899  0.36848  Biso   1.000  H
  H143     1.0000 0.88041  0.39031  0.50448  Biso   1.000  H
  H144     1.0000 0.01819  0.61375  0.59673  Biso   1.000  H
  H145     1.0000 0.60270  0.48904  0.87149  Biso   1.000  H
  H146     1.0000 0.88336  0.57229  0.50573  Biso   1.000  H
  H147     1.0000 0.52421  0.84337  0.58721  Biso   1.000  H
  H148     1.0000 0.10575  0.48643  0.63643  Biso   1.000  H
  H149     1.0000 0.37902  0.58122  0.99064  Biso   1.000  H
  H150     1.0000 0.02218  0.85299  0.90907  Biso   1.000  H
  H151     1.0000 0.92273  0.98543  0.86742  Biso   1.000  H
  H152     1.0000 0.64556  0.07113  0.49385  Biso   1.000  H
  H153     1.0000 0.01861  0.34691  0.59495  Biso   1.000  H
  H154     1.0000 0.42376  0.97219  0.63128  Biso   1.000  H
  H155     1.0000 0.14156  0.07988  0.98889  Biso   1.000  H
  H156     1.0000 0.49145  0.34980  0.90852  Biso   1.000  H
  H157     1.0000 0.41468  0.48216  0.12925  Biso   1.000  H
  H158     1.0000 0.14432  0.39061  0.50503  Biso   1.000  H
  H159     1.0000 0.50750  0.12034  0.40780  Biso   1.000  H
  H160     1.0000 0.91169  0.49154  0.37348  Biso   1.000  H
  H161     1.0000 0.64206  0.38748  0.00193  Biso   1.000  H
  H162     1.0000 0.01477  0.11816  0.09593  Biso   1.000  H
  H163     1.0000 0.09448  0.99208  0.13780  Biso   1.000  H
  H164     1.0000 0.37402  0.89399  0.49432  Biso   1.000  H
  H165     1.0000 0.02121  0.61710  0.41246  Biso   1.000  H
  H166     1.0000 0.59953  0.99145  0.36412  Biso   1.000  H
  H167     1.0000 0.88167  0.88776  0.98139  Biso   1.000  H
  H168     1.0000 0.51069  0.62465  0.08306  Biso   1.000  H
  H169     1.0000 0.01931  0.07514  0.87123  Biso   1.000  H
  H170     1.0000 0.87668  0.97307  0.08363  Biso   1.000  H
  H171     1.0000 0.10333  0.85862  0.00110  Biso   1.000  H
  H172     1.0000 0.51565  0.07058  0.63360  Biso   1.000  H
  H173     1.0000 0.37039  0.98794  0.41096  Biso   1.000  H
  H174     1.0000 0.60508  0.84678  0.48973  Biso   1.000  H
  H175     1.0000 0.51314  0.57003  0.86179  Biso   1.000  H
  H176     1.0000 0.64233  0.47593  0.09476  Biso   1.000  H
  H177     1.0000 0.41256  0.36135  0.00413  Biso   1.000  H
  H178     1.0000 0.01808  0.57227  0.63414  Biso   1.000  H
  H179     1.0000 0.14125  0.48473  0.40851  Biso   1.000  H
  H180     1.0000 0.92260  0.34734  0.50997  Biso   1.000  H
  H181     1.0000 0.00269  0.88920  0.13873  Biso   1.000  H
  H182     1.0000 0.14472  0.98174  0.90744  Biso   1.000  H
  H183     1.0000 0.91128  0.11101  0.01113  Biso   1.000  H
  H184     1.0000 0.51217  0.89015  0.36667  Biso   1.000  H
  H185     1.0000 0.64690  0.99758  0.58424  Biso   1.000  H
  H186     1.0000 0.42359  0.11387  0.50328  Biso   1.000  H
  H187     1.0000 0.51953  0.39988  0.13324  Biso   1.000  H
  H188     1.0000 0.37804  0.49722  0.90979  Biso   1.000  H
  H189     1.0000 0.60409  0.61677  0.00314  Biso   1.000  H
  H190     1.0000 0.00574  0.38718  0.37356  Biso   1.000  H
  H191     1.0000 0.88213  0.48087  0.59267  Biso   1.000  H
  H192     1.0000 0.10790  0.61333  0.52387  Biso   1.000  H
  H193     1.0000 0.27783  0.84271  0.48758  Biso   1.000  H
  H194     1.0000 0.50054  0.25297  0.86080  Biso   1.000  H
  H195     1.0000 0.86290  0.49064  0.27334  Biso   1.000  H
  H196     1.0000 0.78681  0.82962  0.97143  Biso   1.000  H
  H197     1.0000 0.00596  0.25492  0.64936  Biso   1.000  H
  H198     1.0000 0.35876  0.48728  0.22329  Biso   1.000  H
  H199     1.0000 0.24632  0.34278  0.49814  Biso   1.000  H
  H200     1.0000 0.01194  0.75531  0.86059  Biso   1.000  H
  H201     1.0000 0.64963  0.99440  0.26667  Biso   1.000  H
  H202     1.0000 0.73650  0.33253  0.00419  Biso   1.000  H
  H203     1.0000 0.50546  0.74479  0.63308  Biso   1.000  H
  H204     1.0000 0.15044  0.97844  0.23151  Biso   1.000  H
  H205     1.0000 0.74223  0.11861  0.48909  Biso   1.000  H
  H206     1.0000 0.52061  0.71952  0.13553  Biso   1.000  H
  H207     1.0000 0.15838  0.45691  0.72778  Biso   1.000  H
  H208     1.0000 0.23514  0.13364  0.98920  Biso   1.000  H
  H209     1.0000 0.01602  0.71287  0.36032  Biso   1.000  H
  H210     1.0000 0.66069  0.50136  0.77670  Biso   1.000  H
  H211     1.0000 0.78318  0.62271  0.50432  Biso   1.000  H
  H212     1.0000 0.99822  0.21198  0.14824  Biso   1.000  H
  H213     1.0000 0.37777  0.98165  0.72925  Biso   1.000  H
  H214     1.0000 0.28518  0.64184  0.00288  Biso   1.000  H
  H215     1.0000 0.52729  0.21616  0.35944  Biso   1.000  H
  H216     1.0000 0.88461  0.01128  0.76870  Biso   1.000  H
  H217     1.0000 0.23744  0.48744  0.35680  Biso   1.000  H
  H218     1.0000 0.37035  0.20989  0.50286  Biso   1.000  H
  H219     1.0000 0.51947  0.34527  0.23087  Biso   1.000  H
  H220     1.0000 0.74059  0.48014  0.14721  Biso   1.000  H
  H221     1.0000 0.85897  0.20861  0.00706  Biso   1.000  H
  H222     1.0000 0.98683  0.33886  0.27848  Biso   1.000  H
  H223     1.0000 0.27583  0.99622  0.35774  Biso   1.000  H
  H224     1.0000 0.15107  0.71237  0.52402  Biso   1.000  H
  H225     1.0000 0.00878  0.83692  0.23331  Biso   1.000  H
  H226     1.0000 0.77623  0.96677  0.13082  Biso   1.000  H
  H227     1.0000 0.65853  0.71132  0.99447  Biso   1.000  H
  H228     1.0000 0.53216  0.84646  0.26710  Biso   1.000  H
  H229     1.0000 0.78680  0.49364  0.64610  Biso   1.000  H
  H230     1.0000 0.65462  0.74897  0.50784  Biso   1.000  H
  H231     1.0000 0.49511  0.62144  0.76618  Biso   1.000  H
  H232     1.0000 0.28333  0.47815  0.85788  Biso   1.000  H
  H233     1.0000 0.16140  0.76127  0.00216  Biso   1.000  H
  H234     1.0000 0.02018  0.62446  0.73098  Biso   1.000  H
  H235     1.0000 0.74521  0.99884  0.63506  Biso   1.000  H
  H236     1.0000 0.87006  0.25399  0.51092  Biso   1.000  H
  H237     1.0000 0.01807  0.12755  0.77308  Biso   1.000  H
  H238     1.0000 0.24504  0.98093  0.86066  Biso   1.000  H
  H239     1.0000 0.35838  0.26601  0.00866  Biso   1.000  H
  H240     1.0000 0.51191  0.11662  0.73150  Biso   1.000  H
  H241     1.0000 0.74189  0.50657  0.86628  Biso   1.000  H
  H242     1.0000 0.86524  0.70927  0.52416  Biso   1.000  H
  H243     1.0000 0.52574  0.82861  0.72274  Biso   1.000  H
  H244     1.0000 0.24488  0.47685  0.64258  Biso   1.000  H
  H245     1.0000 0.37468  0.71928  0.99632  Biso   1.000  H
  H246     1.0000 0.01484  0.83519  0.77334  Biso   1.000  H
  H247     1.0000 0.78806  0.99094  0.84864  Biso   1.000  H
  H248     1.0000 0.66299  0.20953  0.50947  Biso   1.000  H
  H249     1.0000 0.00516  0.34015  0.73258  Biso   1.000  H
  H250     1.0000 0.28505  0.97848  0.64842  Biso   1.000  H
  H251     1.0000 0.14822  0.22096  0.99589  Biso   1.000  H
  H252     1.0000 0.51390  0.33743  0.76932  Biso   1.000  H
  H253     1.0000 0.27762  0.47775  0.13987  Biso   1.000  H
  H254     1.0000 0.16364  0.24989  0.50766  Biso   1.000  H
  H255     1.0000 0.50942  0.13255  0.27335  Biso   1.000  H
  H256     1.0000 0.77838  0.47726  0.36472  Biso   1.000  H
  H257     1.0000 0.64762  0.25013  0.99358  Biso   1.000  H
  H258     1.0000 0.98619  0.12470  0.23257  Biso   1.000  H
  H259     1.0000 0.23231  0.00067  0.14733  Biso   1.000  H
  H260     1.0000 0.36064  0.75497  0.49891  Biso   1.000  H
  H261     1.0000 0.01713  0.62754  0.27371  Biso   1.000  H
  H262     1.0000 0.73453  0.95945  0.35128  Biso   1.000  H
  H263     1.0000 0.87639  0.75067  0.99806  Biso   1.000  H
  H264     1.0000 0.53637  0.63417  0.21815  Biso   1.000  H
  H265     1.0000 0.00933  0.21554  0.86264  Biso   1.000  H
  H266     1.0000 0.85821  0.98980  0.22146  Biso   1.000  H
  H267     1.0000 0.24496  0.84514  0.00347  Biso   1.000  H
  H268     1.0000 0.49910  0.20828  0.65137  Biso   1.000  H
  H269     1.0000 0.36100  0.97935  0.27651  Biso   1.000  H
  H270     1.0000 0.74221  0.83912  0.50828  Biso   1.000  H
  H271     1.0000 0.51078  0.71264  0.84503  Biso   1.000  H
  H272     1.0000 0.65240  0.48627  0.22945  Biso   1.000  H
  H273     1.0000 0.27191  0.35034  0.00264  Biso   1.000  H
  H274     1.0000 0.99678  0.71125  0.65039  Biso   1.000  H
  H275     1.0000 0.15231  0.47947  0.26990  Biso   1.000  H
  H276     1.0000 0.78461  0.33578  0.49303  Biso   1.000  H
  H277     1.0000 0.02553  0.75536  0.14784  Biso   1.000  H
  H278     1.0000 0.16580  0.98713  0.77376  Biso   1.000  H
  H279     1.0000 0.77663  0.11871  0.00366  Biso   1.000  H
  H280     1.0000 0.50646  0.75592  0.34961  Biso   1.000  H
  H281     1.0000 0.66679  0.98251  0.72209  Biso   1.000  H
  H282     1.0000 0.28485  0.13028  0.51127  Biso   1.000  H
  H283     1.0000 0.50782  0.26062  0.14766  Biso   1.000  H
  H284     1.0000 0.37053  0.47717  0.77085  Biso   1.000  H
  H285     1.0000 0.74492  0.61861  0.99863  Biso   1.000  H
  H286     1.0000 0.00059  0.24960  0.35897  Biso   1.000  H
  H287     1.0000 0.87163  0.50372  0.72941  Biso   1.000  H
  H288     1.0000 0.23983  0.62885  0.49826  Biso   1.000  H
  H289     1.0000 0.09539  0.21964  0.99515  Biso   1.000  H
  H290     1.0000 0.99166  0.06756  0.22651  Biso   1.000  H
  H291     1.0000 0.23369  0.00564  0.09291  Biso   1.000  H
  H292     1.0000 0.61096  0.21084  0.51941  Biso   1.000  H
  H293     1.0000 0.50750  0.07981  0.27343  Biso   1.000  H
  H294     1.0000 0.73088  0.95427  0.40257  Biso   1.000  H
  H295     1.0000 0.42940  0.71872  0.98489  Biso   1.000  H
  H296     1.0000 0.53443  0.58135  0.21854  Biso   1.000  H
  H297     1.0000 0.27968  0.47942  0.08314  Biso   1.000  H
  H298     1.0000 0.92079  0.71112  0.52005  Biso   1.000  H
  H299     1.0000 0.00971  0.57720  0.27431  Biso   1.000  H
  H300     1.0000 0.78223  0.47655  0.41590  Biso   1.000  H
  H301     1.0000 0.92742  0.75683  0.01182  Biso   1.000  H
  H302     1.0000 0.01821  0.88747  0.77082  Biso   1.000  H
  H303     1.0000 0.78452  0.97554  0.89594  Biso   1.000  H
  H304     1.0000 0.41765  0.75575  0.49881  Biso   1.000  H
  H305     1.0000 0.53136  0.88506  0.72207  Biso   1.000  H
  H306     1.0000 0.28616  0.98608  0.59550  Biso   1.000  H
  H307     1.0000 0.59450  0.25310  0.99516  Biso   1.000  H
  H308     1.0000 0.52211  0.38723  0.77345  Biso   1.000  H
  H309     1.0000 0.73895  0.49509  0.91749  Biso   1.000  H
  H310     1.0000 0.11080  0.25090  0.50446  Biso   1.000  H
  H311     1.0000 0.00574  0.39683  0.73092  Biso   1.000  H
  H312     1.0000 0.24172  0.48954  0.58804  Biso   1.000  H
  H313     1.0000 0.24086  0.98489  0.91562  Biso   1.000  H
  H314     1.0000 0.91246  0.20569  0.00899  Biso   1.000  H
  H315     1.0000 0.99755  0.89202  0.23319  Biso   1.000  H
  H316     1.0000 0.74235  0.99806  0.57905  Biso   1.000  H
  H317     1.0000 0.42612  0.20947  0.49656  Biso   1.000  H
  H318     1.0000 0.52584  0.90180  0.27336  Biso   1.000  H
  H319     1.0000 0.28507  0.48376  0.90779  Biso   1.000  H
  H320     1.0000 0.60377  0.71000  0.00235  Biso   1.000  H
  H321     1.0000 0.51430  0.39876  0.22984  Biso   1.000  H
  H322     1.0000 0.78470  0.48733  0.59314  Biso   1.000  H
  H323     1.0000 0.09852  0.70767  0.53594  Biso   1.000  H
  H324     1.0000 0.99143  0.39206  0.27903  Biso   1.000  H
  H325     1.0000 0.78139  0.96309  0.07719  Biso   1.000  H
  H326     1.0000 0.10887  0.76209  0.00205  Biso   1.000  H
  H327     1.0000 0.02080  0.07268  0.77542  Biso   1.000  H
  H328     1.0000 0.27459  0.00099  0.41408  Biso   1.000  H
  H329     1.0000 0.59992  0.75080  0.50560  Biso   1.000  H
  H330     1.0000 0.50796  0.06436  0.72775  Biso   1.000  H
  H331     1.0000 0.73969  0.47142  0.09508  Biso   1.000  H
  H332     1.0000 0.41465  0.26804  0.00661  Biso   1.000  H
  H333     1.0000 0.49126  0.56752  0.76895  Biso   1.000  H
  H334     1.0000 0.23666  0.48807  0.41132  Biso   1.000  H
  H335     1.0000 0.92390  0.25172  0.50973  Biso   1.000  H
  H336     1.0000 0.02754  0.56936  0.72865  Biso   1.000  H
  H337     1.0000 0.00479  0.20901  0.91328  Biso   1.000  H
  H338     1.0000 0.91167  0.99851  0.22017  Biso   1.000  H
  H339     1.0000 0.24619  0.89876  0.00531  Biso   1.000  H
  H340     1.0000 0.49766  0.21117  0.60023  Biso   1.000  H
  H341     1.0000 0.41381  0.97313  0.27616  Biso   1.000  H
  H342     1.0000 0.74090  0.89034  0.50384  Biso   1.000  H
  H343     1.0000 0.51490  0.71320  0.89877  Biso   1.000  H
  H344     1.0000 0.60105  0.48688  0.23162  Biso   1.000  H
  H345     1.0000 0.27539  0.40250  0.98840  Biso   1.000  H
  H346     1.0000 0.99876  0.70725  0.59672  Biso   1.000  H
  H347     1.0000 0.09858  0.48140  0.27320  Biso   1.000  H
  H348     1.0000 0.78493  0.38893  0.49395  Biso   1.000  H
  H349     1.0000 0.03219  0.76005  0.09295  Biso   1.000  H
  H350     1.0000 0.11154  0.98157  0.76681  Biso   1.000  H
  H351     1.0000 0.77993  0.06243  0.99958  Biso   1.000  H
  H352     1.0000 0.50488  0.75637  0.40421  Biso   1.000  H
  H353     1.0000 0.61023  0.97887  0.72240  Biso   1.000  H
  H354     1.0000 0.28654  0.07483  0.52042  Biso   1.000  H
  H355     1.0000 0.50160  0.26331  0.09022  Biso   1.000  H
  H356     1.0000 0.42331  0.47611  0.77104  Biso   1.000  H
  H357     1.0000 0.74386  0.57059  0.00019  Biso   1.000  H
  H358     1.0000 0.00397  0.25040  0.41330  Biso   1.000  H
  H359     1.0000 0.92615  0.50262  0.72592  Biso   1.000  H
  H360     1.0000 0.23970  0.57507  0.49871  Biso   1.000  H
  H361     1.0000 0.02536  0.71466  0.41247  Biso   1.000  H
  H362     1.0000 0.42679  0.97336  0.72933  Biso   1.000  H
  H363     1.0000 0.73891  0.38143  0.00865  Biso   1.000  H
  H364     1.0000 0.52292  0.71902  0.08204  Biso   1.000  H
  H365     1.0000 0.93829  0.00920  0.77837  Biso   1.000  H
  H366     1.0000 0.23963  0.39554  0.49382  Biso   1.000  H
  H367     1.0000 0.51814  0.21537  0.41539  Biso   1.000  H
  H368     1.0000 0.10386  0.45984  0.72828  Biso   1.000  H
  H369     1.0000 0.78496  0.88264  0.97116  Biso   1.000  H
  H370     1.0000 0.00301  0.21196  0.09458  Biso   1.000  H
  H371     1.0000 0.60370  0.49685  0.77617  Biso   1.000  H
  H372     1.0000 0.27857  0.89492  0.48889  Biso   1.000  H
  H373     1.0000 0.01577  0.25220  0.59300  Biso   1.000  H
  H374     1.0000 0.59465  0.00039  0.27185  Biso   1.000  H
  H375     1.0000 0.28407  0.58503  0.00231  Biso   1.000  H
  H376     1.0000 0.49427  0.25384  0.91215  Biso   1.000  H
  H377     1.0000 0.09567  0.98251  0.23247  Biso   1.000  H
  H378     1.0000 0.78443  0.56894  0.51073  Biso   1.000  H
  H379     1.0000 0.50080  0.75030  0.58284  Biso   1.000  H
  H380     1.0000 0.91645  0.49561  0.27464  Biso   1.000  H
  H381     1.0000 0.23630  0.07871  0.99331  Biso   1.000  H
  H382     1.0000 0.01786  0.75878  0.91683  Biso   1.000  H
  H383     1.0000 0.41291  0.48578  0.22391  Biso   1.000  H
  H384     1.0000 0.73857  0.06515  0.49052  Biso   1.000  H
  H385     1.0000 0.23670  0.45774  0.32249  Biso   1.000  H
  H386     1.0000 0.29405  0.15565  0.47848  Biso   1.000  H
  H387     1.0000 0.47736  0.31479  0.22823  Biso   1.000  H
  H388     1.0000 0.68528  0.52558  0.21969  Biso   1.000  H
  H389     1.0000 0.83000  0.19814  0.03649  Biso   1.000  H
  H390     1.0000 0.96174  0.25031  0.33443  Biso   1.000  H
  H391     1.0000 0.27818  0.96919  0.32855  Biso   1.000  H
  H392     1.0000 0.17494  0.71255  0.48784  Biso   1.000  H
  H393     1.0000 0.98630  0.75416  0.17954  Biso   1.000  H
  H394     1.0000 0.79160  0.94167  0.17318  Biso   1.000  H
  H395     1.0000 0.74368  0.65184  0.02312  Biso   1.000  H
  H396     1.0000 0.54957  0.75759  0.32519  Biso   1.000  H
  H397     1.0000 0.79295  0.53158  0.67788  Biso   1.000  H
  H398     1.0000 0.73080  0.80739  0.54219  Biso   1.000  H
  H399     1.0000 0.53145  0.65142  0.76687  Biso   1.000  H
  H400     1.0000 0.29140  0.51485  0.81878  Biso   1.000  H
  H401     1.0000 0.23773  0.82156  0.03629  Biso   1.000  H
  H402     1.0000 0.03776  0.70689  0.67493  Biso   1.000  H
  H403     1.0000 0.74962  0.97454  0.66419  Biso   1.000  H
  H404     1.0000 0.78316  0.30625  0.53410  Biso   1.000  H
  H405     1.0000 0.97905  0.20761  0.82918  Biso   1.000  H
  H406     1.0000 0.24574  0.00881  0.82905  Biso   1.000  H
  H407     1.0000 0.28215  0.31896  0.96942  Biso   1.000  H
  H408     1.0000 0.48254  0.14883  0.73033  Biso   1.000  H
  H409     1.0000 0.28528  0.44780  0.17481  Biso   1.000  H
  H410     1.0000 0.18988  0.25622  0.48019  Biso   1.000  H
  H411     1.0000 0.49351  0.21819  0.33176  Biso   1.000  H
  H412     1.0000 0.83319  0.46213  0.26806  Biso   1.000  H
  H413     1.0000 0.67326  0.25442  0.03402  Biso   1.000  H
  H414     1.0000 0.96492  0.20675  0.17867  Biso   1.000  H
  H415     1.0000 0.18709  0.95332  0.22198  Biso   1.000  H
  H416     1.0000 0.33461  0.75672  0.46360  Biso   1.000  H
  H417     1.0000 0.98680  0.65699  0.27786  Biso   1.000  H
  H418     1.0000 0.67810  0.95491  0.26282  Biso   1.000  H
  H419     1.0000 0.83286  0.76646  0.02590  Biso   1.000  H
  H420     1.0000 0.49676  0.66773  0.21686  Biso   1.000  H
  H421     1.0000 0.69184  0.53794  0.78715  Biso   1.000  H
  H422     1.0000 0.78525  0.65051  0.53709  Biso   1.000  H
  H423     1.0000 0.54051  0.74822  0.66606  Biso   1.000  H
  H424     1.0000 0.18760  0.48979  0.73245  Biso   1.000  H
  H425     1.0000 0.33892  0.72332  0.96685  Biso   1.000  H
  H426     1.0000 0.04901  0.75448  0.82802  Biso   1.000  H
  H427     1.0000 0.79827  0.02762  0.81891  Biso   1.000  H
  H428     1.0000 0.74437  0.15239  0.52038  Biso   1.000  H
  H429     1.0000 0.04123  0.30687  0.73013  Biso   1.000  H
  H430     1.0000 0.34625  0.95392  0.73153  Biso   1.000  H
  H431     1.0000 0.17871  0.21656  0.96356  Biso   1.000  H
  H432     1.0000 0.47416  0.25919  0.82736  Biso   1.000  H
  H433     1.0000 0.29314  0.00635  0.67728  Biso   1.000  H
  H434     1.0000 0.73550  0.29884  0.97683  Biso   1.000  H
  H435     1.0000 0.05103  0.70883  0.32846  Biso   1.000  H
  H436     1.0000 0.85222  0.97220  0.76020  Biso   1.000  H
  H437     1.0000 0.24869  0.31263  0.53135  Biso   1.000  H
  H438     1.0000 0.55518  0.71591  0.16198  Biso   1.000  H
  H439     1.0000 0.24320  0.44208  0.66895  Biso   1.000  H
  H440     1.0000 0.80109  0.79492  0.94235  Biso   1.000  H
  H441     1.0000 0.53758  0.16067  0.27092  Biso   1.000  H
  H442     1.0000 0.73831  0.47230  0.83151  Biso   1.000  H
  H443     1.0000 0.27487  0.81063  0.51755  Biso   1.000  H
  H444     1.0000 0.02848  0.15493  0.23027  Biso   1.000  H
  H445     1.0000 0.73733  0.99586  0.32683  Biso   1.000  H
  H446     1.0000 0.29767  0.66639  0.03456  Biso   1.000  H
  H447     1.0000 0.97528  0.26084  0.67910  Biso   1.000  H
  H448     1.0000 0.21870  0.03330  0.18221  Biso   1.000  H
  H449     1.0000 0.84325  0.71030  0.48902  Biso   1.000  H
  H450     1.0000 0.54129  0.30362  0.77867  Biso   1.000  H
  H451     1.0000 0.77704  0.51009  0.33371  Biso   1.000  H
  H452     1.0000 0.23136  0.16081  0.01571  Biso   1.000  H
  H453     1.0000 0.48704  0.80707  0.72087  Biso   1.000  H
  H454     1.0000 0.33058  0.51922  0.21694  Biso   1.000  H
  H455     1.0000 0.68531  0.20606  0.46975  Biso   1.000  H
  H456     1.0000 0.98166  0.80530  0.77852  Biso   1.000  H
  H457     1.0000 0.68930  0.74874  0.47783  Biso   1.000  H
  H458     1.0000 0.47628  0.70288  0.81913  Biso   1.000  H
  H459     1.0000 0.83606  0.46325  0.72819  Biso   1.000  H
  H460     1.0000 0.19112  0.76472  0.97409  Biso   1.000  H
  H461     1.0000 0.98471  0.65339  0.73309  Biso   1.000  H
  H462     1.0000 0.33861  0.43782  0.78343  Biso   1.000  H
  H463     1.0000 0.84245  0.25464  0.47207  Biso   1.000  H
  H464     1.0000 0.04148  0.16282  0.77570  Biso   1.000  H
  H465     1.0000 0.68995  0.02080  0.72328  Biso   1.000  H
  H466     1.0000 0.32461  0.27285  0.03647  Biso   1.000  H
  H467     1.0000 0.53836  0.20183  0.67776  Biso   1.000  H
  H468     1.0000 0.19248  0.94971  0.77966  Biso   1.000  H
  H469     1.0000 0.34263  0.21048  0.53901  Biso   1.000  H
  H470     1.0000 0.54721  0.26787  0.17531  Biso   1.000  H
  H471     1.0000 0.17758  0.51419  0.27539  Biso   1.000  H
  H472     1.0000 0.77545  0.14781  0.97682  Biso   1.000  H
  H473     1.0000 0.01425  0.30776  0.27695  Biso   1.000  H
  H474     1.0000 0.72688  0.45102  0.18114  Biso   1.000  H
  H475     1.0000 0.24358  0.65855  0.52530  Biso   1.000  H
  H476     1.0000 0.04534  0.80976  0.22978  Biso   1.000  H
  H477     1.0000 0.33737  0.01755  0.27898  Biso   1.000  H
  H478     1.0000 0.68722  0.70300  0.96794  Biso   1.000  H
  H479     1.0000 0.50796  0.81608  0.26595  Biso   1.000  H
  H480     1.0000 0.82160  0.02376  0.21178  Biso   1.000  H
  N1       1.0000 0.69289  0.15551  0.49391  Biso   1.000  N
  N2       1.0000 0.52244  0.66672  0.16780  Biso   1.000  N
  N3       1.0000 0.19006  0.47020  0.67555  Biso   1.000  N
  N4       1.0000 0.18242  0.16694  0.99048  Biso   1.000  N
  N5       1.0000 0.01978  0.65989  0.32769  Biso   1.000  N
  N6       1.0000 0.68941  0.50369  0.83164  Biso   1.000  N
  N7       1.0000 0.83601  0.65748  0.51113  Biso   1.000  N
  N8       1.0000 0.99992  0.15840  0.18091  Biso   1.000  N
  N9       1.0000 0.34047  0.97557  0.67962  Biso   1.000  N
  N10      1.0000 0.34060  0.67102  0.99529  Biso   1.000  N
  N11      1.0000 0.51490  0.16429  0.32539  Biso   1.000  N
  N12      1.0000 0.84511  0.99649  0.81609  Biso   1.000  N
  N13      1.0000 0.32864  0.80857  0.49382  Biso   1.000  N
  N14      1.0000 0.50769  0.30505  0.82610  Biso   1.000  N
  N15      1.0000 0.83086  0.48554  0.32757  Biso   1.000  N
  N16      1.0000 0.84133  0.80061  0.98434  Biso   1.000  N
  N17      1.0000 0.00944  0.30666  0.68005  Biso   1.000  N
  N18      1.0000 0.32952  0.48502  0.17092  Biso   1.000  N
  N19      1.0000 0.19387  0.30768  0.50581  Biso   1.000  N
  N20      1.0000 0.01742  0.80592  0.82726  Biso   1.000  N
  N21      1.0000 0.68214  0.97581  0.31793  Biso   1.000  N
  N22      1.0000 0.68153  0.30216  0.00036  Biso   1.000  N
  N23      1.0000 0.51871  0.79946  0.66973  Biso   1.000  N
  N24      1.0000 0.18056  0.98986  0.17847  Biso   1.000  N
  N25      1.0000 0.83711  0.49384  0.67791  Biso   1.000  N
  N26      1.0000 0.68834  0.80320  0.50353  Biso   1.000  N
  N27      1.0000 0.50560  0.65480  0.81767  Biso   1.000  N
  N28      1.0000 0.33786  0.48008  0.82491  Biso   1.000  N
  N29      1.0000 0.19046  0.81561  0.00167  Biso   1.000  N
  N30      1.0000 0.00905  0.65695  0.68042  Biso   1.000  N
  N31      1.0000 0.69622  0.99387  0.66919  Biso   1.000  N
  N32      1.0000 0.83846  0.30443  0.50469  Biso   1.000  N
  N33      1.0000 0.01144  0.16089  0.82651  Biso   1.000  N
  N34      1.0000 0.19300  0.98411  0.82679  Biso   1.000  N
  N35      1.0000 0.32611  0.31667  0.00470  Biso   1.000  N
  N36      1.0000 0.50952  0.15252  0.67964  Biso   1.000  N
  N37      1.0000 0.18495  0.48622  0.32427  Biso   1.000  N
  N38      1.0000 0.33969  0.15870  0.50955  Biso   1.000  N
  N39      1.0000 0.51446  0.31373  0.17656  Biso   1.000  N
  N40      1.0000 0.68452  0.48448  0.17872  Biso   1.000  N
  N41      1.0000 0.82711  0.15145  0.00502  Biso   1.000  N
  N42      1.0000 0.99205  0.30437  0.33109  Biso   1.000  N
  N43      1.0000 0.32922  0.99114  0.32678  Biso   1.000  N
  N44      1.0000 0.18660  0.66071  0.51105  Biso   1.000  N
  N45      1.0000 0.01196  0.80746  0.18119  Biso   1.000  N
  N46      1.0000 0.82906  0.98083  0.16672  Biso   1.000  N
  N47      1.0000 0.69131  0.65574  0.00046  Biso   1.000  N
  N48      1.0000 0.52351  0.80844  0.31894  Biso   1.000  N
  O1       1.0000 0.35518  0.53598  0.00114  Biso   1.000  O
  O2       1.0000 0.01590  0.32415  0.54529  Biso   1.000  O
  O3       1.0000 0.55033  0.99042  0.34192  Biso   1.000  O
  O4       1.0000 0.85645  0.52284  0.50055  Biso   1.000  O
  O5       1.0000 0.50173  0.32855  0.95910  Biso   1.000  O
  O6       1.0000 0.04877  0.97925  0.15910  Biso   1.000  O
  O7       1.0000 0.16372  0.03257  0.00271  Biso   1.000  O
  O8       1.0000 0.51161  0.82179  0.53590  Biso   1.000  O
  O9       1.0000 0.96629  0.48784  0.35005  Biso   1.000  O
  O10      1.0000 0.66357  0.02035  0.49310  Biso   1.000  O
  O11      1.0000 0.01873  0.83402  0.96172  Biso   1.000  O
  O12      1.0000 0.46449  0.48863  0.15542  Biso   1.000  O
  O13      1.0000 0.66433  0.43503  0.00533  Biso   1.000  O
  O14      1.0000 0.01789  0.64155  0.46307  Biso   1.000  O
  O15      1.0000 0.47728  0.96841  0.65532  Biso   1.000  O
  O16      1.0000 0.16855  0.44236  0.50056  Biso   1.000  O
  O17      1.0000 0.51207  0.64531  0.03536  Biso   1.000  O
  O18      1.0000 0.97963  0.99255  0.84721  Biso   1.000  O
  O19      1.0000 0.85262  0.93550  0.98231  Biso   1.000  O
  O20      1.0000 0.52183  0.14333  0.46129  Biso   1.000  O
  O21      1.0000 0.05486  0.48076  0.65865  Biso   1.000  O
  O22      1.0000 0.35210  0.94402  0.49342  Biso   1.000  O
  O23      1.0000 0.01617  0.14168  0.04493  Biso   1.000  O
  O24      1.0000 0.55581  0.48342  0.84546  Biso   1.000  O
  O25      1.0000 0.96474  0.98012  0.15452  Biso   1.000  O
  O26      1.0000 0.16930  0.94693  0.00477  Biso   1.000  O
  O27      1.0000 0.00034  0.13698  0.96072  Biso   1.000  O
  O28      1.0000 0.46607  0.98069  0.34507  Biso   1.000  O
  O29      1.0000 0.66584  0.93603  0.49356  Biso   1.000  O
  O30      1.0000 0.51405  0.13894  0.54472  Biso   1.000  O
  O31      1.0000 0.54822  0.48745  0.15891  Biso   1.000  O
  O32      1.0000 0.35026  0.45068  0.99171  Biso   1.000  O
  O33      1.0000 0.51455  0.63955  0.95057  Biso   1.000  O
  O34      1.0000 0.04975  0.47808  0.34769  Biso   1.000  O
  O35      1.0000 0.85691  0.44053  0.50671  Biso   1.000  O
  O36      1.0000 0.00715  0.63930  0.54416  Biso   1.000  O
  O37      1.0000 0.06147  0.97808  0.84166  Biso   1.000  O
  O38      1.0000 0.85523  0.01788  0.99619  Biso   1.000  O
  O39      1.0000 0.01292  0.82949  0.04655  Biso   1.000  O
  O40      1.0000 0.56144  0.97812  0.65203  Biso   1.000  O
  O41      1.0000 0.35391  0.02462  0.50218  Biso   1.000  O
  O42      1.0000 0.51105  0.83192  0.45154  Biso   1.000  O
  O43      1.0000 0.47440  0.47949  0.84349  Biso   1.000  O
  O44      1.0000 0.66712  0.51841  0.00685  Biso   1.000  O
  O45      1.0000 0.50757  0.33187  0.04496  Biso   1.000  O
  O46      1.0000 0.97264  0.48893  0.65657  Biso   1.000  O
  O47      1.0000 0.16780  0.52448  0.50049  Biso   1.000  O
  O48      1.0000 0.01522  0.32349  0.46226  Biso   1.000  O
  O49      1.0000 0.00368  0.94092  0.16157  Biso   1.000  O
  O50      1.0000 0.16659  0.98747  0.96044  Biso   1.000  O
  O51      1.0000 0.96446  0.13340  0.01315  Biso   1.000  O
  O52      1.0000 0.51573  0.94452  0.34712  Biso   1.000  O
  O53      1.0000 0.66846  0.97983  0.53695  Biso   1.000  O
  O54      1.0000 0.47391  0.13973  0.49830  Biso   1.000  O
  O55      1.0000 0.50874  0.44909  0.15840  Biso   1.000  O
  O56      1.0000 0.35391  0.49948  0.95742  Biso   1.000  O
  O57      1.0000 0.55574  0.63879  0.99805  Biso   1.000  O
  O58      1.0000 0.00102  0.44145  0.35106  Biso   1.000  O
  O59      1.0000 0.85895  0.48059  0.54654  Biso   1.000  O
  O60      1.0000 0.05292  0.63741  0.50955  Biso   1.000  O
  O61      1.0000 0.02611  0.02634  0.84525  Biso   1.000  O
  O62      1.0000 0.85348  0.96954  0.03239  Biso   1.000  O
  O63      1.0000 0.05493  0.83293  0.01144  Biso   1.000  O
  O64      1.0000 0.51640  0.01775  0.65161  Biso   1.000  O
  O65      1.0000 0.35291  0.98681  0.45772  Biso   1.000  O
  O66      1.0000 0.55381  0.82489  0.49127  Biso   1.000  O
  O67      1.0000 0.51404  0.52248  0.84248  Biso   1.000  O
  O68      1.0000 0.66762  0.47376  0.04813  Biso   1.000  O
  O69      1.0000 0.46093  0.33752  0.00327  Biso   1.000  O
  O70      1.0000 0.01762  0.52515  0.65335  Biso   1.000  O
  O71      1.0000 0.16278  0.48089  0.45849  Biso   1.000  O
  O72      1.0000 0.97284  0.32435  0.50561  Biso   1.000  O
  O73      1.0000 0.00757  0.44194  0.66002  Biso   1.000  O
  O74      1.0000 0.66009  0.97981  0.45024  Biso   1.000  O
  O75      1.0000 0.47237  0.64352  0.98936  Biso   1.000  O
  O76      1.0000 0.51910  0.43840  0.84497  Biso   1.000  O
  O77      1.0000 0.15908  0.98987  0.04521  Biso   1.000  O
  O78      1.0000 0.96920  0.64085  0.49607  Biso   1.000  O
  O79      1.0000 0.52652  0.93437  0.65121  Biso   1.000  O
  O80      1.0000 0.85720  0.47988  0.46305  Biso   1.000  O
  O81      1.0000 0.04944  0.14477  0.99491  Biso   1.000  O
  O82      1.0000 0.01671  0.94086  0.84252  Biso   1.000  O
  O83      1.0000 0.35356  0.49333  0.04068  Biso   1.000  O
  O84      1.0000 0.55805  0.14268  0.50871  Biso   1.000  O
  O85      1.0000 0.00899  0.52607  0.34846  Biso   1.000  O
  O86      1.0000 0.35448  0.98004  0.54222  Biso   1.000  O
  O87      1.0000 0.54574  0.32827  0.99651  Biso   1.000  O
  O88      1.0000 0.50288  0.53273  0.15332  Biso   1.000  O
  O89      1.0000 0.85719  0.98429  0.94995  Biso   1.000  O
  O90      1.0000 0.05931  0.32292  0.49938  Biso   1.000  O
  O91      1.0000 0.50647  0.02794  0.34383  Biso   1.000  O
  O92      1.0000 0.16704  0.48375  0.54373  Biso   1.000  O
  O93      1.0000 0.97344  0.83150  0.00147  Biso   1.000  O
  O94      1.0000 0.00562  0.02380  0.15860  Biso   1.000  O
  O95      1.0000 0.66593  0.47238  0.96152  Biso   1.000  O
  O96      1.0000 0.46759  0.82756  0.49456  Biso   1.000  O
  O97      1.0000 0.47214  0.18820  0.50466  Biso   1.000  O
  O98      1.0000 0.50655  0.44902  0.20692  Biso   1.000  O
  O99      1.0000 0.21186  0.48622  0.45846  Biso   1.000  O
  O100     1.0000 0.96529  0.18323  0.00999  Biso   1.000  O
  O101     1.0000 0.00063  0.44106  0.30154  Biso   1.000  O
  O102     1.0000 0.71600  0.47957  0.04618  Biso   1.000  O
  O103     1.0000 0.05068  0.68444  0.51636  Biso   1.000  O
  O104     1.0000 0.00280  0.94037  0.20988  Biso   1.000  O
  O105     1.0000 0.30514  0.99247  0.46511  Biso   1.000  O
  O106     1.0000 0.55582  0.68784  0.99510  Biso   1.000  O
  O107     1.0000 0.51243  0.94550  0.29841  Biso   1.000  O
  O108     1.0000 0.80481  0.96758  0.03001  Biso   1.000  O
  O109     1.0000 0.55230  0.77612  0.49440  Biso   1.000  O
  O110     1.0000 0.50566  0.52152  0.79442  Biso   1.000  O
  O111     1.0000 0.80910  0.48269  0.54693  Biso   1.000  O
  O112     1.0000 0.05681  0.78478  0.00541  Biso   1.000  O
  O113     1.0000 0.01929  0.52227  0.70300  Biso   1.000  O
  O114     1.0000 0.30512  0.49732  0.95565  Biso   1.000  O
  O115     1.0000 0.97295  0.27437  0.50522  Biso   1.000  O
  O116     1.0000 0.02050  0.02645  0.79707  Biso   1.000  O
  O117     1.0000 0.71581  0.98371  0.53218  Biso   1.000  O
  O118     1.0000 0.46135  0.28807  0.00489  Biso   1.000  O
  O119     1.0000 0.51341  0.01580  0.70175  Biso   1.000  O
  O120     1.0000 0.21535  0.98466  0.96328  Biso   1.000  O
  O121     1.0000 0.05428  0.47547  0.70627  Biso   1.000  O
  O122     1.0000 0.71288  0.01886  0.49110  Biso   1.000  O
  O123     1.0000 0.51298  0.69507  0.03344  Biso   1.000  O
  O124     1.0000 0.55500  0.48813  0.79731  Biso   1.000  O
  O125     1.0000 0.21222  0.03228  0.99491  Biso   1.000  O
  O126     1.0000 0.01299  0.69062  0.46253  Biso   1.000  O
  O127     1.0000 0.47961  0.97001  0.70304  Biso   1.000  O
  O128     1.0000 0.80902  0.52198  0.50994  Biso   1.000  O
  O129     1.0000 0.00907  0.18935  0.04667  Biso   1.000  O
  O130     1.0000 0.97783  0.98833  0.79896  Biso   1.000  O
  O131     1.0000 0.30634  0.53594  0.00391  Biso   1.000  O
  O132     1.0000 0.51690  0.19176  0.46332  Biso   1.000  O
  O133     1.0000 0.96555  0.49237  0.30250  Biso   1.000  O
  O134     1.0000 0.30312  0.94384  0.49615  Biso   1.000  O
  O135     1.0000 0.49911  0.27941  0.95970  Biso   1.000  O
  O136     1.0000 0.46418  0.49529  0.20469  Biso   1.000  O
  O137     1.0000 0.80485  0.93349  0.98390  Biso   1.000  O
  O138     1.0000 0.02175  0.27632  0.54519  Biso   1.000  O
  O139     1.0000 0.54929  0.98928  0.29302  Biso   1.000  O
  O140     1.0000 0.21743  0.44219  0.49917  Biso   1.000  O
  O141     1.0000 0.01863  0.78612  0.96346  Biso   1.000  O
  O142     1.0000 0.04608  0.98120  0.20889  Biso   1.000  O
  O143     1.0000 0.71324  0.43513  0.00601  Biso   1.000  O
  O144     1.0000 0.50736  0.77321  0.53516  Biso   1.000  O
  O145     1.0000 0.54797  0.48876  0.20707  Biso   1.000  O
  O146     1.0000 0.21613  0.52404  0.50409  Biso   1.000  O
  O147     1.0000 0.51019  0.18862  0.54865  Biso   1.000  O
  O148     1.0000 0.04963  0.47852  0.29899  Biso   1.000  O
  O149     1.0000 0.71528  0.51850  0.00636  Biso   1.000  O
  O150     1.0000 0.00358  0.18477  0.96172  Biso   1.000  O
  O151     1.0000 0.96004  0.98128  0.20238  Biso   1.000  O
  O152     1.0000 0.30512  0.02590  0.50721  Biso   1.000  O
  O153     1.0000 0.00422  0.68801  0.54770  Biso   1.000  O
  O154     1.0000 0.46479  0.98342  0.29621  Biso   1.000  O
  O155     1.0000 0.80737  0.01755  0.99990  Biso   1.000  O
  O156     1.0000 0.51712  0.68747  0.95037  Biso   1.000  O
  O157     1.0000 0.47649  0.47322  0.79714  Biso   1.000  O
  O158     1.0000 0.80809  0.43905  0.50332  Biso   1.000  O
  O159     1.0000 0.50839  0.78235  0.45306  Biso   1.000  O
  O160     1.0000 0.97188  0.48882  0.70528  Biso   1.000  O
  O161     1.0000 0.30220  0.45396  0.99259  Biso   1.000  O
  O162     1.0000 0.01566  0.78041  0.04772  Biso   1.000  O
  O163     1.0000 0.05842  0.98239  0.79212  Biso   1.000  O
  O164     1.0000 0.71658  0.93709  0.49170  Biso   1.000  O
  O165     1.0000 0.01497  0.27538  0.46206  Biso   1.000  O
  O166     1.0000 0.56180  0.97857  0.70046  Biso   1.000  O
  O167     1.0000 0.21674  0.94935  0.01187  Biso   1.000  O
  O168     1.0000 0.50448  0.28309  0.04340  Biso   1.000  O
  O169     1.0000 0.00751  0.02552  0.20803  Biso   1.000  O
  O170     1.0000 0.20939  0.99875  0.04429  Biso   1.000  O
  O171     1.0000 0.04596  0.19189  0.99753  Biso   1.000  O
  O172     1.0000 0.50621  0.02776  0.29516  Biso   1.000  O
  O173     1.0000 0.70905  0.97317  0.45120  Biso   1.000  O
  O174     1.0000 0.55849  0.19077  0.50765  Biso   1.000  O
  O175     1.0000 0.51110  0.53482  0.20055  Biso   1.000  O
  O176     1.0000 0.30503  0.48985  0.03960  Biso   1.000  O
  O177     1.0000 0.47492  0.69105  0.98857  Biso   1.000  O
  O178     1.0000 0.01180  0.52431  0.29704  Biso   1.000  O
  O179     1.0000 0.80814  0.48422  0.46379  Biso   1.000  O
  O180     1.0000 0.96762  0.68863  0.50644  Biso   1.000  O
  O181     1.0000 0.01699  0.94196  0.79543  Biso   1.000  O
  O182     1.0000 0.80974  0.98061  0.94900  Biso   1.000  O
  O183     1.0000 0.97437  0.78162  0.99866  Biso   1.000  O
  O184     1.0000 0.52365  0.93267  0.69992  Biso   1.000  O
  O185     1.0000 0.30639  0.97770  0.54481  Biso   1.000  O
  O186     1.0000 0.46594  0.77907  0.49107  Biso   1.000  O
  O187     1.0000 0.52170  0.43784  0.79688  Biso   1.000  O
  O188     1.0000 0.71435  0.47782  0.96365  Biso   1.000  O
  O189     1.0000 0.54396  0.27970  0.00186  Biso   1.000  O
  O190     1.0000 0.00723  0.44091  0.70855  Biso   1.000  O
  O191     1.0000 0.21586  0.48484  0.54295  Biso   1.000  O
  O192     1.0000 0.06012  0.27377  0.49960  Biso   1.000  O
