data_image0
_cell_length_a       46.5271
_cell_length_b       46.8314
_cell_length_c       46.5923
_cell_angle_alpha    90
_cell_angle_beta     90
_cell_angle_gamma    90

_symmetry_space_group_name_H-M    "P 1"
_symmetry_int_tables_number       1

loop_
  _symmetry_equiv_pos_as_xyz
  'x, y, z'

loop_
  _atom_site_label
  _atom_site_occupancy
  _atom_site_fract_x
  _atom_site_fract_y
  _atom_site_fract_z
  _atom_site_thermal_displace_type
  _atom_site_B_iso_or_equiv
  _atom_site_type_symbol
  C1       1.0000 0.59108  0.98577  0.32455  Biso   1.000  C
  C2       1.0000 0.35014  0.54019  0.01059  Biso   1.000  C
  C3       1.0000 0.02769  0.30696  0.56193  Biso   1.000  C
  C4       1.0000 0.08891  0.96951  0.18856  Biso   1.000  C
  C5       1.0000 0.85289  0.53738  0.49063  Biso   1.000  C
  C6       1.0000 0.54242  0.29824  0.95571  Biso   1.000  C
  C7       1.0000 0.98333  0.48056  0.31606  Biso   1.000  C
  C8       1.0000 0.21145  0.04487  0.00728  Biso   1.000  C
  C9       1.0000 0.51857  0.80518  0.56228  Biso   1.000  C
  C10      1.0000 0.47434  0.47913  0.18090  Biso   1.000  C
  C11      1.0000 0.71995  0.03346  0.51049  Biso   1.000  C
  C12      1.0000 0.03382  0.80060  0.93819  Biso   1.000  C
  C13      1.0000 0.46697  0.98748  0.68651  Biso   1.000  C
  C14      1.0000 0.70653  0.41597  0.00312  Biso   1.000  C
  C15      1.0000 0.02244  0.66181  0.43666  Biso   1.000  C
  C16      1.0000 0.97576  0.99334  0.82744  Biso   1.000  C
  C17      1.0000 0.21581  0.43544  0.50994  Biso   1.000  C
  C18      1.0000 0.53968  0.66470  0.06004  Biso   1.000  C
  C19      1.0000 0.08091  0.48320  0.68566  Biso   1.000  C
  C20      1.0000 0.84955  0.91871  0.00446  Biso   1.000  C
  C21      1.0000 0.53814  0.16248  0.45255  Biso   1.000  C
  C22      1.0000 0.58168  0.48810  0.82475  Biso   1.000  C
  C23      1.0000 0.34644  0.93591  0.50026  Biso   1.000  C
  C24      1.0000 0.02252  0.16191  0.06459  Biso   1.000  C
  C25      1.0000 0.34900  0.04372  0.50764  Biso   1.000  C
  C26      1.0000 0.51374  0.29604  0.05974  Biso   1.000  C
  C27      1.0000 0.08681  0.47026  0.32318  Biso   1.000  C
  C28      1.0000 0.84385  0.02719  0.00619  Biso   1.000  C
  C29      1.0000 0.04763  0.29635  0.45664  Biso   1.000  C
  C30      1.0000 0.58242  0.48537  0.18441  Biso   1.000  C
  C31      1.0000 0.20957  0.54325  0.50406  Biso   1.000  C
  C32      1.0000 0.03609  0.80319  0.04803  Biso   1.000  C
  C33      1.0000 0.48581  0.97931  0.33206  Biso   1.000  C
  C34      1.0000 0.71079  0.52520  0.00197  Biso   1.000  C
  C35      1.0000 0.54033  0.80317  0.45651  Biso   1.000  C
  C36      1.0000 0.98079  0.98004  0.17966  Biso   1.000  C
  C37      1.0000 0.71188  0.92456  0.50060  Biso   1.000  C
  C38      1.0000 0.53352  0.66534  0.95147  Biso   1.000  C
  C39      1.0000 0.97170  0.49523  0.68262  Biso   1.000  C
  C40      1.0000 0.21538  0.93562  0.00384  Biso   1.000  C
  C41      1.0000 0.03436  0.66366  0.54518  Biso   1.000  C
  C42      1.0000 0.47374  0.47016  0.82412  Biso   1.000  C
  C43      1.0000 0.85858  0.42875  0.50589  Biso   1.000  C
  C44      1.0000 0.01745  0.16438  0.95529  Biso   1.000  C
  C45      1.0000 0.57711  0.98243  0.68942  Biso   1.000  C
  C46      1.0000 0.35064  0.43431  0.98899  Biso   1.000  C
  C47      1.0000 0.54512  0.16193  0.55947  Biso   1.000  C
  C48      1.0000 0.08566  0.98241  0.82462  Biso   1.000  C
  C49      1.0000 0.03498  0.04072  0.82801  Biso   1.000  C
  C50      1.0000 0.84383  0.97426  0.05980  Biso   1.000  C
  C51      1.0000 0.09137  0.80358  0.99556  Biso   1.000  C
  C52      1.0000 0.52943  0.03777  0.68587  Biso   1.000  C
  C53      1.0000 0.34889  0.99276  0.45127  Biso   1.000  C
  C54      1.0000 0.58444  0.80038  0.51484  Biso   1.000  C
  C55      1.0000 0.51884  0.53442  0.82531  Biso   1.000  C
  C56      1.0000 0.71136  0.47340  0.05858  Biso   1.000  C
  C57      1.0000 0.47401  0.30369  0.99594  Biso   1.000  C
  C58      1.0000 0.03328  0.54303  0.67945  Biso   1.000  C
  C59      1.0000 0.21297  0.48885  0.45198  Biso   1.000  C
  C60      1.0000 0.98600  0.30258  0.50200  Biso   1.000  C
  C61      1.0000 0.03021  0.92148  0.18181  Biso   1.000  C
  C62      1.0000 0.21388  0.98969  0.95265  Biso   1.000  C
  C63      1.0000 0.96571  0.16114  0.00932  Biso   1.000  C
  C64      1.0000 0.54428  0.93018  0.32744  Biso   1.000  C
  C65      1.0000 0.71166  0.97350  0.56154  Biso   1.000  C
  C66      1.0000 0.48657  0.16086  0.50914  Biso   1.000  C
  C67      1.0000 0.52739  0.42656  0.18277  Biso   1.000  C
  C68      1.0000 0.34797  0.49835  0.94727  Biso   1.000  C
  C69      1.0000 0.59056  0.66044  0.00018  Biso   1.000  C
  C70      1.0000 0.03147  0.41886  0.32712  Biso   1.000  C
  C71      1.0000 0.85224  0.48687  0.55305  Biso   1.000  C
  C72      1.0000 0.08133  0.66237  0.48342  Biso   1.000  C
  C73      1.0000 0.04758  0.52705  0.31885  Biso   1.000  C
  C74      1.0000 0.33999  0.98608  0.55771  Biso   1.000  C
  C75      1.0000 0.57702  0.29181  0.02291  Biso   1.000  C
  C76      1.0000 0.52801  0.53674  0.18432  Biso   1.000  C
  C77      1.0000 0.84810  0.97560  0.95284  Biso   1.000  C
  C78      1.0000 0.09256  0.30481  0.51843  Biso   1.000  C
  C79      1.0000 0.53582  0.03771  0.32830  Biso   1.000  C
  C80      1.0000 0.21285  0.49027  0.56210  Biso   1.000  C
  C81      1.0000 0.98106  0.80226  0.99457  Biso   1.000  C
  C82      1.0000 0.03643  0.03023  0.18884  Biso   1.000  C
  C83      1.0000 0.71032  0.46519  0.94872  Biso   1.000  C
  C84      1.0000 0.47402  0.80855  0.49900  Biso   1.000  C
  C85      1.0000 0.01730  0.43450  0.68831  Biso   1.000  C
  C86      1.0000 0.71721  0.98757  0.45324  Biso   1.000  C
  C87      1.0000 0.47948  0.66591  0.00698  Biso   1.000  C
  C88      1.0000 0.53616  0.42695  0.82597  Biso   1.000  C
  C89      1.0000 0.21546  0.98322  0.05976  Biso   1.000  C
  C90      1.0000 0.97288  0.66790  0.49660  Biso   1.000  C
  C91      1.0000 0.51728  0.93045  0.68710  Biso   1.000  C
  C92      1.0000 0.85665  0.47765  0.44344  Biso   1.000  C
  C93      1.0000 0.07497  0.16355  0.00824  Biso   1.000  C
  C94      1.0000 0.02676  0.93483  0.82323  Biso   1.000  C
  C95      1.0000 0.34525  0.47648  0.05260  Biso   1.000  C
  C96      1.0000 0.59628  0.15756  0.50439  Biso   1.000  C
  C97      1.0000 0.72256  0.06444  0.50920  Biso   1.000  C
  C98      1.0000 0.53997  0.66415  0.09106  Biso   1.000  C
  C99      1.0000 0.11299  0.47916  0.68634  Biso   1.000  C
  C100     1.0000 0.21152  0.07729  0.00412  Biso   1.000  C
  C101     1.0000 0.03007  0.65998  0.40495  Biso   1.000  C
  C102     1.0000 0.61440  0.48753  0.82533  Biso   1.000  C
  C103     1.0000 0.85061  0.56823  0.48354  Biso   1.000  C
  C104     1.0000 0.02608  0.15980  0.09634  Biso   1.000  C
  C105     1.0000 0.43590  0.98423  0.68608  Biso   1.000  C
  C106     1.0000 0.34977  0.57212  0.01084  Biso   1.000  C
  C107     1.0000 0.53352  0.16399  0.42050  Biso   1.000  C
  C108     1.0000 0.94323  0.99348  0.82685  Biso   1.000  C
  C109     1.0000 0.34620  0.90331  0.49929  Biso   1.000  C
  C110     1.0000 0.54075  0.29990  0.92334  Biso   1.000  C
  C111     1.0000 0.95102  0.48089  0.31519  Biso   1.000  C
  C112     1.0000 0.85130  0.88734  0.00352  Biso   1.000  C
  C113     1.0000 0.02721  0.30663  0.59298  Biso   1.000  C
  C114     1.0000 0.44115  0.47768  0.18124  Biso   1.000  C
  C115     1.0000 0.21875  0.40368  0.51539  Biso   1.000  C
  C116     1.0000 0.02777  0.80120  0.90704  Biso   1.000  C
  C117     1.0000 0.62294  0.98205  0.32306  Biso   1.000  C
  C118     1.0000 0.70653  0.38298  0.99961  Biso   1.000  C
  C119     1.0000 0.51616  0.80350  0.59426  Biso   1.000  C
  C120     1.0000 0.12238  0.96672  0.18851  Biso   1.000  C
  C121     1.0000 0.84463  0.97725  0.09103  Biso   1.000  C
  C122     1.0000 0.12355  0.80456  0.99332  Biso   1.000  C
  C123     1.0000 0.02720  0.07158  0.82885  Biso   1.000  C
  C124     1.0000 0.35166  0.99143  0.41910  Biso   1.000  C
  C125     1.0000 0.61547  0.79956  0.50870  Biso   1.000  C
  C126     1.0000 0.53617  0.06959  0.68739  Biso   1.000  C
  C127     1.0000 0.71163  0.47526  0.08984  Biso   1.000  C
  C128     1.0000 0.44176  0.30531  0.99433  Biso   1.000  C
  C129     1.0000 0.51669  0.56653  0.82539  Biso   1.000  C
  C130     1.0000 0.21242  0.48836  0.41932  Biso   1.000  C
  C131     1.0000 0.95400  0.30182  0.50216  Biso   1.000  C
  C132     1.0000 0.03787  0.57408  0.67707  Biso   1.000  C
  C133     1.0000 0.21235  0.98429  0.92124  Biso   1.000  C
  C134     1.0000 0.93358  0.15822  0.01053  Biso   1.000  C
  C135     1.0000 0.03071  0.88927  0.17930  Biso   1.000  C
  C136     1.0000 0.71029  0.97509  0.59399  Biso   1.000  C
  C137     1.0000 0.45530  0.16320  0.51432  Biso   1.000  C
  C138     1.0000 0.54684  0.89772  0.32709  Biso   1.000  C
  C139     1.0000 0.35033  0.50090  0.91578  Biso   1.000  C
  C140     1.0000 0.62224  0.65724  0.99635  Biso   1.000  C
  C141     1.0000 0.52271  0.39480  0.18260  Biso   1.000  C
  C142     1.0000 0.85104  0.48456  0.58513  Biso   1.000  C
  C143     1.0000 0.11364  0.66575  0.48326  Biso   1.000  C
  C144     1.0000 0.03183  0.38659  0.32926  Biso   1.000  C
  C145     1.0000 0.34569  0.48204  0.08602  Biso   1.000  C
  C146     1.0000 0.12425  0.30464  0.51638  Biso   1.000  C
  C147     1.0000 0.53618  0.06869  0.32776  Biso   1.000  C
  C148     1.0000 0.85514  0.47493  0.41040  Biso   1.000  C
  C149     1.0000 0.60931  0.29088  0.02269  Biso   1.000  C
  C150     1.0000 0.03405  0.06237  0.18993  Biso   1.000  C
  C151     1.0000 0.21419  0.97822  0.09168  Biso   1.000  C
  C152     1.0000 0.44244  0.80914  0.49278  Biso   1.000  C
  C153     1.0000 0.04965  0.55931  0.31656  Biso   1.000  C
  C154     1.0000 0.71755  0.98886  0.42071  Biso   1.000  C
  C155     1.0000 0.94921  0.79912  0.99743  Biso   1.000  C
  C156     1.0000 0.53166  0.56775  0.18477  Biso   1.000  C
  C157     1.0000 0.70933  0.45944  0.91594  Biso   1.000  C
  C158     1.0000 0.94157  0.66850  0.49872  Biso   1.000  C
  C159     1.0000 0.51661  0.89760  0.69002  Biso   1.000  C
  C160     1.0000 0.21338  0.48887  0.59430  Biso   1.000  C
  C161     1.0000 0.44736  0.66685  0.01332  Biso   1.000  C
  C162     1.0000 0.03342  0.90287  0.82082  Biso   1.000  C
  C163     1.0000 0.84830  0.97644  0.92092  Biso   1.000  C
  C164     1.0000 0.62801  0.15957  0.50411  Biso   1.000  C
  C165     1.0000 0.01528  0.40202  0.68967  Biso   1.000  C
  C166     1.0000 0.33913  0.98367  0.58968  Biso   1.000  C
  C167     1.0000 0.10835  0.16590  0.00840  Biso   1.000  C
  C168     1.0000 0.53638  0.39553  0.82585  Biso   1.000  C
  C169     1.0000 0.03528  0.80248  0.08096  Biso   1.000  C
  C170     1.0000 0.11779  0.98582  0.82491  Biso   1.000  C
  C171     1.0000 0.84193  0.05892  0.00351  Biso   1.000  C
  C172     1.0000 0.54536  0.80358  0.42517  Biso   1.000  C
  C173     1.0000 0.61027  0.98561  0.68569  Biso   1.000  C
  C174     1.0000 0.34934  0.07692  0.51074  Biso   1.000  C
  C175     1.0000 0.51362  0.29625  0.09215  Biso   1.000  C
  C176     1.0000 0.44232  0.47185  0.82315  Biso   1.000  C
  C177     1.0000 0.71334  0.55733  0.00573  Biso   1.000  C
  C178     1.0000 0.05138  0.29441  0.42471  Biso   1.000  C
  C179     1.0000 0.94001  0.49512  0.68098  Biso   1.000  C
  C180     1.0000 0.21119  0.57623  0.50077  Biso   1.000  C
  C181     1.0000 0.01296  0.16597  0.92349  Biso   1.000  C
  C182     1.0000 0.94832  0.98299  0.17815  Biso   1.000  C
  C183     1.0000 0.21661  0.90310  0.00388  Biso   1.000  C
  C184     1.0000 0.54680  0.16395  0.59195  Biso   1.000  C
  C185     1.0000 0.45321  0.97887  0.33036  Biso   1.000  C
  C186     1.0000 0.71186  0.89187  0.50120  Biso   1.000  C
  C187     1.0000 0.52969  0.66472  0.91995  Biso   1.000  C
  C188     1.0000 0.61423  0.48474  0.18490  Biso   1.000  C
  C189     1.0000 0.34831  0.40245  0.98827  Biso   1.000  C
  C190     1.0000 0.03961  0.66392  0.57648  Biso   1.000  C
  C191     1.0000 0.11899  0.47371  0.32425  Biso   1.000  C
  C192     1.0000 0.85912  0.39619  0.50252  Biso   1.000  C
  C193     1.0000 0.87636  0.98084  0.90537  Biso   1.000  C
  C194     1.0000 0.93256  0.82444  0.99893  Biso   1.000  C
  C195     1.0000 0.02889  0.88316  0.84571  Biso   1.000  C
  C196     1.0000 0.36708  0.98176  0.60592  Biso   1.000  C
  C197     1.0000 0.42563  0.83623  0.49452  Biso   1.000  C
  C198     1.0000 0.52054  0.88112  0.66401  Biso   1.000  C
  C199     1.0000 0.68203  0.46461  0.90161  Biso   1.000  C
  C200     1.0000 0.62558  0.31826  0.01422  Biso   1.000  C
  C201     1.0000 0.53957  0.37949  0.85292  Biso   1.000  C
  C202     1.0000 0.18539  0.48679  0.60921  Biso   1.000  C
  C203     1.0000 0.13950  0.33182  0.51923  Biso   1.000  C
  C204     1.0000 0.01487  0.38502  0.66214  Biso   1.000  C
  C205     1.0000 0.18740  0.97703  0.10793  Biso   1.000  C
  C206     1.0000 0.12600  0.14069  0.00733  Biso   1.000  C
  C207     1.0000 0.03441  0.07794  0.16372  Biso   1.000  C
  C208     1.0000 0.69171  0.98870  0.40397  Biso   1.000  C
  C209     1.0000 0.64363  0.13078  0.50376  Biso   1.000  C
  C210     1.0000 0.53698  0.08485  0.35318  Biso   1.000  C
  C211     1.0000 0.37175  0.47956  0.10322  Biso   1.000  C
  C212     1.0000 0.43092  0.63893  0.00985  Biso   1.000  C
  C213     1.0000 0.53251  0.58435  0.15746  Biso   1.000  C
  C214     1.0000 0.88280  0.47515  0.39385  Biso   1.000  C
  C215     1.0000 0.92702  0.63998  0.49660  Biso   1.000  C
  C216     1.0000 0.04458  0.57697  0.34100  Biso   1.000  C
  C217     1.0000 0.13432  0.98619  0.85246  Biso   1.000  C
  C218     1.0000 0.86877  0.07620  0.00554  Biso   1.000  C
  C219     1.0000 0.03315  0.82833  0.09880  Biso   1.000  C
  C220     1.0000 0.62552  0.98461  0.65893  Biso   1.000  C
  C221     1.0000 0.37873  0.08993  0.51438  Biso   1.000  C
  C222     1.0000 0.54552  0.83083  0.40828  Biso   1.000  C
  C223     1.0000 0.42875  0.48050  0.84975  Biso   1.000  C
  C224     1.0000 0.68675  0.57536  0.00532  Biso   1.000  C
  C225     1.0000 0.52108  0.32332  0.10699  Biso   1.000  C
  C226     1.0000 0.92343  0.49252  0.65465  Biso   1.000  C
  C227     1.0000 0.18329  0.58922  0.49521  Biso   1.000  C
  C228     1.0000 0.04759  0.32010  0.40631  Biso   1.000  C
  C229     1.0000 0.93073  0.98267  0.15212  Biso   1.000  C
  C230     1.0000 0.19022  0.88642  0.00005  Biso   1.000  C
  C231     1.0000 0.01373  0.13887  0.90777  Biso   1.000  C
  C232     1.0000 0.43607  0.98575  0.35601  Biso   1.000  C
  C233     1.0000 0.68369  0.87503  0.50146  Biso   1.000  C
  C234     1.0000 0.54466  0.13719  0.60767  Biso   1.000  C
  C235     1.0000 0.63021  0.48206  0.15878  Biso   1.000  C
  C236     1.0000 0.37423  0.38517  0.98614  Biso   1.000  C
  C237     1.0000 0.52513  0.63826  0.90453  Biso   1.000  C
  C238     1.0000 0.13545  0.47621  0.35119  Biso   1.000  C
  C239     1.0000 0.88751  0.38151  0.50337  Biso   1.000  C
  C240     1.0000 0.03893  0.63642  0.59361  Biso   1.000  C
  C241     1.0000 0.63062  0.48069  0.85178  Biso   1.000  C
  C242     1.0000 0.87913  0.58458  0.48621  Biso   1.000  C
  C243     1.0000 0.51897  0.83001  0.61098  Biso   1.000  C
  C244     1.0000 0.13030  0.48216  0.66002  Biso   1.000  C
  C245     1.0000 0.37739  0.58850  0.01229  Biso   1.000  C
  C246     1.0000 0.02459  0.82902  0.89307  Biso   1.000  C
  C247     1.0000 0.92725  0.99027  0.85290  Biso   1.000  C
  C248     1.0000 0.69648  0.08126  0.50599  Biso   1.000  C
  C249     1.0000 0.02399  0.33306  0.60841  Biso   1.000  C
  C250     1.0000 0.42037  0.98347  0.65781  Biso   1.000  C
  C251     1.0000 0.18301  0.09069  0.00369  Biso   1.000  C
  C252     1.0000 0.54224  0.32765  0.90700  Biso   1.000  C
  C253     1.0000 0.42484  0.47422  0.15430  Biso   1.000  C
  C254     1.0000 0.19254  0.38650  0.51809  Biso   1.000  C
  C255     1.0000 0.53577  0.13714  0.40506  Biso   1.000  C
  C256     1.0000 0.93495  0.47899  0.34104  Biso   1.000  C
  C257     1.0000 0.67903  0.36864  0.00380  Biso   1.000  C
  C258     1.0000 0.02343  0.13262  0.11189  Biso   1.000  C
  C259     1.0000 0.13720  0.97035  0.16138  Biso   1.000  C
  C260     1.0000 0.37369  0.88754  0.49700  Biso   1.000  C
  C261     1.0000 0.03347  0.63337  0.38966  Biso   1.000  C
  C262     1.0000 0.63967  0.98103  0.35065  Biso   1.000  C
  C263     1.0000 0.87994  0.87490  0.00076  Biso   1.000  C
  C264     1.0000 0.54087  0.63611  0.10764  Biso   1.000  C
  C265     1.0000 0.02223  0.08804  0.85627  Biso   1.000  C
  C266     1.0000 0.87482  0.97763  0.10434  Biso   1.000  C
  C267     1.0000 0.13673  0.83314  0.99633  Biso   1.000  C
  C268     1.0000 0.53870  0.08524  0.66002  Biso   1.000  C
  C269     1.0000 0.37974  0.99173  0.40520  Biso   1.000  C
  C270     1.0000 0.63362  0.82574  0.50701  Biso   1.000  C
  C271     1.0000 0.51746  0.58227  0.85219  Biso   1.000  C
  C272     1.0000 0.68408  0.47962  0.10636  Biso   1.000  C
  C273     1.0000 0.42506  0.33220  0.99284  Biso   1.000  C
  C274     1.0000 0.03605  0.58866  0.64888  Biso   1.000  C
  C275     1.0000 0.18550  0.48303  0.40404  Biso   1.000  C
  C276     1.0000 0.93948  0.32932  0.50269  Biso   1.000  C
  C277     1.0000 0.03007  0.87546  0.15117  Biso   1.000  C
  C278     1.0000 0.18413  0.98562  0.90517  Biso   1.000  C
  C279     1.0000 0.91896  0.13058  0.01004  Biso   1.000  C
  C280     1.0000 0.54675  0.88212  0.35372  Biso   1.000  C
  C281     1.0000 0.68168  0.97701  0.60747  Biso   1.000  C
  C282     1.0000 0.43669  0.13700  0.51625  Biso   1.000  C
  C283     1.0000 0.52243  0.37752  0.15604  Biso   1.000  C
  C284     1.0000 0.37743  0.49783  0.89995  Biso   1.000  C
  C285     1.0000 0.63698  0.62983  0.99715  Biso   1.000  C
  C286     1.0000 0.03496  0.37018  0.35673  Biso   1.000  C
  C287     1.0000 0.87585  0.48657  0.60236  Biso   1.000  C
  C288     1.0000 0.13115  0.63913  0.48557  Biso   1.000  C
  C289     1.0000 0.37252  0.85545  0.49725  Biso   1.000  C
  C290     1.0000 0.53834  0.32627  0.87534  Biso   1.000  C
  C291     1.0000 0.90376  0.47227  0.34002  Biso   1.000  C
  C292     1.0000 0.87918  0.84263  0.99826  Biso   1.000  C
  C293     1.0000 0.02125  0.33154  0.64068  Biso   1.000  C
  C294     1.0000 0.39260  0.47724  0.15622  Biso   1.000  C
  C295     1.0000 0.19310  0.35430  0.52154  Biso   1.000  C
  C296     1.0000 0.02342  0.82995  0.86138  Biso   1.000  C
  C297     1.0000 0.67048  0.98446  0.35053  Biso   1.000  C
  C298     1.0000 0.67776  0.33824  0.00598  Biso   1.000  C
  C299     1.0000 0.51799  0.82868  0.64386  Biso   1.000  C
  C300     1.0000 0.16890  0.97160  0.16177  Biso   1.000  C
  C301     1.0000 0.69678  0.11204  0.50688  Biso   1.000  C
  C302     1.0000 0.53918  0.63742  0.13840  Biso   1.000  C
  C303     1.0000 0.16104  0.48023  0.66021  Biso   1.000  C
  C304     1.0000 0.18051  0.12153  0.00541  Biso   1.000  C
  C305     1.0000 0.03914  0.63171  0.35931  Biso   1.000  C
  C306     1.0000 0.66126  0.47410  0.84898  Biso   1.000  C
  C307     1.0000 0.87721  0.61608  0.48541  Biso   1.000  C
  C308     1.0000 0.02745  0.13147  0.14449  Biso   1.000  C
  C309     1.0000 0.38876  0.97911  0.65859  Biso   1.000  C
  C310     1.0000 0.37653  0.62043  0.01291  Biso   1.000  C
  C311     1.0000 0.53176  0.13667  0.37338  Biso   1.000  C
  C312     1.0000 0.89574  0.98964  0.85130  Biso   1.000  C
  C313     1.0000 0.18746  0.48158  0.37237  Biso   1.000  C
  C314     1.0000 0.40466  0.14024  0.51055  Biso   1.000  C
  C315     1.0000 0.51908  0.34613  0.15851  Biso   1.000  C
  C316     1.0000 0.68432  0.47907  0.13810  Biso   1.000  C
  C317     1.0000 0.88814  0.12907  0.01357  Biso   1.000  C
  C318     1.0000 0.03836  0.33842  0.35504  Biso   1.000  C
  C319     1.0000 0.38130  0.98803  0.37341  Biso   1.000  C
  C320     1.0000 0.16188  0.64165  0.48981  Biso   1.000  C
  C321     1.0000 0.03003  0.84419  0.15303  Biso   1.000  C
  C322     1.0000 0.87624  0.98447  0.13409  Biso   1.000  C
  C323     1.0000 0.66930  0.62989  0.99540  Biso   1.000  C
  C324     1.0000 0.54445  0.85069  0.35351  Biso   1.000  C
  C325     1.0000 0.87259  0.48491  0.63421  Biso   1.000  C
  C326     1.0000 0.66385  0.82263  0.50203  Biso   1.000  C
  C327     1.0000 0.51883  0.61393  0.85232  Biso   1.000  C
  C328     1.0000 0.37652  0.49549  0.86940  Biso   1.000  C
  C329     1.0000 0.16904  0.83211  0.99753  Biso   1.000  C
  C330     1.0000 0.03613  0.61976  0.64757  Biso   1.000  C
  C331     1.0000 0.67984  0.98243  0.63914  Biso   1.000  C
  C332     1.0000 0.90776  0.32789  0.50275  Biso   1.000  C
  C333     1.0000 0.01836  0.11985  0.85597  Biso   1.000  C
  C334     1.0000 0.18531  0.98064  0.87407  Biso   1.000  C
  C335     1.0000 0.39422  0.33169  0.99255  Biso   1.000  C
  C336     1.0000 0.54084  0.11657  0.66078  Biso   1.000  C
  C337     1.0000 0.68219  0.46784  0.87108  Biso   1.000  C
  C338     1.0000 0.89667  0.63880  0.48985  Biso   1.000  C
  C339     1.0000 0.51901  0.85031  0.66544  Biso   1.000  C
  C340     1.0000 0.18368  0.48355  0.63956  Biso   1.000  C
  C341     1.0000 0.40033  0.64053  0.01081  Biso   1.000  C
  C342     1.0000 0.02606  0.85249  0.84095  Biso   1.000  C
  C343     1.0000 0.87548  0.98461  0.87334  Biso   1.000  C
  C344     1.0000 0.67490  0.13222  0.50672  Biso   1.000  C
  C345     1.0000 0.01804  0.35274  0.66276  Biso   1.000  C
  C346     1.0000 0.36620  0.97875  0.63690  Biso   1.000  C
  C347     1.0000 0.15736  0.14214  0.00636  Biso   1.000  C
  C348     1.0000 0.53788  0.34764  0.85306  Biso   1.000  C
  C349     1.0000 0.37106  0.47933  0.13454  Biso   1.000  C
  C350     1.0000 0.17145  0.33246  0.52018  Biso   1.000  C
  C351     1.0000 0.53291  0.11523  0.35192  Biso   1.000  C
  C352     1.0000 0.88299  0.47196  0.36293  Biso   1.000  C
  C353     1.0000 0.65640  0.31709  0.01159  Biso   1.000  C
  C354     1.0000 0.03125  0.10918  0.16489  Biso   1.000  C
  C355     1.0000 0.18919  0.97458  0.13875  Biso   1.000  C
  C356     1.0000 0.39409  0.83553  0.49573  Biso   1.000  C
  C357     1.0000 0.04338  0.60992  0.34005  Biso   1.000  C
  C358     1.0000 0.69171  0.98557  0.37269  Biso   1.000  C
  C359     1.0000 0.90237  0.82186  0.99852  Biso   1.000  C
  C360     1.0000 0.53640  0.61575  0.15964  Biso   1.000  C
  C361     1.0000 0.01409  0.14020  0.87671  Biso   1.000  C
  C362     1.0000 0.90011  0.98411  0.15389  Biso   1.000  C
  C363     1.0000 0.19038  0.85525  0.00012  Biso   1.000  C
  C364     1.0000 0.54268  0.13861  0.63865  Biso   1.000  C
  C365     1.0000 0.40437  0.98545  0.35358  Biso   1.000  C
  C366     1.0000 0.68667  0.84441  0.50077  Biso   1.000  C
  C367     1.0000 0.52176  0.63744  0.87333  Biso   1.000  C
  C368     1.0000 0.66177  0.48042  0.15929  Biso   1.000  C
  C369     1.0000 0.37306  0.35358  0.98973  Biso   1.000  C
  C370     1.0000 0.03779  0.63898  0.62431  Biso   1.000  C
  C371     1.0000 0.16662  0.47907  0.35043  Biso   1.000  C
  C372     1.0000 0.88642  0.35012  0.50370  Biso   1.000  C
  C373     1.0000 0.03145  0.82491  0.13045  Biso   1.000  C
  C374     1.0000 0.16395  0.98069  0.85170  Biso   1.000  C
  C375     1.0000 0.86710  0.10740  0.01127  Biso   1.000  C
  C376     1.0000 0.54540  0.82924  0.37595  Biso   1.000  C
  C377     1.0000 0.65681  0.98440  0.66011  Biso   1.000  C
  C378     1.0000 0.38081  0.12147  0.50948  Biso   1.000  C
  C379     1.0000 0.51935  0.32278  0.13880  Biso   1.000  C
  C380     1.0000 0.39744  0.48727  0.84849  Biso   1.000  C
  C381     1.0000 0.68845  0.60729  0.99943  Biso   1.000  C
  C382     1.0000 0.04462  0.31724  0.37645  Biso   1.000  C
  C383     1.0000 0.89261  0.48784  0.65613  Biso   1.000  C
  C384     1.0000 0.18285  0.62055  0.49502  Biso   1.000  C
  C385     1.0000 0.20673  0.13954  0.00656  Biso   1.000  C
  C386     1.0000 0.02864  0.15794  0.15946  Biso   1.000  C
  C387     1.0000 0.18492  0.96856  0.18822  Biso   1.000  C
  C388     1.0000 0.72411  0.12760  0.50927  Biso   1.000  C
  C389     1.0000 0.52902  0.16263  0.35744  Biso   1.000  C
  C390     1.0000 0.68674  0.98715  0.32393  Biso   1.000  C
  C391     1.0000 0.35050  0.63592  0.01441  Biso   1.000  C
  C392     1.0000 0.53611  0.66403  0.15420  Biso   1.000  C
  C393     1.0000 0.37727  0.48078  0.18276  Biso   1.000  C
  C394     1.0000 0.84860  0.62950  0.48142  Biso   1.000  C
  C395     1.0000 0.03977  0.65809  0.34247  Biso   1.000  C
  C396     1.0000 0.88876  0.46944  0.31442  Biso   1.000  C
  C397     1.0000 0.85227  0.82583  0.99943  Biso   1.000  C
  C398     1.0000 0.02604  0.80492  0.84387  Biso   1.000  C
  C399     1.0000 0.88117  0.99043  0.82480  Biso   1.000  C
  C400     1.0000 0.34619  0.83960  0.49809  Biso   1.000  C
  C401     1.0000 0.51348  0.80159  0.65833  Biso   1.000  C
  C402     1.0000 0.37325  0.97325  0.68454  Biso   1.000  C
  C403     1.0000 0.70544  0.32100  0.00624  Biso   1.000  C
  C404     1.0000 0.53687  0.29855  0.85986  Biso   1.000  C
  C405     1.0000 0.67479  0.47563  0.82290  Biso   1.000  C
  C406     1.0000 0.22003  0.33931  0.52110  Biso   1.000  C
  C407     1.0000 0.02297  0.30523  0.65645  Biso   1.000  C
  C408     1.0000 0.17562  0.47916  0.68746  Biso   1.000  C
  C409     1.0000 0.17893  0.97747  0.82490  Biso   1.000  C
  C410     1.0000 0.84018  0.12120  0.01296  Biso   1.000  C
  C411     1.0000 0.03068  0.79809  0.14272  Biso   1.000  C
  C412     1.0000 0.67279  0.98659  0.68727  Biso   1.000  C
  C413     1.0000 0.35660  0.13970  0.50658  Biso   1.000  C
  C414     1.0000 0.54475  0.80172  0.36045  Biso   1.000  C
  C415     1.0000 0.38233  0.48892  0.82225  Biso   1.000  C
  C416     1.0000 0.71692  0.62172  0.99772  Biso   1.000  C
  C417     1.0000 0.51248  0.29583  0.15472  Biso   1.000  C
  C418     1.0000 0.87594  0.48416  0.68327  Biso   1.000  C
  C419     1.0000 0.20890  0.63820  0.49881  Biso   1.000  C
  C420     1.0000 0.04575  0.28909  0.36127  Biso   1.000  C
  C421     1.0000 0.88509  0.98599  0.18178  Biso   1.000  C
  C422     1.0000 0.21770  0.83968  0.00150  Biso   1.000  C
  C423     1.0000 0.00962  0.16723  0.86178  Biso   1.000  C
  C424     1.0000 0.38962  0.98051  0.32658  Biso   1.000  C
  C425     1.0000 0.71230  0.82764  0.49799  Biso   1.000  C
  C426     1.0000 0.54379  0.16497  0.65444  Biso   1.000  C
  C427     1.0000 0.67878  0.48168  0.18658  Biso   1.000  C
  C428     1.0000 0.34576  0.33823  0.98995  Biso   1.000  C
  C429     1.0000 0.52109  0.66275  0.85862  Biso   1.000  C
  C430     1.0000 0.18214  0.48230  0.32420  Biso   1.000  C
  C431     1.0000 0.85843  0.33507  0.50395  Biso   1.000  C
  C432     1.0000 0.03816  0.66681  0.63895  Biso   1.000  C
  C433     1.0000 0.01519  0.13620  0.82876  Biso   1.000  C
  C434     1.0000 0.85040  0.98766  0.15184  Biso   1.000  C
  C435     1.0000 0.18650  0.80614  0.99738  Biso   1.000  C
  C436     1.0000 0.53926  0.13228  0.68749  Biso   1.000  C
  C437     1.0000 0.35513  0.98308  0.35757  Biso   1.000  C
  C438     1.0000 0.67725  0.79596  0.50009  Biso   1.000  C
  C439     1.0000 0.51709  0.63039  0.82555  Biso   1.000  C
  C440     1.0000 0.71222  0.47896  0.15302  Biso   1.000  C
  C441     1.0000 0.37681  0.30562  0.99438  Biso   1.000  C
  C442     1.0000 0.03732  0.63620  0.67317  Biso   1.000  C
  C443     1.0000 0.21417  0.48930  0.35689  Biso   1.000  C
  C444     1.0000 0.89019  0.30156  0.50419  Biso   1.000  C
  C445     1.0000 0.03156  0.82751  0.17862  Biso   1.000  C
  C446     1.0000 0.21178  0.97593  0.85898  Biso   1.000  C
  C447     1.0000 0.87060  0.15522  0.01581  Biso   1.000  C
  C448     1.0000 0.54406  0.83424  0.32703  Biso   1.000  C
  C449     1.0000 0.70610  0.98239  0.65678  Biso   1.000  C
  C450     1.0000 0.39204  0.16898  0.50864  Biso   1.000  C
  C451     1.0000 0.51619  0.33114  0.18602  Biso   1.000  C
  C452     1.0000 0.35007  0.49846  0.85292  Biso   1.000  C
  C453     1.0000 0.68575  0.65653  0.99424  Biso   1.000  C
  C454     1.0000 0.03589  0.32236  0.32847  Biso   1.000  C
  C455     1.0000 0.84505  0.48002  0.65050  Biso   1.000  C
  C456     1.0000 0.17657  0.66867  0.49377  Biso   1.000  C
  C457     1.0000 0.04540  0.62350  0.31249  Biso   1.000  C
  C458     1.0000 0.33966  0.97409  0.65117  Biso   1.000  C
  C459     1.0000 0.67215  0.29065  0.01897  Biso   1.000  C
  C460     1.0000 0.53513  0.63003  0.18762  Biso   1.000  C
  C461     1.0000 0.84761  0.98348  0.85686  Biso   1.000  C
  C462     1.0000 0.18825  0.30566  0.51815  Biso   1.000  C
  C463     1.0000 0.53188  0.13101  0.32466  Biso   1.000  C
  C464     1.0000 0.21034  0.48446  0.65563  Biso   1.000  C
  C465     1.0000 0.88701  0.79499  0.99893  Biso   1.000  C
  C466     1.0000 0.02950  0.12429  0.19187  Biso   1.000  C
  C467     1.0000 0.70894  0.46690  0.85400  Biso   1.000  C
  C468     1.0000 0.37793  0.80827  0.49455  Biso   1.000  C
  C469     1.0000 0.02097  0.33775  0.68963  Biso   1.000  C
  C470     1.0000 0.71872  0.98691  0.35771  Biso   1.000  C
  C471     1.0000 0.38541  0.66681  0.01395  Biso   1.000  C
  C472     1.0000 0.53447  0.33215  0.82663  Biso   1.000  C
  C473     1.0000 0.21715  0.97318  0.15392  Biso   1.000  C
  C474     1.0000 0.87953  0.66396  0.48811  Biso   1.000  C
  C475     1.0000 0.51498  0.83445  0.69285  Biso   1.000  C
  C476     1.0000 0.85542  0.46879  0.34755  Biso   1.000  C
  C477     1.0000 0.17169  0.16963  0.00582  Biso   1.000  C
  C478     1.0000 0.02992  0.83914  0.81271  Biso   1.000  C
  C479     1.0000 0.34440  0.48246  0.14966  Biso   1.000  C
  C480     1.0000 0.69103  0.15877  0.50738  Biso   1.000  C
  C481     1.0000 0.39416  0.78156  0.48811  Biso   1.000  C
  C482     1.0000 0.53014  0.34839  0.79937  Biso   1.000  C
  C483     1.0000 0.82833  0.46524  0.36482  Biso   1.000  C
  C484     1.0000 0.90448  0.76848  0.99440  Biso   1.000  C
  C485     1.0000 0.01855  0.35459  0.71678  Biso   1.000  C
  C486     1.0000 0.31602  0.48351  0.13246  Biso   1.000  C
  C487     1.0000 0.17345  0.27752  0.51546  Biso   1.000  C
  C488     1.0000 0.03492  0.85941  0.78775  Biso   1.000  C
  C489     1.0000 0.74560  0.99037  0.37440  Biso   1.000  C
  C490     1.0000 0.65555  0.26545  0.03033  Biso   1.000  C
  C491     1.0000 0.51609  0.85054  0.71942  Biso   1.000  C
  C492     1.0000 0.24516  0.97480  0.13856  Biso   1.000  C
  C493     1.0000 0.67560  0.18588  0.50592  Biso   1.000  C
  C494     1.0000 0.53620  0.61220  0.21413  Biso   1.000  C
  C495     1.0000 0.23883  0.49029  0.64197  Biso   1.000  C
  C496     1.0000 0.15394  0.19551  0.00802  Biso   1.000  C
  C497     1.0000 0.04889  0.60396  0.28813  Biso   1.000  C
  C498     1.0000 0.73693  0.46003  0.86785  Biso   1.000  C
  C499     1.0000 0.89315  0.69346  0.49236  Biso   1.000  C
  C500     1.0000 0.02983  0.10836  0.21964  Biso   1.000  C
  C501     1.0000 0.31141  0.97343  0.63563  Biso   1.000  C
  C502     1.0000 0.40022  0.69381  0.01801  Biso   1.000  C
  C503     1.0000 0.53415  0.11471  0.29805  Biso   1.000  C
  C504     1.0000 0.82123  0.97619  0.87284  Biso   1.000  C
  C505     1.0000 0.65950  0.48552  0.79652  Biso   1.000  C
  C506     1.0000 0.82160  0.61505  0.47505  Biso   1.000  C
  C507     1.0000 0.51094  0.77502  0.64026  Biso   1.000  C
  C508     1.0000 0.16034  0.47655  0.71426  Biso   1.000  C
  C509     1.0000 0.32265  0.61964  0.01403  Biso   1.000  C
  C510     1.0000 0.02296  0.77590  0.85801  Biso   1.000  C
  C511     1.0000 0.89610  0.99649  0.79785  Biso   1.000  C
  C512     1.0000 0.75077  0.11153  0.51253  Biso   1.000  C
  C513     1.0000 0.02406  0.27783  0.64063  Biso   1.000  C
  C514     1.0000 0.38832  0.97293  0.71259  Biso   1.000  C
  C515     1.0000 0.23583  0.12616  0.00429  Biso   1.000  C
  C516     1.0000 0.53645  0.27147  0.87561  Biso   1.000  C
  C517     1.0000 0.39288  0.47782  0.20867  Biso   1.000  C
  C518     1.0000 0.24656  0.35679  0.52116  Biso   1.000  C
  C519     1.0000 0.52631  0.19061  0.37242  Biso   1.000  C
  C520     1.0000 0.90479  0.47260  0.28710  Biso   1.000  C
  C521     1.0000 0.73172  0.33543  0.99657  Biso   1.000  C
  C522     1.0000 0.03003  0.18583  0.14314  Biso   1.000  C
  C523     1.0000 0.16849  0.96323  0.21501  Biso   1.000  C
  C524     1.0000 0.31780  0.85547  0.49893  Biso   1.000  C
  C525     1.0000 0.03764  0.68610  0.35636  Biso   1.000  C
  C526     1.0000 0.67168  0.98533  0.29500  Biso   1.000  C
  C527     1.0000 0.82414  0.84036  0.00463  Biso   1.000  C
  C528     1.0000 0.53480  0.69070  0.13761  Biso   1.000  C
  C529     1.0000 0.81269  0.10316  0.01123  Biso   1.000  C
  C530     1.0000 0.02940  0.77049  0.12476  Biso   1.000  C
  C531     1.0000 0.16387  0.98085  0.79712  Biso   1.000  C
  C532     1.0000 0.32761  0.12682  0.50783  Biso   1.000  C
  C533     1.0000 0.54475  0.77478  0.37878  Biso   1.000  C
  C534     1.0000 0.65692  0.99041  0.71383  Biso   1.000  C
  C535     1.0000 0.74331  0.60469  0.99955  Biso   1.000  C
  C536     1.0000 0.50649  0.26915  0.13951  Biso   1.000  C
  C537     1.0000 0.39659  0.48268  0.79417  Biso   1.000  C
  C538     1.0000 0.23793  0.62487  0.50060  Biso   1.000  C
  C539     1.0000 0.05397  0.26353  0.37894  Biso   1.000  C
  C540     1.0000 0.89255  0.48914  0.71024  Biso   1.000  C
  C541     1.0000 0.24524  0.85637  0.00666  Biso   1.000  C
  C542     1.0000 0.01032  0.19445  0.87690  Biso   1.000  C
  C543     1.0000 0.90245  0.98574  0.20874  Biso   1.000  C
  C544     1.0000 0.73886  0.84491  0.49498  Biso   1.000  C
  C545     1.0000 0.54250  0.19240  0.63774  Biso   1.000  C
  C546     1.0000 0.40584  0.97483  0.29989  Biso   1.000  C
  C547     1.0000 0.31874  0.35466  0.99000  Biso   1.000  C
  C548     1.0000 0.52465  0.69089  0.87178  Biso   1.000  C
  C549     1.0000 0.66238  0.48338  0.21431  Biso   1.000  C
  C550     1.0000 0.83075  0.34985  0.50096  Biso   1.000  C
  C551     1.0000 0.03910  0.69420  0.62146  Biso   1.000  C
  C552     1.0000 0.16587  0.47886  0.29681  Biso   1.000  C
  C553     1.0000 0.01895  0.12000  0.80117  Biso   1.000  C
  C554     1.0000 0.82253  0.99070  0.13881  Biso   1.000  C
  C555     1.0000 0.17149  0.77799  0.99315  Biso   1.000  C
  C556     1.0000 0.53955  0.11645  0.71477  Biso   1.000  C
  C557     1.0000 0.32685  0.98710  0.37141  Biso   1.000  C
  C558     1.0000 0.66030  0.77074  0.50062  Biso   1.000  C
  C559     1.0000 0.51584  0.61348  0.79805  Biso   1.000  C
  C560     1.0000 0.73958  0.47465  0.13710  Biso   1.000  C
  C561     1.0000 0.39322  0.27893  0.99579  Biso   1.000  C
  C562     1.0000 0.03526  0.62202  0.70159  Biso   1.000  C
  C563     1.0000 0.24034  0.49542  0.37275  Biso   1.000  C
  C564     1.0000 0.90574  0.27471  0.50734  Biso   1.000  C
  C565     1.0000 0.03376  0.84255  0.20588  Biso   1.000  C
  C566     1.0000 0.23941  0.97513  0.87427  Biso   1.000  C
  C567     1.0000 0.88451  0.18372  0.01742  Biso   1.000  C
  C568     1.0000 0.54513  0.85091  0.29917  Biso   1.000  C
  C569     1.0000 0.73461  0.97869  0.64352  Biso   1.000  C
  C570     1.0000 0.41083  0.19442  0.50760  Biso   1.000  C
  C571     1.0000 0.51737  0.34853  0.21293  Biso   1.000  C
  C572     1.0000 0.32278  0.50483  0.86852  Biso   1.000  C
  C573     1.0000 0.67140  0.68295  0.99189  Biso   1.000  C
  C574     1.0000 0.02931  0.33920  0.30286  Biso   1.000  C
  C575     1.0000 0.81919  0.47535  0.63116  Biso   1.000  C
  C576     1.0000 0.16007  0.69599  0.49298  Biso   1.000  C
  C577     1.0000 0.31812  0.48379  0.10110  Biso   1.000  C
  C578     1.0000 0.14214  0.27733  0.51467  Biso   1.000  C
  C579     1.0000 0.53583  0.08350  0.29952  Biso   1.000  C
  C580     1.0000 0.82852  0.46934  0.39503  Biso   1.000  C
  C581     1.0000 0.62416  0.26561  0.03309  Biso   1.000  C
  C582     1.0000 0.03232  0.07777  0.21773  Biso   1.000  C
  C583     1.0000 0.24229  0.97838  0.10764  Biso   1.000  C
  C584     1.0000 0.42712  0.78204  0.48896  Biso   1.000  C
  C585     1.0000 0.05112  0.57367  0.28815  Biso   1.000  C
  C586     1.0000 0.74579  0.98909  0.40643  Biso   1.000  C
  C587     1.0000 0.93569  0.77115  0.99401  Biso   1.000  C
  C588     1.0000 0.53160  0.58141  0.21379  Biso   1.000  C
  C589     1.0000 0.73607  0.45713  0.89986  Biso   1.000  C
  C590     1.0000 0.92512  0.69521  0.49680  Biso   1.000  C
  C591     1.0000 0.51644  0.88315  0.71813  Biso   1.000  C
  C592     1.0000 0.24075  0.49161  0.61052  Biso   1.000  C
  C593     1.0000 0.43158  0.69386  0.01641  Biso   1.000  C
  C594     1.0000 0.03763  0.88989  0.79264  Biso   1.000  C
  C595     1.0000 0.82129  0.97082  0.90394  Biso   1.000  C
  C596     1.0000 0.64377  0.18705  0.50504  Biso   1.000  C
  C597     1.0000 0.01740  0.38591  0.71725  Biso   1.000  C
  C598     1.0000 0.31165  0.98062  0.60414  Biso   1.000  C
  C599     1.0000 0.12317  0.19514  0.01157  Biso   1.000  C
  C600     1.0000 0.53161  0.37914  0.79950  Biso   1.000  C
  C601     1.0000 0.23946  0.97973  0.90573  Biso   1.000  C
  C602     1.0000 0.91634  0.18539  0.01384  Biso   1.000  C
  C603     1.0000 0.03187  0.87382  0.20592  Biso   1.000  C
  C604     1.0000 0.73702  0.97601  0.61164  Biso   1.000  C
  C605     1.0000 0.44222  0.19218  0.51094  Biso   1.000  C
  C606     1.0000 0.54538  0.88281  0.29966  Biso   1.000  C
  C607     1.0000 0.32336  0.50817  0.89986  Biso   1.000  C
  C608     1.0000 0.63933  0.68356  0.99136  Biso   1.000  C
  C609     1.0000 0.52073  0.37933  0.21075  Biso   1.000  C
  C610     1.0000 0.82190  0.47792  0.60024  Biso   1.000  C
  C611     1.0000 0.12884  0.69357  0.48779  Biso   1.000  C
  C612     1.0000 0.02964  0.37048  0.30273  Biso   1.000  C
  C613     1.0000 0.81888  0.98477  0.10876  Biso   1.000  C
  C614     1.0000 0.14056  0.77785  0.98954  Biso   1.000  C
  C615     1.0000 0.02320  0.08814  0.80086  Biso   1.000  C
  C616     1.0000 0.32526  0.99027  0.40195  Biso   1.000  C
  C617     1.0000 0.62899  0.77191  0.50497  Biso   1.000  C
  C618     1.0000 0.53831  0.08510  0.71433  Biso   1.000  C
  C619     1.0000 0.73889  0.47315  0.10490  Biso   1.000  C
  C620     1.0000 0.42367  0.27872  0.99687  Biso   1.000  C
  C621     1.0000 0.51399  0.58214  0.79783  Biso   1.000  C
  C622     1.0000 0.23857  0.49654  0.40386  Biso   1.000  C
  C623     1.0000 0.93689  0.27462  0.50688  Biso   1.000  C
  C624     1.0000 0.03962  0.59052  0.70236  Biso   1.000  C
  C625     1.0000 0.01321  0.19325  0.90834  Biso   1.000  C
  C626     1.0000 0.93452  0.98623  0.20615  Biso   1.000  C
  C627     1.0000 0.24432  0.88826  0.00802  Biso   1.000  C
  C628     1.0000 0.54378  0.19165  0.60528  Biso   1.000  C
  C629     1.0000 0.43796  0.97325  0.30226  Biso   1.000  C
  C630     1.0000 0.73924  0.87581  0.49888  Biso   1.000  C
  C631     1.0000 0.52975  0.69162  0.90425  Biso   1.000  C
  C632     1.0000 0.63030  0.48424  0.21311  Biso   1.000  C
  C633     1.0000 0.32055  0.38821  0.98961  Biso   1.000  C
  C634     1.0000 0.04098  0.69322  0.59047  Biso   1.000  C
  C635     1.0000 0.13547  0.47290  0.29707  Biso   1.000  C
  C636     1.0000 0.83179  0.38011  0.49998  Biso   1.000  C
  C637     1.0000 0.03310  0.77311  0.09387  Biso   1.000  C
  C638     1.0000 0.13305  0.98420  0.79686  Biso   1.000  C
  C639     1.0000 0.81392  0.07204  0.00742  Biso   1.000  C
  C640     1.0000 0.54583  0.77607  0.41057  Biso   1.000  C
  C641     1.0000 0.62599  0.98862  0.71418  Biso   1.000  C
  C642     1.0000 0.32340  0.09609  0.50846  Biso   1.000  C
  C643     1.0000 0.50618  0.27067  0.10855  Biso   1.000  C
  C644     1.0000 0.42690  0.47309  0.79430  Biso   1.000  C
  C645     1.0000 0.74071  0.57327  0.00454  Biso   1.000  C
  C646     1.0000 0.05625  0.26645  0.41015  Biso   1.000  C
  C647     1.0000 0.92340  0.49111  0.70839  Biso   1.000  C
  C648     1.0000 0.23827  0.59274  0.50331  Biso   1.000  C
  C649     1.0000 0.03345  0.68684  0.38793  Biso   1.000  C
  C650     1.0000 0.41948  0.97936  0.71323  Biso   1.000  C
  C651     1.0000 0.73298  0.36708  0.99374  Biso   1.000  C
  C652     1.0000 0.53722  0.69125  0.10647  Biso   1.000  C
  C653     1.0000 0.92723  0.99908  0.80036  Biso   1.000  C
  C654     1.0000 0.24642  0.38934  0.51743  Biso   1.000  C
  C655     1.0000 0.52702  0.19028  0.40485  Biso   1.000  C
  C656     1.0000 0.12854  0.47715  0.71408  Biso   1.000  C
  C657     1.0000 0.82356  0.87156  0.00297  Biso   1.000  C
  C658     1.0000 0.02949  0.18699  0.11144  Biso   1.000  C
  C659     1.0000 0.62959  0.49075  0.79808  Biso   1.000  C
  C660     1.0000 0.31815  0.88746  0.49848  Biso   1.000  C
  C661     1.0000 0.02810  0.27946  0.60890  Biso   1.000  C
  C662     1.0000 0.63867  0.98216  0.29530  Biso   1.000  C
  C663     1.0000 0.32310  0.58824  0.00898  Biso   1.000  C
  C664     1.0000 0.53991  0.27260  0.90664  Biso   1.000  C
  C665     1.0000 0.13743  0.96257  0.21596  Biso   1.000  C
  C666     1.0000 0.82272  0.58321  0.47709  Biso   1.000  C
  C667     1.0000 0.51265  0.77504  0.60845  Biso   1.000  C
  C668     1.0000 0.93619  0.47941  0.28721  Biso   1.000  C
  C669     1.0000 0.23785  0.09454  0.00222  Biso   1.000  C
  C670     1.0000 0.02602  0.77530  0.88945  Biso   1.000  C
  C671     1.0000 0.42551  0.47613  0.20899  Biso   1.000  C
  C672     1.0000 0.74939  0.08122  0.51199  Biso   1.000  C
  C673     1.0000 0.22620  0.97097  0.81358  Biso   1.000  C
  C674     1.0000 0.82339  0.16735  0.01829  Biso   1.000  C
  C675     1.0000 0.03637  0.78079  0.18861  Biso   1.000  C
  C676     1.0000 0.71801  0.98386  0.70433  Biso   1.000  C
  C677     1.0000 0.34492  0.18662  0.50674  Biso   1.000  C
  C678     1.0000 0.54195  0.78630  0.31459  Biso   1.000  C
  C679     1.0000 0.33445  0.49175  0.80643  Biso   1.000  C
  C680     1.0000 0.73509  0.66636  0.99782  Biso   1.000  C
  C681     1.0000 0.51328  0.28461  0.20292  Biso   1.000  C
  C682     1.0000 0.82683  0.47615  0.69589  Biso   1.000  C
  C683     1.0000 0.22329  0.68387  0.50374  Biso   1.000  C
  C684     1.0000 0.03750  0.27536  0.31509  Biso   1.000  C
  C685     1.0000 0.83867  0.98974  0.19953  Biso   1.000  C
  C686     1.0000 0.23330  0.79260  0.00376  Biso   1.000  C
  C687     1.0000 0.01295  0.18382  0.81546  Biso   1.000  C
  C688     1.0000 0.34391  0.97778  0.31029  Biso   1.000  C
  C689     1.0000 0.72524  0.78071  0.49344  Biso   1.000  C
  C690     1.0000 0.54181  0.17875  0.70062  Biso   1.000  C
  C691     1.0000 0.72595  0.48124  0.19920  Biso   1.000  C
  C692     1.0000 0.32949  0.29234  0.99253  Biso   1.000  C
  C693     1.0000 0.51731  0.67782  0.81216  Biso   1.000  C
  C694     1.0000 0.22772  0.48875  0.30916  Biso   1.000  C
  C695     1.0000 0.84366  0.28756  0.50571  Biso   1.000  C
  C696     1.0000 0.03632  0.68291  0.68452  Biso   1.000  C
  C697     1.0000 0.73600  0.99094  0.31258  Biso   1.000  C
  C698     1.0000 0.33984  0.68434  0.01724  Biso   1.000  C
  C699     1.0000 0.02504  0.29199  0.70438  Biso   1.000  C
  C700     1.0000 0.23396  0.97066  0.20125  Biso   1.000  C
  C701     1.0000 0.83213  0.67548  0.48081  Biso   1.000  C
  C702     1.0000 0.53687  0.28590  0.81154  Biso   1.000  C
  C703     1.0000 0.83991  0.46699  0.30155  Biso   1.000  C
  C704     1.0000 0.21733  0.18590  0.00540  Biso   1.000  C
  C705     1.0000 0.51060  0.78837  0.70494  Biso   1.000  C
  C706     1.0000 0.33127  0.48536  0.19859  Biso   1.000  C
  C707     1.0000 0.73887  0.17386  0.50707  Biso   1.000  C
  C708     1.0000 0.03018  0.79246  0.79650  Biso   1.000  C
  C709     1.0000 0.32650  0.96626  0.69790  Biso   1.000  C
  C710     1.0000 0.71683  0.27500  0.01775  Biso   1.000  C
  C711     1.0000 0.04697  0.66947  0.29432  Biso   1.000  C
  C712     1.0000 0.83514  0.98904  0.80900  Biso   1.000  C
  C713     1.0000 0.23629  0.29396  0.51533  Biso   1.000  C
  C714     1.0000 0.53259  0.67692  0.20148  Biso   1.000  C
  C715     1.0000 0.22260  0.48216  0.70206  Biso   1.000  C
  C716     1.0000 0.84033  0.77770  0.99890  Biso   1.000  C
  C717     1.0000 0.52583  0.17774  0.31132  Biso   1.000  C
  C718     1.0000 0.71961  0.46928  0.80578  Biso   1.000  C
  C719     1.0000 0.33353  0.79156  0.49678  Biso   1.000  C
  C720     1.0000 0.02788  0.17051  0.20763  Biso   1.000  C
  C721     1.0000 0.55574  0.78825  0.28743  Biso   1.000  C
  C722     1.0000 0.31258  0.51330  0.80347  Biso   1.000  C
  C723     1.0000 0.81577  0.28964  0.52081  Biso   1.000  C
  C724     1.0000 0.02018  0.75358  0.18712  Biso   1.000  C
  C725     1.0000 0.79832  0.48667  0.69111  Biso   1.000  C
  C726     1.0000 0.30478  0.29465  0.97382  Biso   1.000  C
  C727     1.0000 0.02647  0.24551  0.32252  Biso   1.000  C
  C728     1.0000 0.25596  0.98215  0.81534  Biso   1.000  C
  C729     1.0000 0.75411  0.78152  0.50640  Biso   1.000  C
  C730     1.0000 0.49736  0.28947  0.22990  Biso   1.000  C
  C731     1.0000 0.74327  0.96350  0.70373  Biso   1.000  C
  C732     1.0000 0.26357  0.79821  0.99429  Biso   1.000  C
  C733     1.0000 0.52051  0.17847  0.72434  Biso   1.000  C
  C734     1.0000 0.72242  0.46716  0.22651  Biso   1.000  C
  C735     1.0000 0.22148  0.70761  0.48337  Biso   1.000  C
  C736     1.0000 0.99702  0.21109  0.81722  Biso   1.000  C
  C737     1.0000 0.25661  0.47530  0.31428  Biso   1.000  C
  C738     1.0000 0.75841  0.66468  0.01915  Biso   1.000  C
  C739     1.0000 0.05348  0.68068  0.71153  Biso   1.000  C
  C740     1.0000 0.80886  0.97829  0.20036  Biso   1.000  C
  C741     1.0000 0.31968  0.18558  0.48676  Biso   1.000  C
  C742     1.0000 0.53222  0.67536  0.78420  Biso   1.000  C
  C743     1.0000 0.31685  0.96020  0.31348  Biso   1.000  C
  C744     1.0000 0.82399  0.18839  0.04231  Biso   1.000  C
  C745     1.0000 0.06198  0.69725  0.29663  Biso   1.000  C
  C746     1.0000 0.30006  0.98144  0.69879  Biso   1.000  C
  C747     1.0000 0.74364  0.28036  0.03274  Biso   1.000  C
  C748     1.0000 0.54736  0.70604  0.19776  Biso   1.000  C
  C749     1.0000 0.83977  0.97830  0.78036  Biso   1.000  C
  C750     1.0000 0.25975  0.29419  0.53601  Biso   1.000  C
  C751     1.0000 0.54547  0.17927  0.28717  Biso   1.000  C
  C752     1.0000 0.24850  0.46547  0.70011  Biso   1.000  C
  C753     1.0000 0.81224  0.78141  0.98660  Biso   1.000  C
  C754     1.0000 0.04547  0.16606  0.23373  Biso   1.000  C
  C755     1.0000 0.71112  0.45604  0.77816  Biso   1.000  C
  C756     1.0000 0.31035  0.79237  0.51787  Biso   1.000  C
  C757     1.0000 0.00723  0.26486  0.70394  Biso   1.000  C
  C758     1.0000 0.73248  0.00839  0.28561  Biso   1.000  C
  C759     1.0000 0.31471  0.68321  0.03503  Biso   1.000  C
  C760     1.0000 0.55505  0.29103  0.78642  Biso   1.000  C
  C761     1.0000 0.25645  0.99346  0.20127  Biso   1.000  C
  C762     1.0000 0.83625  0.70232  0.46335  Biso   1.000  C
  C763     1.0000 0.49619  0.79114  0.73377  Biso   1.000  C
  C764     1.0000 0.81456  0.48391  0.30800  Biso   1.000  C
  C765     1.0000 0.24033  0.18822  0.02777  Biso   1.000  C
  C766     1.0000 0.01453  0.79569  0.76830  Biso   1.000  C
  C767     1.0000 0.33697  0.50228  0.22442  Biso   1.000  C
  C768     1.0000 0.73672  0.19691  0.48565  Biso   1.000  C
  C769     1.0000 0.49834  0.70119  0.81575  Biso   1.000  C
  C770     1.0000 0.83096  0.45861  0.72227  Biso   1.000  C
  C771     1.0000 0.71866  0.75564  0.47345  Biso   1.000  C
  C772     1.0000 0.01793  0.70787  0.68053  Biso   1.000  C
  C773     1.0000 0.33337  0.46702  0.78681  Biso   1.000  C
  C774     1.0000 0.22684  0.76410  0.01566  Biso   1.000  C
  C775     1.0000 0.03406  0.18065  0.79164  Biso   1.000  C
  C776     1.0000 0.71976  0.00485  0.72782  Biso   1.000  C
  C777     1.0000 0.84810  0.26102  0.48974  Biso   1.000  C
  C778     1.0000 0.56139  0.20436  0.70015  Biso   1.000  C
  C779     1.0000 0.21805  0.95496  0.78727  Biso   1.000  C
  C780     1.0000 0.33086  0.26862  0.01365  Biso   1.000  C
  C781     1.0000 0.52958  0.25887  0.19740  Biso   1.000  C
  C782     1.0000 0.22312  0.50342  0.28138  Biso   1.000  C
  C783     1.0000 0.34970  0.21327  0.52237  Biso   1.000  C
  C784     1.0000 0.04557  0.28191  0.28430  Biso   1.000  C
  C785     1.0000 0.75615  0.49243  0.19255  Biso   1.000  C
  C786     1.0000 0.79987  0.16857  0.99766  Biso   1.000  C
  C787     1.0000 0.05898  0.78210  0.21081  Biso   1.000  C
  C788     1.0000 0.34663  0.99228  0.28180  Biso   1.000  C
  C789     1.0000 0.24848  0.68003  0.52208  Biso   1.000  C
  C790     1.0000 0.52662  0.75836  0.31872  Biso   1.000  C
  C791     1.0000 0.84728  0.00539  0.22633  Biso   1.000  C
  C792     1.0000 0.73546  0.69036  0.97537  Biso   1.000  C
  C793     1.0000 0.50330  0.20171  0.31399  Biso   1.000  C
  C794     1.0000 0.30550  0.46716  0.19668  Biso   1.000  C
  C795     1.0000 0.23342  0.27142  0.49233  Biso   1.000  C
  C796     1.0000 0.00845  0.19639  0.20570  Biso   1.000  C
  C797     1.0000 0.83928  0.45184  0.27375  Biso   1.000  C
  C798     1.0000 0.71103  0.24507  0.00731  Biso   1.000  C
  C799     1.0000 0.03422  0.66330  0.26557  Biso   1.000  C
  C800     1.0000 0.23618  0.94955  0.22360  Biso   1.000  C
  C801     1.0000 0.33461  0.76764  0.47778  Biso   1.000  C
  C802     1.0000 0.51778  0.67207  0.22852  Biso   1.000  C
  C803     1.0000 0.76265  0.97518  0.31698  Biso   1.000  C
  C804     1.0000 0.84597  0.75032  0.01412  Biso   1.000  C
  C805     1.0000 0.52397  0.75953  0.70030  Biso   1.000  C
  C806     1.0000 0.74952  0.47967  0.80917  Biso   1.000  C
  C807     1.0000 0.80535  0.67191  0.49856  Biso   1.000  C
  C808     1.0000 0.04897  0.76756  0.79738  Biso   1.000  C
  C809     1.0000 0.21963  0.49962  0.72777  Biso   1.000  C
  C810     1.0000 0.34341  0.70877  0.99675  Biso   1.000  C
  C811     1.0000 0.03995  0.29610  0.73132  Biso   1.000  C
  C812     1.0000 0.80694  0.00284  0.81438  Biso   1.000  C
  C813     1.0000 0.76529  0.17455  0.52423  Biso   1.000  C
  C814     1.0000 0.52305  0.25783  0.81322  Biso   1.000  C
  C815     1.0000 0.33160  0.94540  0.72238  Biso   1.000  C
  C816     1.0000 0.21525  0.20921  0.98391  Biso   1.000  C
  C817     1.0000 0.00097  0.23266  0.79712  Biso   1.000  C
  C818     1.0000 0.78994  0.97971  0.22356  Biso   1.000  C
  C819     1.0000 0.28549  0.77988  0.99914  Biso   1.000  C
  C820     1.0000 0.51907  0.20082  0.74358  Biso   1.000  C
  C821     1.0000 0.29645  0.95922  0.29156  Biso   1.000  C
  C822     1.0000 0.77219  0.76048  0.49887  Biso   1.000  C
  C823     1.0000 0.53146  0.69857  0.76548  Biso   1.000  C
  C824     1.0000 0.74382  0.46453  0.24721  Biso   1.000  C
  C825     1.0000 0.28180  0.27512  0.97627  Biso   1.000  C
  C826     1.0000 0.05201  0.70330  0.73210  Biso   1.000  C
  C827     1.0000 0.27617  0.47573  0.29120  Biso   1.000  C
  C828     1.0000 0.79371  0.26872  0.51835  Biso   1.000  C
  C829     1.0000 0.02346  0.73121  0.20742  Biso   1.000  C
  C830     1.0000 0.27492  0.97498  0.79360  Biso   1.000  C
  C831     1.0000 0.80123  0.20885  0.04491  Biso   1.000  C
  C832     1.0000 0.55172  0.76808  0.26616  Biso   1.000  C
  C833     1.0000 0.76509  0.96406  0.72457  Biso   1.000  C
  C834     1.0000 0.29896  0.20674  0.48815  Biso   1.000  C
  C835     1.0000 0.50247  0.27020  0.25226  Biso   1.000  C
  C836     1.0000 0.28971  0.50752  0.78373  Biso   1.000  C
  C837     1.0000 0.78009  0.68545  0.01788  Biso   1.000  C
  C838     1.0000 0.02380  0.22490  0.30132  Biso   1.000  C
  C839     1.0000 0.77610  0.47886  0.71085  Biso   1.000  C
  C840     1.0000 0.24099  0.72987  0.48368  Biso   1.000  C
  C841     1.0000 0.23760  0.95262  0.76471  Biso   1.000  C
  C842     1.0000 0.78011  0.19168  0.99951  Biso   1.000  C
  C843     1.0000 0.06396  0.75848  0.22935  Biso   1.000  C
  C844     1.0000 0.74190  0.00516  0.74854  Biso   1.000  C
  C845     1.0000 0.32912  0.23466  0.51978  Biso   1.000  C
  C846     1.0000 0.52247  0.73743  0.29696  Biso   1.000  C
  C847     1.0000 0.31216  0.46448  0.76712  Biso   1.000  C
  C848     1.0000 0.75686  0.71096  0.97843  Biso   1.000  C
  C849     1.0000 0.53333  0.24001  0.22006  Biso   1.000  C
  C850     1.0000 0.80751  0.45144  0.74066  Biso   1.000  C
  C851     1.0000 0.26915  0.70176  0.52013  Biso   1.000  C
  C852     1.0000 0.04576  0.25817  0.26604  Biso   1.000  C
  C853     1.0000 0.82962  0.00620  0.25048  Biso   1.000  C
  C854     1.0000 0.24997  0.74572  0.02223  Biso   1.000  C
  C855     1.0000 0.03580  0.20285  0.77095  Biso   1.000  C
  C856     1.0000 0.32702  0.98752  0.26021  Biso   1.000  C
  C857     1.0000 0.73864  0.73444  0.46741  Biso   1.000  C
  C858     1.0000 0.55934  0.22576  0.72076  Biso   1.000  C
  C859     1.0000 0.77779  0.49197  0.21352  Biso   1.000  C
  C860     1.0000 0.30677  0.24952  0.01626  Biso   1.000  C
  C861     1.0000 0.49855  0.72410  0.79673  Biso   1.000  C
  C862     1.0000 0.24438  0.50368  0.25911  Biso   1.000  C
  C863     1.0000 0.82551  0.24026  0.48815  Biso   1.000  C
  C864     1.0000 0.01772  0.72921  0.70126  Biso   1.000  C
  C865     1.0000 0.73152  0.45474  0.75623  Biso   1.000  C
  C866     1.0000 0.81460  0.72305  0.46146  Biso   1.000  C
  C867     1.0000 0.49738  0.77026  0.75439  Biso   1.000  C
  C868     1.0000 0.27108  0.46737  0.71983  Biso   1.000  C
  C869     1.0000 0.29507  0.70587  0.03272  Biso   1.000  C
  C870     1.0000 0.01430  0.77399  0.74702  Biso   1.000  C
  C871     1.0000 0.81746  0.97748  0.76054  Biso   1.000  C
  C872     1.0000 0.75627  0.21979  0.48418  Biso   1.000  C
  C873     1.0000 0.00563  0.24483  0.72768  Biso   1.000  C
  C874     1.0000 0.28005  0.97678  0.71956  Biso   1.000  C
  C875     1.0000 0.26002  0.21156  0.02652  Biso   1.000  C
  C876     1.0000 0.55505  0.27076  0.76361  Biso   1.000  C
  C877     1.0000 0.31685  0.50408  0.24692  Biso   1.000  C
  C878     1.0000 0.27915  0.27156  0.53596  Biso   1.000  C
  C879     1.0000 0.54213  0.20177  0.26660  Biso   1.000  C
  C880     1.0000 0.79253  0.48765  0.28782  Biso   1.000  C
  C881     1.0000 0.76442  0.25897  0.03342  Biso   1.000  C
  C882     1.0000 0.04733  0.18847  0.25378  Biso   1.000  C
  C883     1.0000 0.27732  0.99490  0.22410  Biso   1.000  C
  C884     1.0000 0.29020  0.76982  0.52012  Biso   1.000  C
  C885     1.0000 0.06197  0.71802  0.27564  Biso   1.000  C
  C886     1.0000 0.75467  0.00901  0.26469  Biso   1.000  C
  C887     1.0000 0.79301  0.75869  0.98484  Biso   1.000  C
  C888     1.0000 0.54431  0.72648  0.21962  Biso   1.000  C
  C889     1.0000 0.78417  0.97885  0.29574  Biso   1.000  C
  C890     1.0000 0.32462  0.73155  0.99642  Biso   1.000  C
  C891     1.0000 0.03967  0.27530  0.75370  Biso   1.000  C
  C892     1.0000 0.25599  0.95041  0.24545  Biso   1.000  C
  C893     1.0000 0.78599  0.69368  0.49466  Biso   1.000  C
  C894     1.0000 0.52425  0.23819  0.79145  Biso   1.000  C
  C895     1.0000 0.81669  0.45514  0.25433  Biso   1.000  C
  C896     1.0000 0.23644  0.23099  0.98237  Biso   1.000  C
  C897     1.0000 0.52169  0.73778  0.72145  Biso   1.000  C
  C898     1.0000 0.28464  0.47126  0.21937  Biso   1.000  C
  C899     1.0000 0.78532  0.19659  0.52063  Biso   1.000  C
  C900     1.0000 0.04943  0.74909  0.77450  Biso   1.000  C
  C901     1.0000 0.31122  0.94347  0.74417  Biso   1.000  C
  C902     1.0000 0.73155  0.22392  0.00985  Biso   1.000  C
  C903     1.0000 0.03774  0.68390  0.24346  Biso   1.000  C
  C904     1.0000 0.78485  0.00058  0.79478  Biso   1.000  C
  C905     1.0000 0.25431  0.25019  0.49156  Biso   1.000  C
  C906     1.0000 0.51874  0.69282  0.25042  Biso   1.000  C
  C907     1.0000 0.24199  0.49980  0.74750  Biso   1.000  C
  C908     1.0000 0.82618  0.72786  0.01326  Biso   1.000  C
  C909     1.0000 0.50096  0.22219  0.29149  Biso   1.000  C
  C910     1.0000 0.76934  0.47474  0.78694  Biso   1.000  C
  C911     1.0000 0.31328  0.74497  0.47967  Biso   1.000  C
  C912     1.0000 0.01061  0.21706  0.22734  Biso   1.000  C
  C913     1.0000 0.78066  0.46194  0.73577  Biso   1.000  C
  C914     1.0000 0.76585  0.73892  0.47868  Biso   1.000  C
  C915     1.0000 0.51259  0.72191  0.77099  Biso   1.000  C
  C916     1.0000 0.28984  0.48451  0.76591  Biso   1.000  C
  C917     1.0000 0.27900  0.75334  0.01487  Biso   1.000  C
  C918     1.0000 0.03348  0.72685  0.72744  Biso   1.000  C
  C919     1.0000 0.76576  0.98703  0.74494  Biso   1.000  C
  C920     1.0000 0.79947  0.24415  0.50216  Biso   1.000  C
  C921     1.0000 0.02061  0.22920  0.77454  Biso   1.000  C
  C922     1.0000 0.26633  0.95968  0.76898  Biso   1.000  C
  C923     1.0000 0.28317  0.25348  0.99738  Biso   1.000  C
  C924     1.0000 0.53941  0.22346  0.74392  Biso   1.000  C
  C925     1.0000 0.26926  0.48825  0.26465  Biso   1.000  C
  C926     1.0000 0.30187  0.23111  0.50569  Biso   1.000  C
  C927     1.0000 0.51931  0.24568  0.24585  Biso   1.000  C
  C928     1.0000 0.77090  0.47777  0.24131  Biso   1.000  C
  C929     1.0000 0.78137  0.21063  0.02251  Biso   1.000  C
  C930     1.0000 0.03156  0.23284  0.27348  Biso   1.000  C
  C931     1.0000 0.30178  0.97235  0.26561  Biso   1.000  C
  C932     1.0000 0.26602  0.72482  0.50027  Biso   1.000  C
  C933     1.0000 0.04651  0.73422  0.22725  Biso   1.000  C
  C934     1.0000 0.80097  0.99415  0.24792  Biso   1.000  C
  C935     1.0000 0.77792  0.70936  0.99848  Biso   1.000  C
  C936     1.0000 0.53429  0.74227  0.26919  Biso   1.000  C
  C937     1.0000 0.75792  0.23193  0.02233  Biso   1.000  C
  C938     1.0000 0.05123  0.71061  0.24836  Biso   1.000  C
  C939     1.0000 0.28540  0.95731  0.74330  Biso   1.000  C
  C940     1.0000 0.27753  0.25061  0.51291  Biso   1.000  C
  C941     1.0000 0.53242  0.71957  0.24738  Biso   1.000  C
  C942     1.0000 0.79029  0.98825  0.76743  Biso   1.000  C
  C943     1.0000 0.79987  0.73240  0.99916  Biso   1.000  C
  C944     1.0000 0.52019  0.22235  0.26789  Biso   1.000  C
  C945     1.0000 0.26689  0.48460  0.74331  Biso   1.000  C
  C946     1.0000 0.29052  0.74635  0.50113  Biso   1.000  C
  C947     1.0000 0.02878  0.21271  0.25113  Biso   1.000  C
  C948     1.0000 0.76098  0.46234  0.76088  Biso   1.000  C
  C949     1.0000 0.30032  0.72934  0.01468  Biso   1.000  C
  C950     1.0000 0.02181  0.25033  0.75137  Biso   1.000  C
  C951     1.0000 0.77992  0.99588  0.27091  Biso   1.000  C
  C952     1.0000 0.78846  0.71668  0.47525  Biso   1.000  C
  C953     1.0000 0.54007  0.24491  0.76652  Biso   1.000  C
  C954     1.0000 0.27740  0.97337  0.24449  Biso   1.000  C
  C955     1.0000 0.25906  0.23236  0.00313  Biso   1.000  C
  C956     1.0000 0.51017  0.74392  0.74842  Biso   1.000  C
  C957     1.0000 0.79514  0.47384  0.26133  Biso   1.000  C
  C958     1.0000 0.78112  0.21874  0.50070  Biso   1.000  C
  C959     1.0000 0.03387  0.75069  0.74879  Biso   1.000  C
  C960     1.0000 0.29185  0.48732  0.24317  Biso   1.000  C
  Cu1      1.0000 0.02510  0.48847  0.65718  Biso   1.000  Cu
  Cu2      1.0000 0.68710  0.97981  0.50656  Biso   1.000  Cu
  Cu3      1.0000 0.53327  0.63494  0.00527  Biso   1.000  Cu
  Cu4      1.0000 0.52626  0.48009  0.85263  Biso   1.000  Cu
  Cu5      1.0000 0.18478  0.98900  0.00573  Biso   1.000  Cu
  Cu6      1.0000 0.02546  0.63624  0.49059  Biso   1.000  Cu
  Cu7      1.0000 0.52057  0.98260  0.66031  Biso   1.000  Cu
  Cu8      1.0000 0.88172  0.48669  0.49874  Biso   1.000  Cu
  Cu9      1.0000 0.02171  0.13614  0.01001  Biso   1.000  Cu
  Cu10     1.0000 0.03021  0.98548  0.85190  Biso   1.000  Cu
  Cu11     1.0000 0.37513  0.48834  0.99986  Biso   1.000  Cu
  Cu12     1.0000 0.54016  0.13303  0.50631  Biso   1.000  Cu
  Cu13     1.0000 0.03385  0.47628  0.34895  Biso   1.000  Cu
  Cu14     1.0000 0.37381  0.98978  0.50608  Biso   1.000  Cu
  Cu15     1.0000 0.52896  0.32417  0.00781  Biso   1.000  Cu
  Cu16     1.0000 0.52553  0.48237  0.15588  Biso   1.000  Cu
  Cu17     1.0000 0.87108  0.97621  0.00579  Biso   1.000  Cu
  Cu18     1.0000 0.03859  0.33149  0.50782  Biso   1.000  Cu
  Cu19     1.0000 0.53953  0.98460  0.35563  Biso   1.000  Cu
  Cu20     1.0000 0.18613  0.48811  0.50705  Biso   1.000  Cu
  Cu21     1.0000 0.03569  0.83284  0.99246  Biso   1.000  Cu
  Cu22     1.0000 0.03602  0.97831  0.15638  Biso   1.000  Cu
  Cu23     1.0000 0.68167  0.47059  0.00255  Biso   1.000  Cu
  Cu24     1.0000 0.53000  0.83197  0.50750  Biso   1.000  Cu
  Cu25     1.0000 0.23822  0.99000  0.00622  Biso   1.000  Cu
  Cu26     1.0000 0.02098  0.19020  0.01094  Biso   1.000  Cu
  Cu27     1.0000 0.03229  0.97339  0.21032  Biso   1.000  Cu
  Cu28     1.0000 0.74123  0.97865  0.50728  Biso   1.000  Cu
  Cu29     1.0000 0.54189  0.18762  0.50418  Biso   1.000  Cu
  Cu30     1.0000 0.53657  0.98094  0.30006  Biso   1.000  Cu
  Cu31     1.0000 0.32038  0.48701  0.99824  Biso   1.000  Cu
  Cu32     1.0000 0.53797  0.69241  0.00455  Biso   1.000  Cu
  Cu33     1.0000 0.52975  0.47989  0.20999  Biso   1.000  Cu
  Cu34     1.0000 0.82699  0.48209  0.50018  Biso   1.000  Cu
  Cu35     1.0000 0.02796  0.68894  0.49003  Biso   1.000  Cu
  Cu36     1.0000 0.03662  0.47070  0.29599  Biso   1.000  Cu
  Cu37     1.0000 0.81777  0.97175  0.00476  Biso   1.000  Cu
  Cu38     1.0000 0.03539  0.77497  0.99195  Biso   1.000  Cu
  Cu39     1.0000 0.03098  0.99075  0.79883  Biso   1.000  Cu
  Cu40     1.0000 0.31948  0.98921  0.50114  Biso   1.000  Cu
  Cu41     1.0000 0.52866  0.77749  0.50979  Biso   1.000  Cu
  Cu42     1.0000 0.52245  0.98447  0.71323  Biso   1.000  Cu
  Cu43     1.0000 0.73725  0.46939  0.00210  Biso   1.000  Cu
  Cu44     1.0000 0.52446  0.26997  0.00867  Biso   1.000  Cu
  Cu45     1.0000 0.52686  0.48077  0.79639  Biso   1.000  Cu
  Cu46     1.0000 0.23969  0.49074  0.50768  Biso   1.000  Cu
  Cu47     1.0000 0.03901  0.27584  0.51221  Biso   1.000  Cu
  Cu48     1.0000 0.02546  0.49165  0.71050  Biso   1.000  Cu
  H1       1.0000 0.27075  0.77428  0.53287  Biso   1.000  H
  H2       1.0000 0.56764  0.27760  0.74364  Biso   1.000  H
  H3       1.0000 0.77344  0.50088  0.29452  Biso   1.000  H
  H4       1.0000 0.77065  0.76294  0.97906  Biso   1.000  H
  H5       1.0000 0.99477  0.22269  0.72841  Biso   1.000  H
  H6       1.0000 0.32281  0.51639  0.26789  Biso   1.000  H
  H7       1.0000 0.29382  0.26857  0.55286  Biso   1.000  H
  H8       1.0000 0.00205  0.77756  0.72801  Biso   1.000  H
  H9       1.0000 0.75137  0.02332  0.24698  Biso   1.000  H
  H10      1.0000 0.78608  0.26629  0.04369  Biso   1.000  H
  H11      1.0000 0.48632  0.77211  0.77487  Biso   1.000  H
  H12      1.0000 0.29116  0.01461  0.22523  Biso   1.000  H
  H13      1.0000 0.75168  0.23971  0.47043  Biso   1.000  H
  H14      1.0000 0.55121  0.74923  0.21210  Biso   1.000  H
  H15      1.0000 0.29159  0.45552  0.71685  Biso   1.000  H
  H16      1.0000 0.27701  0.20974  0.04229  Biso   1.000  H
  H17      1.0000 0.07116  0.73941  0.28084  Biso   1.000  H
  H18      1.0000 0.72342  0.44661  0.73477  Biso   1.000  H
  H19      1.0000 0.81828  0.74268  0.44757  Biso   1.000  H
  H20      1.0000 0.06459  0.18997  0.26973  Biso   1.000  H
  H21      1.0000 0.25967  0.98909  0.71839  Biso   1.000  H
  H22      1.0000 0.27498  0.70182  0.04475  Biso   1.000  H
  H23      1.0000 0.55893  0.20331  0.24972  Biso   1.000  H
  H24      1.0000 0.82390  0.96742  0.74093  Biso   1.000  H
  H25      1.0000 0.29668  0.98010  0.79411  Biso   1.000  H
  H26      1.0000 0.79939  0.22440  0.06242  Biso   1.000  H
  H27      1.0000 0.00956  0.71250  0.20716  Biso   1.000  H
  H28      1.0000 0.77995  0.94696  0.72438  Biso   1.000  H
  H29      1.0000 0.27897  0.20582  0.47655  Biso   1.000  H
  H30      1.0000 0.56293  0.77141  0.24538  Biso   1.000  H
  H31      1.0000 0.27363  0.52459  0.78284  Biso   1.000  H
  H32      1.0000 0.79764  0.68395  0.03252  Biso   1.000  H
  H33      1.0000 0.49073  0.27514  0.27375  Biso   1.000  H
  H34      1.0000 0.75284  0.48523  0.70329  Biso   1.000  H
  H35      1.0000 0.23648  0.74907  0.46979  Biso   1.000  H
  H36      1.0000 0.01173  0.20528  0.30698  Biso   1.000  H
  H37      1.0000 0.76671  0.97333  0.22257  Biso   1.000  H
  H38      1.0000 0.30842  0.78547  0.99585  Biso   1.000  H
  H39      1.0000 0.99143  0.25389  0.80011  Biso   1.000  H
  H40      1.0000 0.27463  0.95158  0.29378  Biso   1.000  H
  H41      1.0000 0.79498  0.76194  0.50988  Biso   1.000  H
  H42      1.0000 0.49989  0.19977  0.75684  Biso   1.000  H
  H43      1.0000 0.73891  0.45440  0.26742  Biso   1.000  H
  H44      1.0000 0.26202  0.27884  0.96311  Biso   1.000  H
  H45      1.0000 0.54791  0.69813  0.74814  Biso   1.000  H
  H46      1.0000 0.29538  0.46320  0.29191  Biso   1.000  H
  H47      1.0000 0.77293  0.26948  0.52860  Biso   1.000  H
  H48      1.0000 0.06756  0.69928  0.74864  Biso   1.000  H
  H49      1.0000 0.24283  0.51279  0.23798  Biso   1.000  H
  H50      1.0000 0.33175  0.25635  0.53010  Biso   1.000  H
  H51      1.0000 0.54777  0.22243  0.21454  Biso   1.000  H
  H52      1.0000 0.79936  0.50059  0.20916  Biso   1.000  H
  H53      1.0000 0.76449  0.19722  0.98290  Biso   1.000  H
  H54      1.0000 0.05244  0.26226  0.24457  Biso   1.000  H
  H55      1.0000 0.33140  0.99606  0.23811  Biso   1.000  H
  H56      1.0000 0.28821  0.70124  0.53590  Biso   1.000  H
  H57      1.0000 0.08384  0.75982  0.24148  Biso   1.000  H
  H58      1.0000 0.83632  0.01820  0.26959  Biso   1.000  H
  H59      1.0000 0.75649  0.72788  0.96181  Biso   1.000  H
  H60      1.0000 0.51583  0.71544  0.30390  Biso   1.000  H
  H61      1.0000 0.81000  0.43883  0.76060  Biso   1.000  H
  H62      1.0000 0.73407  0.71515  0.45467  Biso   1.000  H
  H63      1.0000 0.48234  0.74137  0.80180  Biso   1.000  H
  H64      1.0000 0.31369  0.44566  0.75352  Biso   1.000  H
  H65      1.0000 0.24251  0.72590  0.03358  Biso   1.000  H
  H66      1.0000 0.00468  0.74953  0.69663  Biso   1.000  H
  H67      1.0000 0.74041  0.01880  0.76664  Biso   1.000  H
  H68      1.0000 0.82264  0.22186  0.47378  Biso   1.000  H
  H69      1.0000 0.04960  0.19944  0.75249  Biso   1.000  H
  H70      1.0000 0.23217  0.94082  0.74408  Biso   1.000  H
  H71      1.0000 0.30521  0.23485  0.03244  Biso   1.000  H
  H72      1.0000 0.57654  0.24204  0.72224  Biso   1.000  H
  H73      1.0000 0.79288  0.48053  0.79077  Biso   1.000  H
  H74      1.0000 0.76655  0.69388  0.50771  Biso   1.000  H
  H75      1.0000 0.53266  0.71736  0.71626  Biso   1.000  H
  H76      1.0000 0.23888  0.51384  0.76541  Biso   1.000  H
  H77      1.0000 0.33100  0.75045  0.98210  Biso   1.000  H
  H78      1.0000 0.06365  0.73029  0.77704  Biso   1.000  H
  H79      1.0000 0.76345  0.01056  0.79875  Biso   1.000  H
  H80      1.0000 0.80545  0.19598  0.53379  Biso   1.000  H
  H81      1.0000 0.05303  0.27860  0.77162  Biso   1.000  H
  H82      1.0000 0.31633  0.92658  0.76219  Biso   1.000  H
  H83      1.0000 0.23456  0.24611  0.96496  Biso   1.000  H
  H84      1.0000 0.51406  0.21621  0.79619  Biso   1.000  H
  H85      1.0000 0.26379  0.45888  0.21934  Biso   1.000  H
  H86      1.0000 0.25110  0.23448  0.47454  Biso   1.000  H
  H87      1.0000 0.48210  0.23500  0.29202  Biso   1.000  H
  H88      1.0000 0.81495  0.44680  0.23318  Biso   1.000  H
  H89      1.0000 0.72562  0.20375  0.99751  Biso   1.000  H
  H90      1.0000 0.99351  0.23445  0.22596  Biso   1.000  H
  H91      1.0000 0.25692  0.93115  0.25779  Biso   1.000  H
  H92      1.0000 0.31391  0.72747  0.46366  Biso   1.000  H
  H93      1.0000 0.03154  0.67827  0.22162  Biso   1.000  H
  H94      1.0000 0.80490  0.96768  0.29734  Biso   1.000  H
  H95      1.0000 0.83084  0.70714  0.02237  Biso   1.000  H
  H96      1.0000 0.51071  0.68827  0.27141  Biso   1.000  H
  H97      1.0000 0.89715  0.98534  0.91762  Biso   1.000  H
  H98      1.0000 0.94340  0.84686  0.99920  Biso   1.000  H
  H99      1.0000 0.02906  0.89288  0.86594  Biso   1.000  H
  H100     1.0000 0.38869  0.98405  0.59511  Biso   1.000  H
  H101     1.0000 0.43852  0.85727  0.49358  Biso   1.000  H
  H102     1.0000 0.52219  0.89304  0.64347  Biso   1.000  H
  H103     1.0000 0.66104  0.46431  0.91281  Biso   1.000  H
  H104     1.0000 0.61464  0.33774  0.00829  Biso   1.000  H
  H105     1.0000 0.53978  0.38972  0.87290  Biso   1.000  H
  H106     1.0000 0.16618  0.48776  0.59520  Biso   1.000  H
  H107     1.0000 0.12946  0.35197  0.52379  Biso   1.000  H
  H108     1.0000 0.01456  0.39253  0.64099  Biso   1.000  H
  H109     1.0000 0.16660  0.97652  0.09601  Biso   1.000  H
  H110     1.0000 0.11522  0.11973  0.00003  Biso   1.000  H
  H111     1.0000 0.03515  0.06666  0.14327  Biso   1.000  H
  H112     1.0000 0.67053  0.98612  0.41534  Biso   1.000  H
  H113     1.0000 0.63139  0.11090  0.49937  Biso   1.000  H
  H114     1.0000 0.54042  0.07393  0.37448  Biso   1.000  H
  H115     1.0000 0.39344  0.47621  0.09342  Biso   1.000  H
  H116     1.0000 0.44306  0.61859  0.01005  Biso   1.000  H
  H117     1.0000 0.53435  0.57645  0.13481  Biso   1.000  H
  H118     1.0000 0.90513  0.47418  0.40429  Biso   1.000  H
  H119     1.0000 0.93859  0.62013  0.49956  Biso   1.000  H
  H120     1.0000 0.04091  0.56559  0.36111  Biso   1.000  H
  H121     1.0000 0.12389  0.99216  0.87273  Biso   1.000  H
  H122     1.0000 0.88968  0.06695  0.00512  Biso   1.000  H
  H123     1.0000 0.02945  0.84864  0.08679  Biso   1.000  H
  H124     1.0000 0.61332  0.98309  0.63792  Biso   1.000  H
  H125     1.0000 0.39851  0.07774  0.51689  Biso   1.000  H
  H126     1.0000 0.54897  0.85125  0.41934  Biso   1.000  H
  H127     1.0000 0.44096  0.48433  0.86854  Biso   1.000  H
  H128     1.0000 0.66500  0.56528  0.00740  Biso   1.000  H
  H129     1.0000 0.52844  0.34131  0.09424  Biso   1.000  H
  H130     1.0000 0.93368  0.49620  0.63291  Biso   1.000  H
  H131     1.0000 0.16392  0.57666  0.49414  Biso   1.000  H
  H132     1.0000 0.04265  0.33983  0.41795  Biso   1.000  H
  H133     1.0000 0.94097  0.97977  0.13141  Biso   1.000  H
  H134     1.0000 0.16893  0.89477  0.99962  Biso   1.000  H
  H135     1.0000 0.01308  0.11885  0.91834  Biso   1.000  H
  H136     1.0000 0.44785  0.99216  0.37531  Biso   1.000  H
  H137     1.0000 0.66339  0.88694  0.50435  Biso   1.000  H
  H138     1.0000 0.54952  0.11724  0.59841  Biso   1.000  H
  H139     1.0000 0.61768  0.48278  0.13835  Biso   1.000  H
  H140     1.0000 0.39614  0.39397  0.98097  Biso   1.000  H
  H141     1.0000 0.52755  0.61940  0.91750  Biso   1.000  H
  H142     1.0000 0.12392  0.47739  0.37182  Biso   1.000  H
  H143     1.0000 0.90693  0.39279  0.50627  Biso   1.000  H
  H144     1.0000 0.03674  0.61351  0.58499  Biso   1.000  H
  H145     1.0000 0.62073  0.48089  0.87388  Biso   1.000  H
  H146     1.0000 0.89964  0.57476  0.49093  Biso   1.000  H
  H147     1.0000 0.52546  0.85013  0.59955  Biso   1.000  H
  H148     1.0000 0.11959  0.48798  0.63923  Biso   1.000  H
  H149     1.0000 0.39857  0.57783  0.01795  Biso   1.000  H
  H150     1.0000 0.02230  0.85032  0.90314  Biso   1.000  H
  H151     1.0000 0.93829  0.98825  0.87384  Biso   1.000  H
  H152     1.0000 0.67532  0.07073  0.50427  Biso   1.000  H
  H153     1.0000 0.02500  0.35504  0.59858  Biso   1.000  H
  H154     1.0000 0.43046  0.99024  0.63821  Biso   1.000  H
  H155     1.0000 0.16209  0.07583  0.00054  Biso   1.000  H
  H156     1.0000 0.54723  0.34991  0.91597  Biso   1.000  H
  H157     1.0000 0.43410  0.47131  0.13243  Biso   1.000  H
  H158     1.0000 0.17247  0.39798  0.51787  Biso   1.000  H
  H159     1.0000 0.53863  0.11684  0.41746  Biso   1.000  H
  H160     1.0000 0.94663  0.48144  0.36291  Biso   1.000  H
  H161     1.0000 0.65874  0.37991  0.00961  Biso   1.000  H
  H162     1.0000 0.02289  0.11207  0.10072  Biso   1.000  H
  H163     1.0000 0.12576  0.97500  0.14109  Biso   1.000  H
  H164     1.0000 0.39207  0.90019  0.50091  Biso   1.000  H
  H165     1.0000 0.02837  0.61360  0.40077  Biso   1.000  H
  H166     1.0000 0.63093  0.97987  0.37288  Biso   1.000  H
  H167     1.0000 0.90097  0.88663  0.00039  Biso   1.000  H
  H168     1.0000 0.53936  0.61533  0.09724  Biso   1.000  H
  H169     1.0000 0.02482  0.07701  0.87750  Biso   1.000  H
  H170     1.0000 0.89490  0.97193  0.09174  Biso   1.000  H
  H171     1.0000 0.12347  0.85277  0.00141  Biso   1.000  H
  H172     1.0000 0.53873  0.07389  0.63869  Biso   1.000  H
  H173     1.0000 0.40075  0.99442  0.41818  Biso   1.000  H
  H174     1.0000 0.62407  0.84734  0.50764  Biso   1.000  H
  H175     1.0000 0.51979  0.57044  0.87236  Biso   1.000  H
  H176     1.0000 0.66273  0.48048  0.09481  Biso   1.000  H
  H177     1.0000 0.43578  0.35355  0.98695  Biso   1.000  H
  H178     1.0000 0.03566  0.57756  0.62762  Biso   1.000  H
  H179     1.0000 0.16329  0.47910  0.41376  Biso   1.000  H
  H180     1.0000 0.95381  0.34869  0.50317  Biso   1.000  H
  H181     1.0000 0.02881  0.88756  0.13079  Biso   1.000  H
  H182     1.0000 0.16341  0.98596  0.91571  Biso   1.000  H
  H183     1.0000 0.93099  0.10969  0.00725  Biso   1.000  H
  H184     1.0000 0.55106  0.89412  0.37358  Biso   1.000  H
  H185     1.0000 0.66149  0.97604  0.59402  Biso   1.000  H
  H186     1.0000 0.44655  0.11649  0.52366  Biso   1.000  H
  H187     1.0000 0.52365  0.38705  0.13467  Biso   1.000  H
  H188     1.0000 0.39609  0.49440  0.91324  Biso   1.000  H
  H189     1.0000 0.62695  0.60928  0.99714  Biso   1.000  H
  H190     1.0000 0.03546  0.37987  0.37952  Biso   1.000  H
  H191     1.0000 0.89742  0.49211  0.59234  Biso   1.000  H
  H192     1.0000 0.12079  0.61849  0.48360  Biso   1.000  H
  H193     1.0000 0.29545  0.84507  0.49760  Biso   1.000  H
  H194     1.0000 0.53654  0.25072  0.86605  Biso   1.000  H
  H195     1.0000 0.89375  0.47237  0.26558  Biso   1.000  H
  H196     1.0000 0.80333  0.82827  0.00715  Biso   1.000  H
  H197     1.0000 0.02279  0.25610  0.65107  Biso   1.000  H
  H198     1.0000 0.38328  0.47985  0.23028  Biso   1.000  H
  H199     1.0000 0.26789  0.34655  0.52147  Biso   1.000  H
  H200     1.0000 0.02110  0.75569  0.84712  Biso   1.000  H
  H201     1.0000 0.68296  0.98418  0.27454  Biso   1.000  H
  H202     1.0000 0.75262  0.32331  0.99210  Biso   1.000  H
  H203     1.0000 0.50533  0.75342  0.65118  Biso   1.000  H
  H204     1.0000 0.17953  0.96239  0.23515  Biso   1.000  H
  H205     1.0000 0.77087  0.12361  0.51672  Biso   1.000  H
  H206     1.0000 0.52780  0.70937  0.15034  Biso   1.000  H
  H207     1.0000 0.17110  0.47344  0.73538  Biso   1.000  H
  H208     1.0000 0.25510  0.14031  0.00532  Biso   1.000  H
  H209     1.0000 0.03936  0.70501  0.34131  Biso   1.000  H
  H210     1.0000 0.66980  0.49070  0.77584  Biso   1.000  H
  H211     1.0000 0.80345  0.62797  0.46967  Biso   1.000  H
  H212     1.0000 0.03373  0.20461  0.15507  Biso   1.000  H
  H213     1.0000 0.37710  0.96966  0.73351  Biso   1.000  H
  H214     1.0000 0.30217  0.63030  0.01504  Biso   1.000  H
  H215     1.0000 0.52334  0.20907  0.36021  Biso   1.000  H
  H216     1.0000 0.88500  0.00102  0.77821  Biso   1.000  H
  H217     1.0000 0.26039  0.49934  0.36094  Biso   1.000  H
  H218     1.0000 0.40286  0.21546  0.50223  Biso   1.000  H
  H219     1.0000 0.51714  0.33949  0.23392  Biso   1.000  H
  H220     1.0000 0.75868  0.46776  0.14798  Biso   1.000  H
  H221     1.0000 0.87344  0.20380  0.02221  Biso   1.000  H
  H222     1.0000 0.02893  0.33144  0.28056  Biso   1.000  H
  H223     1.0000 0.30750  0.98643  0.35705  Biso   1.000  H
  H224     1.0000 0.16991  0.71729  0.49609  Biso   1.000  H
  H225     1.0000 0.03513  0.83144  0.22690  Biso   1.000  H
  H226     1.0000 0.80347  0.99702  0.14975  Biso   1.000  H
  H227     1.0000 0.68160  0.70383  0.99091  Biso   1.000  H
  H228     1.0000 0.54493  0.84149  0.27761  Biso   1.000  H
  H229     1.0000 0.79784  0.46798  0.63862  Biso   1.000  H
  H230     1.0000 0.66899  0.74988  0.49925  Biso   1.000  H
  H231     1.0000 0.51032  0.62457  0.77735  Biso   1.000  H
  H232     1.0000 0.30075  0.50804  0.85619  Biso   1.000  H
  H233     1.0000 0.18210  0.75669  0.98804  Biso   1.000  H
  H234     1.0000 0.03272  0.63343  0.72131  Biso   1.000  H
  H235     1.0000 0.75292  0.97590  0.65593  Biso   1.000  H
  H236     1.0000 0.89615  0.25385  0.51227  Biso   1.000  H
  H237     1.0000 0.01354  0.12968  0.77976  Biso   1.000  H
  H238     1.0000 0.25865  0.96704  0.86504  Biso   1.000  H
  H239     1.0000 0.38200  0.25993  0.99499  Biso   1.000  H
  H240     1.0000 0.53804  0.12489  0.73687  Biso   1.000  H
  H241     1.0000 0.75685  0.45822  0.85462  Biso   1.000  H
  H242     1.0000 0.88049  0.71301  0.49135  Biso   1.000  H
  H243     1.0000 0.51295  0.84014  0.74144  Biso   1.000  H
  H244     1.0000 0.25906  0.49363  0.65412  Biso   1.000  H
  H245     1.0000 0.38701  0.71288  0.02263  Biso   1.000  H
  H246     1.0000 0.03605  0.85051  0.76528  Biso   1.000  H
  H247     1.0000 0.80204  0.97460  0.85975  Biso   1.000  H
  H248     1.0000 0.68846  0.20592  0.50842  Biso   1.000  H
  H249     1.0000 0.01949  0.34123  0.73698  Biso   1.000  H
  H250     1.0000 0.29153  0.97106  0.64879  Biso   1.000  H
  H251     1.0000 0.16429  0.21649  0.00897  Biso   1.000  H
  H252     1.0000 0.52587  0.33725  0.77965  Biso   1.000  H
  H253     1.0000 0.29532  0.48685  0.14450  Biso   1.000  H
  H254     1.0000 0.18425  0.25715  0.51433  Biso   1.000  H
  H255     1.0000 0.53544  0.12638  0.27725  Biso   1.000  H
  H256     1.0000 0.80600  0.46076  0.35696  Biso   1.000  H
  H257     1.0000 0.66631  0.24624  0.03760  Biso   1.000  H
  H258     1.0000 0.02894  0.11951  0.24010  Biso   1.000  H
  H259     1.0000 0.26589  0.97853  0.14892  Biso   1.000  H
  H260     1.0000 0.38239  0.76052  0.48430  Biso   1.000  H
  H261     1.0000 0.05393  0.61401  0.26694  Biso   1.000  H
  H262     1.0000 0.76811  0.99650  0.36592  Biso   1.000  H
  H263     1.0000 0.89334  0.74719  0.99201  Biso   1.000  H
  H264     1.0000 0.53744  0.62418  0.23429  Biso   1.000  H
  H265     1.0000 0.00955  0.21656  0.86761  Biso   1.000  H
  H266     1.0000 0.89108  0.98407  0.23169  Biso   1.000  H
  H267     1.0000 0.26436  0.84596  0.01612  Biso   1.000  H
  H268     1.0000 0.53933  0.21328  0.64774  Biso   1.000  H
  H269     1.0000 0.39495  0.96823  0.28020  Biso   1.000  H
  H270     1.0000 0.75903  0.83390  0.48908  Biso   1.000  H
  H271     1.0000 0.52475  0.71050  0.85832  Biso   1.000  H
  H272     1.0000 0.67359  0.48544  0.23612  Biso   1.000  H
  H273     1.0000 0.29808  0.34414  0.99168  Biso   1.000  H
  H274     1.0000 0.03744  0.71636  0.63171  Biso   1.000  H
  H275     1.0000 0.17424  0.47590  0.27559  Biso   1.000  H
  H276     1.0000 0.80898  0.33960  0.50338  Biso   1.000  H
  H277     1.0000 0.03078  0.74915  0.13418  Biso   1.000  H
  H278     1.0000 0.17870  0.97889  0.77772  Biso   1.000  H
  H279     1.0000 0.79205  0.11369  0.01393  Biso   1.000  H
  H280     1.0000 0.54360  0.75093  0.37154  Biso   1.000  H
  H281     1.0000 0.66900  0.99143  0.73526  Biso   1.000  H
  H282     1.0000 0.30729  0.13757  0.50566  Biso   1.000  H
  H283     1.0000 0.49960  0.24952  0.15031  Biso   1.000  H
  H284     1.0000 0.38476  0.48186  0.77375  Biso   1.000  H
  H285     1.0000 0.76376  0.61641  0.99603  Biso   1.000  H
  H286     1.0000 0.05643  0.24188  0.36891  Biso   1.000  H
  H287     1.0000 0.88241  0.49211  0.73125  Biso   1.000  H
  H288     1.0000 0.25905  0.63813  0.50009  Biso   1.000  H
  H289     1.0000 0.11058  0.21403  0.00861  Biso   1.000  H
  H290     1.0000 0.03908  0.06724  0.23877  Biso   1.000  H
  H291     1.0000 0.26062  0.98314  0.09409  Biso   1.000  H
  H292     1.0000 0.63296  0.20788  0.50633  Biso   1.000  H
  H293     1.0000 0.53843  0.07262  0.27806  Biso   1.000  H
  H294     1.0000 0.76687  0.98757  0.41915  Biso   1.000  H
  H295     1.0000 0.44559  0.71302  0.01807  Biso   1.000  H
  H296     1.0000 0.53068  0.56793  0.23383  Biso   1.000  H
  H297     1.0000 0.29835  0.48505  0.08816  Biso   1.000  H
  H298     1.0000 0.93414  0.71683  0.49978  Biso   1.000  H
  H299     1.0000 0.05527  0.56240  0.26865  Biso   1.000  H
  H300     1.0000 0.80922  0.46811  0.40828  Biso   1.000  H
  H301     1.0000 0.94918  0.75219  0.99407  Biso   1.000  H
  H302     1.0000 0.04196  0.90387  0.77424  Biso   1.000  H
  H303     1.0000 0.80145  0.96435  0.91498  Biso   1.000  H
  H304     1.0000 0.43982  0.76241  0.48600  Biso   1.000  H
  H305     1.0000 0.51562  0.89432  0.73801  Biso   1.000  H
  H306     1.0000 0.29176  0.98572  0.59117  Biso   1.000  H
  H307     1.0000 0.61199  0.24512  0.03895  Biso   1.000  H
  H308     1.0000 0.52850  0.39180  0.78002  Biso   1.000  H
  H309     1.0000 0.75670  0.45091  0.91080  Biso   1.000  H
  H310     1.0000 0.13143  0.25503  0.51398  Biso   1.000  H
  H311     1.0000 0.02223  0.39715  0.73791  Biso   1.000  H
  H312     1.0000 0.26108  0.49617  0.59937  Biso   1.000  H
  H313     1.0000 0.25938  0.97534  0.91788  Biso   1.000  H
  H314     1.0000 0.92425  0.20746  0.01299  Biso   1.000  H
  H315     1.0000 0.03608  0.88560  0.22556  Biso   1.000  H
  H316     1.0000 0.75791  0.96907  0.60106  Biso   1.000  H
  H317     1.0000 0.45683  0.20937  0.50661  Biso   1.000  H
  H318     1.0000 0.54687  0.89229  0.27837  Biso   1.000  H
  H319     1.0000 0.30215  0.51196  0.91124  Biso   1.000  H
  H320     1.0000 0.62666  0.70350  0.98742  Biso   1.000  H
  H321     1.0000 0.52450  0.39026  0.23136  Biso   1.000  H
  H322     1.0000 0.80334  0.47629  0.58529  Biso   1.000  H
  H323     1.0000 0.11592  0.71353  0.48573  Biso   1.000  H
  H324     1.0000 0.02462  0.38314  0.28328  Biso   1.000  H
  H325     1.0000 0.79750  0.98646  0.09864  Biso   1.000  H
  H326     1.0000 0.13251  0.75653  0.98775  Biso   1.000  H
  H327     1.0000 0.02496  0.07614  0.78036  Biso   1.000  H
  H328     1.0000 0.30418  0.99176  0.41187  Biso   1.000  H
  H329     1.0000 0.61546  0.75121  0.50692  Biso   1.000  H
  H330     1.0000 0.53722  0.07391  0.73620  Biso   1.000  H
  H331     1.0000 0.75937  0.46910  0.09341  Biso   1.000  H
  H332     1.0000 0.43372  0.25838  0.00110  Biso   1.000  H
  H333     1.0000 0.51314  0.57082  0.77839  Biso   1.000  H
  H334     1.0000 0.25750  0.50104  0.41670  Biso   1.000  H
  H335     1.0000 0.94933  0.25478  0.51055  Biso   1.000  H
  H336     1.0000 0.04149  0.57956  0.72354  Biso   1.000  H
  H337     1.0000 0.01313  0.21070  0.92265  Biso   1.000  H
  H338     1.0000 0.94808  0.98993  0.22481  Biso   1.000  H
  H339     1.0000 0.26287  0.90088  0.01649  Biso   1.000  H
  H340     1.0000 0.54429  0.21253  0.59152  Biso   1.000  H
  H341     1.0000 0.45069  0.96823  0.28311  Biso   1.000  H
  H342     1.0000 0.75983  0.88843  0.49488  Biso   1.000  H
  H343     1.0000 0.53282  0.71280  0.91445  Biso   1.000  H
  H344     1.0000 0.61953  0.48811  0.23313  Biso   1.000  H
  H345     1.0000 0.30154  0.40024  0.98554  Biso   1.000  H
  H346     1.0000 0.04129  0.71335  0.57969  Biso   1.000  H
  H347     1.0000 0.12447  0.46753  0.27708  Biso   1.000  H
  H348     1.0000 0.81166  0.39260  0.49782  Biso   1.000  H
  H349     1.0000 0.03706  0.75264  0.08330  Biso   1.000  H
  H350     1.0000 0.12201  0.98716  0.77671  Biso   1.000  H
  H351     1.0000 0.79251  0.06149  0.00774  Biso   1.000  H
  H352     1.0000 0.54875  0.75536  0.42202  Biso   1.000  H
  H353     1.0000 0.61409  0.99095  0.73408  Biso   1.000  H
  H354     1.0000 0.30189  0.08915  0.50706  Biso   1.000  H
  H355     1.0000 0.49923  0.25212  0.09509  Biso   1.000  H
  H356     1.0000 0.43857  0.46841  0.77318  Biso   1.000  H
  H357     1.0000 0.76114  0.56121  0.00639  Biso   1.000  H
  H358     1.0000 0.06120  0.24663  0.42225  Biso   1.000  H
  H359     1.0000 0.93696  0.49385  0.72968  Biso   1.000  H
  H360     1.0000 0.25931  0.58107  0.50566  Biso   1.000  H
  H361     1.0000 0.02882  0.70603  0.39964  Biso   1.000  H
  H362     1.0000 0.42952  0.97708  0.73518  Biso   1.000  H
  H363     1.0000 0.75234  0.38060  0.98708  Biso   1.000  H
  H364     1.0000 0.53253  0.71261  0.09486  Biso   1.000  H
  H365     1.0000 0.93859  0.00469  0.77828  Biso   1.000  H
  H366     1.0000 0.26715  0.40282  0.51603  Biso   1.000  H
  H367     1.0000 0.52421  0.21077  0.41663  Biso   1.000  H
  H368     1.0000 0.11589  0.47720  0.73471  Biso   1.000  H
  H369     1.0000 0.80211  0.88315  0.00288  Biso   1.000  H
  H370     1.0000 0.02881  0.20814  0.09967  Biso   1.000  H
  H371     1.0000 0.61710  0.49770  0.77946  Biso   1.000  H
  H372     1.0000 0.29814  0.89719  0.50026  Biso   1.000  H
  H373     1.0000 0.02934  0.25936  0.59820  Biso   1.000  H
  H374     1.0000 0.62419  0.97947  0.27503  Biso   1.000  H
  H375     1.0000 0.30189  0.57764  0.01056  Biso   1.000  H
  H376     1.0000 0.53824  0.25520  0.91923  Biso   1.000  H
  H377     1.0000 0.12563  0.96024  0.23546  Biso   1.000  H
  H378     1.0000 0.80426  0.57009  0.47578  Biso   1.000  H
  H379     1.0000 0.51188  0.75511  0.59461  Biso   1.000  H
  H380     1.0000 0.94625  0.48330  0.26665  Biso   1.000  H
  H381     1.0000 0.25885  0.08344  0.00241  Biso   1.000  H
  H382     1.0000 0.02904  0.75438  0.89899  Biso   1.000  H
  H383     1.0000 0.43703  0.47449  0.23001  Biso   1.000  H
  H384     1.0000 0.76970  0.06834  0.51499  Biso   1.000  H
  H385     1.0000 0.25988  0.46387  0.33403  Biso   1.000  H
  H386     1.0000 0.31835  0.16921  0.46917  Biso   1.000  H
  H387     1.0000 0.48258  0.30683  0.23350  Biso   1.000  H
  H388     1.0000 0.70260  0.45331  0.23046  Biso   1.000  H
  H389     1.0000 0.84097  0.18515  0.05758  Biso   1.000  H
  H390     1.0000 0.01556  0.23887  0.34241  Biso   1.000  H
  H391     1.0000 0.31326  0.94606  0.33459  Biso   1.000  H
  H392     1.0000 0.20418  0.71100  0.46808  Biso   1.000  H
  H393     1.0000 0.00282  0.75178  0.16928  Biso   1.000  H
  H394     1.0000 0.80078  0.96676  0.18128  Biso   1.000  H
  H395     1.0000 0.75867  0.64773  0.03584  Biso   1.000  H
  H396     1.0000 0.56877  0.80790  0.28443  Biso   1.000  H
  H397     1.0000 0.79267  0.50392  0.67452  Biso   1.000  H
  H398     1.0000 0.76225  0.79969  0.52090  Biso   1.000  H
  H399     1.0000 0.54700  0.65740  0.77811  Biso   1.000  H
  H400     1.0000 0.31369  0.53383  0.81473  Biso   1.000  H
  H401     1.0000 0.26821  0.81764  0.97984  Biso   1.000  H
  H402     1.0000 0.06650  0.66174  0.71323  Biso   1.000  H
  H403     1.0000 0.74350  0.94685  0.68589  Biso   1.000  H
  H404     1.0000 0.81114  0.31036  0.53214  Biso   1.000  H
  H405     1.0000 0.97947  0.21657  0.83405  Biso   1.000  H
  H406     1.0000 0.26301  0.99134  0.83537  Biso   1.000  H
  H407     1.0000 0.30490  0.31023  0.95573  Biso   1.000  H
  H408     1.0000 0.50226  0.16285  0.72753  Biso   1.000  H
  H409     1.0000 0.30278  0.45744  0.17646  Biso   1.000  H
  H410     1.0000 0.21501  0.27048  0.47712  Biso   1.000  H
  H411     1.0000 0.48720  0.20164  0.33101  Biso   1.000  H
  H412     1.0000 0.85877  0.44097  0.26564  Biso   1.000  H
  H413     1.0000 0.69034  0.23910  0.99599  Biso   1.000  H
  H414     1.0000 0.99156  0.19815  0.18796  Biso   1.000  H
  H415     1.0000 0.22399  0.92893  0.22049  Biso   1.000  H
  H416     1.0000 0.34951  0.76555  0.45808  Biso   1.000  H
  H417     1.0000 0.02567  0.64258  0.26087  Biso   1.000  H
  H418     1.0000 0.76697  0.95729  0.33352  Biso   1.000  H
  H419     1.0000 0.86502  0.74921  0.02813  Biso   1.000  H
  H420     1.0000 0.50343  0.65271  0.23379  Biso   1.000  H
  H421     1.0000 0.75774  0.49242  0.82674  Biso   1.000  H
  H422     1.0000 0.79969  0.65274  0.50967  Biso   1.000  H
  H423     1.0000 0.53677  0.75458  0.68066  Biso   1.000  H
  H424     1.0000 0.20062  0.51400  0.72997  Biso   1.000  H
  H425     1.0000 0.36138  0.70674  0.98088  Biso   1.000  H
  H426     1.0000 0.06186  0.76302  0.81645  Biso   1.000  H
  H427     1.0000 0.80283  0.01691  0.83218  Biso   1.000  H
  H428     1.0000 0.76475  0.15871  0.54162  Biso   1.000  H
  H429     1.0000 0.05492  0.31267  0.72878  Biso   1.000  H
  H430     1.0000 0.35040  0.93129  0.72150  Biso   1.000  H
  H431     1.0000 0.19625  0.21078  0.96961  Biso   1.000  H
  H432     1.0000 0.51028  0.25420  0.83151  Biso   1.000  H
  H433     1.0000 0.29676  0.00035  0.68524  Biso   1.000  H
  H434     1.0000 0.74790  0.30181  0.04066  Biso   1.000  H
  H435     1.0000 0.07365  0.70276  0.31622  Biso   1.000  H
  H436     1.0000 0.85977  0.96884  0.77431  Biso   1.000  H
  H437     1.0000 0.26076  0.30851  0.55420  Biso   1.000  H
  H438     1.0000 0.56205  0.71084  0.18000  Biso   1.000  H
  H439     1.0000 0.25156  0.44904  0.68295  Biso   1.000  H
  H440     1.0000 0.80445  0.80363  0.97376  Biso   1.000  H
  H441     1.0000 0.56318  0.16481  0.28535  Biso   1.000  H
  H442     1.0000 0.68988  0.44623  0.77350  Biso   1.000  H
  H443     1.0000 0.30612  0.81010  0.53350  Biso   1.000  H
  H444     1.0000 0.06174  0.14918  0.23552  Biso   1.000  H
  H445     1.0000 0.71329  0.02195  0.28326  Biso   1.000  H
  H446     1.0000 0.31165  0.66606  0.05156  Biso   1.000  H
  H447     1.0000 0.99383  0.25851  0.68598  Biso   1.000  H
  H448     1.0000 0.25800  0.00848  0.18424  Biso   1.000  H
  H449     1.0000 0.85718  0.70802  0.45057  Biso   1.000  H
  H450     1.0000 0.56611  0.31135  0.78548  Biso   1.000  H
  H451     1.0000 0.81214  0.49426  0.32874  Biso   1.000  H
  H452     1.0000 0.24197  0.17278  0.04489  Biso   1.000  H
  H453     1.0000 0.48313  0.80971  0.73857  Biso   1.000  H
  H454     1.0000 0.35850  0.51226  0.22790  Biso   1.000  H
  H455     1.0000 0.72069  0.19614  0.46892  Biso   1.000  H
  H456     1.0000 0.00083  0.81424  0.76323  Biso   1.000  H
  H457     1.0000 0.69747  0.75428  0.46243  Biso   1.000  H
  H458     1.0000 0.48163  0.69983  0.83380  Biso   1.000  H
  H459     1.0000 0.85321  0.44934  0.72699  Biso   1.000  H
  H460     1.0000 0.20387  0.76025  0.02194  Biso   1.000  H
  H461     1.0000 0.00357  0.71017  0.66185  Biso   1.000  H
  H462     1.0000 0.35060  0.44960  0.78808  Biso   1.000  H
  H463     1.0000 0.86688  0.25591  0.47615  Biso   1.000  H
  H464     1.0000 0.04921  0.16137  0.79105  Biso   1.000  H
  H465     1.0000 0.70369  0.02164  0.72632  Biso   1.000  H
  H466     1.0000 0.35074  0.26717  0.02593  Biso   1.000  H
  H467     1.0000 0.57759  0.21035  0.68370  Biso   1.000  H
  H468     1.0000 0.19606  0.94399  0.78582  Biso   1.000  H
  H469     1.0000 0.36977  0.21770  0.53666  Biso   1.000  H
  H470     1.0000 0.54092  0.25529  0.17691  Biso   1.000  H
  H471     1.0000 0.20216  0.51329  0.27799  Biso   1.000  H
  H472     1.0000 0.79707  0.15412  0.97954  Biso   1.000  H
  H473     1.0000 0.05424  0.30266  0.27485  Biso   1.000  H
  H474     1.0000 0.76132  0.50354  0.17236  Biso   1.000  H
  H475     1.0000 0.25076  0.66405  0.53886  Biso   1.000  H
  H476     1.0000 0.07193  0.80168  0.21178  Biso   1.000  H
  H477     1.0000 0.36524  0.00875  0.27634  Biso   1.000  H
  H478     1.0000 0.71953  0.69196  0.95860  Biso   1.000  H
  H479     1.0000 0.51298  0.75539  0.33972  Biso   1.000  H
  H480     1.0000 0.86564  0.02156  0.22702  Biso   1.000  H
  N1       1.0000 0.71820  0.15466  0.50930  Biso   1.000  N
  N2       1.0000 0.53426  0.65828  0.18138  Biso   1.000  N
  N3       1.0000 0.20370  0.48089  0.68257  Biso   1.000  N
  N4       1.0000 0.19903  0.16550  0.00623  Biso   1.000  N
  N5       1.0000 0.04319  0.65119  0.31527  Biso   1.000  N
  N6       1.0000 0.70211  0.47118  0.82691  Biso   1.000  N
  N7       1.0000 0.85254  0.65762  0.48439  Biso   1.000  N
  N8       1.0000 0.02755  0.15202  0.18756  Biso   1.000  N
  N9       1.0000 0.34612  0.97058  0.67830  Biso   1.000  N
  N10      1.0000 0.35768  0.66356  0.01596  Biso   1.000  N
  N11      1.0000 0.53002  0.15824  0.33015  Biso   1.000  N
  N12      1.0000 0.85305  0.98652  0.82959  Biso   1.000  N
  N13      1.0000 0.35081  0.81289  0.49688  Biso   1.000  N
  N14      1.0000 0.53687  0.30499  0.83215  Biso   1.000  N
  N15      1.0000 0.86116  0.46915  0.31927  Biso   1.000  N
  N16      1.0000 0.85885  0.79878  0.99845  Biso   1.000  N
  N17      1.0000 0.02420  0.31050  0.68419  Biso   1.000  N
  N18      1.0000 0.35005  0.48461  0.17773  Biso   1.000  N
  N19      1.0000 0.21534  0.31146  0.52083  Biso   1.000  N
  N20      1.0000 0.02860  0.81097  0.81715  Biso   1.000  N
  N21      1.0000 0.71413  0.98860  0.33029  Biso   1.000  N
  N22      1.0000 0.69837  0.29482  0.01424  Biso   1.000  N
  N23      1.0000 0.51277  0.80775  0.68566  Biso   1.000  N
  N24      1.0000 0.21277  0.97044  0.18200  Biso   1.000  N
  N25      1.0000 0.84873  0.48039  0.67782  Biso   1.000  N
  N26      1.0000 0.70482  0.79993  0.49632  Biso   1.000  N
  N27      1.0000 0.51906  0.65787  0.83102  Biso   1.000  N
  N28      1.0000 0.35518  0.49408  0.82633  Biso   1.000  N
  N29      1.0000 0.21426  0.81221  0.99991  Biso   1.000  N
  N30      1.0000 0.03736  0.66286  0.66585  Biso   1.000  N
  N31      1.0000 0.69945  0.98360  0.68351  Biso   1.000  N
  N32      1.0000 0.86291  0.30812  0.50502  Biso   1.000  N
  N33      1.0000 0.01179  0.16384  0.83421  Biso   1.000  N
  N34      1.0000 0.20638  0.97403  0.83128  Biso   1.000  N
  N35      1.0000 0.35066  0.31088  0.99087  Biso   1.000  N
  N36      1.0000 0.54209  0.15903  0.68155  Biso   1.000  N
  N37      1.0000 0.20876  0.48807  0.32870  Biso   1.000  N
  N38      1.0000 0.36417  0.16686  0.50687  Biso   1.000  N
  N39      1.0000 0.51388  0.30343  0.18195  Biso   1.000  N
  N40      1.0000 0.70651  0.48089  0.17983  Biso   1.000  N
  N41      1.0000 0.84347  0.14867  0.01624  Biso   1.000  N
  N42      1.0000 0.03973  0.29369  0.33478  Biso   1.000  N
  N43      1.0000 0.36159  0.97972  0.33108  Biso   1.000  N
  N44      1.0000 0.20313  0.66515  0.50015  Biso   1.000  N
  N45      1.0000 0.03169  0.80064  0.17115  Biso   1.000  N
  N46      1.0000 0.85662  0.98875  0.17851  Biso   1.000  N
  N47      1.0000 0.71256  0.64909  0.99665  Biso   1.000  N
  N48      1.0000 0.54448  0.80695  0.33349  Biso   1.000  N
  O1       1.0000 0.37452  0.52761  0.01323  Biso   1.000  O
  O2       1.0000 0.02980  0.33112  0.54953  Biso   1.000  O
  O3       1.0000 0.58034  0.98835  0.34981  Biso   1.000  O
  O4       1.0000 0.87927  0.52854  0.49356  Biso   1.000  O
  O5       1.0000 0.54293  0.32269  0.96784  Biso   1.000  O
  O6       1.0000 0.07757  0.97251  0.16336  Biso   1.000  O
  O7       1.0000 0.18723  0.03104  0.00757  Biso   1.000  O
  O8       1.0000 0.52469  0.82840  0.54708  Biso   1.000  O
  O9       1.0000 0.99362  0.48004  0.34089  Biso   1.000  O
  O10      1.0000 0.69468  0.02229  0.50877  Biso   1.000  O
  O11      1.0000 0.03486  0.82544  0.95081  Biso   1.000  O
  O12      1.0000 0.48430  0.48179  0.15584  Biso   1.000  O
  O13      1.0000 0.68176  0.42833  0.00070  Biso   1.000  O
  O14      1.0000 0.01992  0.63718  0.44849  Biso   1.000  O
  O15      1.0000 0.47818  0.98701  0.66237  Biso   1.000  O
  O16      1.0000 0.19035  0.44552  0.51010  Biso   1.000  O
  O17      1.0000 0.53812  0.63960  0.04821  Biso   1.000  O
  O18      1.0000 0.98772  0.98717  0.85022  Biso   1.000  O
  O19      1.0000 0.87256  0.93375  0.00520  Biso   1.000  O
  O20      1.0000 0.53863  0.13793  0.46524  Biso   1.000  O
  O21      1.0000 0.06855  0.48070  0.66058  Biso   1.000  O
  O22      1.0000 0.37097  0.94773  0.50082  Biso   1.000  O
  O23      1.0000 0.02213  0.13767  0.05144  Biso   1.000  O
  O24      1.0000 0.56865  0.48931  0.84905  Biso   1.000  O
  O25      1.0000 0.99501  0.98125  0.15659  Biso   1.000  O
  O26      1.0000 0.19073  0.94718  0.00171  Biso   1.000  O
  O27      1.0000 0.01966  0.13939  0.96730  Biso   1.000  O
  O28      1.0000 0.49803  0.98162  0.35695  Biso   1.000  O
  O29      1.0000 0.68866  0.93858  0.50324  Biso   1.000  O
  O30      1.0000 0.54243  0.13693  0.54810  Biso   1.000  O
  O31      1.0000 0.57016  0.48577  0.15993  Biso   1.000  O
  O32      1.0000 0.37510  0.44804  0.99135  Biso   1.000  O
  O33      1.0000 0.53132  0.64050  0.96428  Biso   1.000  O
  O34      1.0000 0.07451  0.47156  0.34691  Biso   1.000  O
  O35      1.0000 0.88216  0.44423  0.50592  Biso   1.000  O
  O36      1.0000 0.02978  0.63938  0.53412  Biso   1.000  O
  O37      1.0000 0.07146  0.97998  0.84935  Biso   1.000  O
  O38      1.0000 0.86978  0.01721  0.00830  Biso   1.000  O
  O39      1.0000 0.03495  0.82636  0.03441  Biso   1.000  O
  O40      1.0000 0.56382  0.97980  0.66593  Biso   1.000  O
  O41      1.0000 0.37354  0.03225  0.50918  Biso   1.000  O
  O42      1.0000 0.53769  0.82900  0.46654  Biso   1.000  O
  O43      1.0000 0.48590  0.47221  0.84838  Biso   1.000  O
  O44      1.0000 0.68585  0.51325  0.00269  Biso   1.000  O
  O45      1.0000 0.51640  0.31935  0.04640  Biso   1.000  O
  O46      1.0000 0.98485  0.49695  0.65791  Biso   1.000  O
  O47      1.0000 0.18645  0.53005  0.50075  Biso   1.000  O
  O48      1.0000 0.04596  0.32188  0.46848  Biso   1.000  O
  O49      1.0000 0.03112  0.93637  0.15872  Biso   1.000  O
  O50      1.0000 0.18845  0.99187  0.96349  Biso   1.000  O
  O51      1.0000 0.97994  0.13755  0.00822  Biso   1.000  O
  O52      1.0000 0.54460  0.94271  0.35172  Biso   1.000  O
  O53      1.0000 0.68791  0.97557  0.54814  Biso   1.000  O
  O54      1.0000 0.49684  0.13529  0.50897  Biso   1.000  O
  O55      1.0000 0.52595  0.43902  0.15794  Biso   1.000  O
  O56      1.0000 0.37235  0.49903  0.95911  Biso   1.000  O
  O57      1.0000 0.57599  0.63678  0.99969  Biso   1.000  O
  O58      1.0000 0.03234  0.43287  0.35011  Biso   1.000  O
  O59      1.0000 0.87759  0.49078  0.54142  Biso   1.000  O
  O60      1.0000 0.06976  0.63770  0.48097  Biso   1.000  O
  O61      1.0000 0.03756  0.02723  0.85218  Biso   1.000  O
  O62      1.0000 0.86791  0.97212  0.04750  Biso   1.000  O
  O63      1.0000 0.07784  0.82662  0.99470  Biso   1.000  O
  O64      1.0000 0.53012  0.02486  0.66126  Biso   1.000  O
  O65      1.0000 0.37176  0.99266  0.46599  Biso   1.000  O
  O66      1.0000 0.57235  0.82472  0.51280  Biso   1.000  O
  O67      1.0000 0.51792  0.52190  0.84971  Biso   1.000  O
  O68      1.0000 0.68556  0.47100  0.04608  Biso   1.000  O
  O69      1.0000 0.48812  0.32754  0.99741  Biso   1.000  O
  O70      1.0000 0.03362  0.52877  0.65567  Biso   1.000  O
  O71      1.0000 0.18903  0.48725  0.46587  Biso   1.000  O
  O72      1.0000 0.99815  0.32772  0.50386  Biso   1.000  O
  O73      1.0000 0.01683  0.44703  0.66345  Biso   1.000  O
  O74      1.0000 0.69312  0.98852  0.46562  Biso   1.000  O
  O75      1.0000 0.49028  0.64106  0.00537  Biso   1.000  O
  O76      1.0000 0.53385  0.43914  0.85047  Biso   1.000  O
  O77      1.0000 0.19030  0.98499  0.04666  Biso   1.000  O
  O78      1.0000 0.98467  0.64239  0.49548  Biso   1.000  O
  O79      1.0000 0.51463  0.94099  0.66181  Biso   1.000  O
  O80      1.0000 0.88128  0.48044  0.45672  Biso   1.000  O
  O81      1.0000 0.06382  0.13766  0.00855  Biso   1.000  O
  O82      1.0000 0.02587  0.94361  0.84948  Biso   1.000  O
  O83      1.0000 0.36995  0.47867  0.03954  Biso   1.000  O
  O84      1.0000 0.58297  0.13393  0.50433  Biso   1.000  O
  O85      1.0000 0.04324  0.51625  0.34341  Biso   1.000  O
  O86      1.0000 0.36450  0.98637  0.54533  Biso   1.000  O
  O87      1.0000 0.56842  0.31688  0.01992  Biso   1.000  O
  O88      1.0000 0.52815  0.52490  0.16039  Biso   1.000  O
  O89      1.0000 0.87243  0.97612  0.96522  Biso   1.000  O
  O90      1.0000 0.08027  0.32954  0.51901  Biso   1.000  O
  O91      1.0000 0.53344  0.02529  0.35281  Biso   1.000  O
  O92      1.0000 0.18863  0.48931  0.54975  Biso   1.000  O
  O93      1.0000 0.99142  0.82721  0.98778  Biso   1.000  O
  O94      1.0000 0.04066  0.02074  0.16386  Biso   1.000  O
  O95      1.0000 0.68602  0.46773  0.96161  Biso   1.000  O
  O96      1.0000 0.48712  0.83291  0.50032  Biso   1.000  O
  O97      1.0000 0.50086  0.18411  0.50567  Biso   1.000  O
  O98      1.0000 0.53127  0.43851  0.20684  Biso   1.000  O
  O99      1.0000 0.23722  0.49208  0.46474  Biso   1.000  O
  O100     1.0000 0.97656  0.18635  0.01045  Biso   1.000  O
  O101     1.0000 0.03177  0.43024  0.30172  Biso   1.000  O
  O102     1.0000 0.73591  0.47564  0.04566  Biso   1.000  O
  O103     1.0000 0.06715  0.68559  0.48766  Biso   1.000  O
  O104     1.0000 0.02902  0.93267  0.20689  Biso   1.000  O
  O105     1.0000 0.32299  0.99012  0.46122  Biso   1.000  O
  O106     1.0000 0.57990  0.68593  0.00034  Biso   1.000  O
  O107     1.0000 0.54209  0.93996  0.30269  Biso   1.000  O
  O108     1.0000 0.81930  0.97364  0.04708  Biso   1.000  O
  O109     1.0000 0.57148  0.77591  0.51672  Biso   1.000  O
  O110     1.0000 0.52100  0.52263  0.80122  Biso   1.000  O
  O111     1.0000 0.82765  0.48418  0.54161  Biso   1.000  O
  O112     1.0000 0.07859  0.77992  0.99319  Biso   1.000  O
  O113     1.0000 0.02591  0.53336  0.70318  Biso   1.000  O
  O114     1.0000 0.32369  0.49549  0.95904  Biso   1.000  O
  O115     1.0000 0.99859  0.27857  0.50090  Biso   1.000  O
  O116     1.0000 0.03693  0.02989  0.80341  Biso   1.000  O
  O117     1.0000 0.73646  0.97239  0.54983  Biso   1.000  O
  O118     1.0000 0.48503  0.27837  0.99914  Biso   1.000  O
  O119     1.0000 0.52563  0.02635  0.71119  Biso   1.000  O
  O120     1.0000 0.23832  0.98917  0.96448  Biso   1.000  O
  O121     1.0000 0.06662  0.49070  0.70824  Biso   1.000  O
  O122     1.0000 0.74292  0.02028  0.51390  Biso   1.000  O
  O123     1.0000 0.54236  0.68962  0.04783  Biso   1.000  O
  O124     1.0000 0.56969  0.48541  0.79998  Biso   1.000  O
  O125     1.0000 0.23638  0.03343  0.00843  Biso   1.000  O
  O126     1.0000 0.02172  0.68644  0.44812  Biso   1.000  O
  O127     1.0000 0.48037  0.99036  0.71068  Biso   1.000  O
  O128     1.0000 0.82908  0.52302  0.49320  Biso   1.000  O
  O129     1.0000 0.01981  0.18641  0.05269  Biso   1.000  O
  O130     1.0000 0.98916  0.99669  0.80383  Biso   1.000  O
  O131     1.0000 0.32646  0.52823  0.00657  Biso   1.000  O
  O132     1.0000 0.54091  0.18719  0.46363  Biso   1.000  O
  O133     1.0000 0.99519  0.47811  0.29209  Biso   1.000  O
  O134     1.0000 0.32213  0.94903  0.49871  Biso   1.000  O
  O135     1.0000 0.53602  0.27467  0.96851  Biso   1.000  O
  O136     1.0000 0.48843  0.47694  0.20538  Biso   1.000  O
  O137     1.0000 0.82396  0.92861  0.00017  Biso   1.000  O
  O138     1.0000 0.02982  0.28238  0.55092  Biso   1.000  O
  O139     1.0000 0.57744  0.98431  0.30071  Biso   1.000  O
  O140     1.0000 0.23993  0.44807  0.50551  Biso   1.000  O
  O141     1.0000 0.03677  0.77577  0.95003  Biso   1.000  O
  O142     1.0000 0.07485  0.96875  0.21182  Biso   1.000  O
  O143     1.0000 0.73144  0.42787  0.00449  Biso   1.000  O
  O144     1.0000 0.51719  0.78141  0.55081  Biso   1.000  O
  O145     1.0000 0.57013  0.48221  0.20786  Biso   1.000  O
  O146     1.0000 0.23320  0.53107  0.50829  Biso   1.000  O
  O147     1.0000 0.54332  0.18550  0.54733  Biso   1.000  O
  O148     1.0000 0.07667  0.46485  0.29793  Biso   1.000  O
  O149     1.0000 0.73397  0.51230  0.99965  Biso   1.000  O
  O150     1.0000 0.02035  0.18850  0.96834  Biso   1.000  O
  O151     1.0000 0.99140  0.97625  0.20488  Biso   1.000  O
  O152     1.0000 0.32406  0.03199  0.50101  Biso   1.000  O
  O153     1.0000 0.03676  0.68734  0.53186  Biso   1.000  O
  O154     1.0000 0.49734  0.97745  0.30750  Biso   1.000  O
  O155     1.0000 0.81983  0.01317  0.00730  Biso   1.000  O
  O156     1.0000 0.53652  0.69001  0.96334  Biso   1.000  O
  O157     1.0000 0.48504  0.46840  0.80008  Biso   1.000  O
  O158     1.0000 0.83268  0.43965  0.50313  Biso   1.000  O
  O159     1.0000 0.53708  0.77935  0.46953  Biso   1.000  O
  O160     1.0000 0.98231  0.49214  0.70815  Biso   1.000  O
  O161     1.0000 0.32605  0.44561  0.99041  Biso   1.000  O
  O162     1.0000 0.03659  0.77943  0.03524  Biso   1.000  O
  O163     1.0000 0.07300  0.98333  0.80002  Biso   1.000  O
  O164     1.0000 0.73674  0.93659  0.49874  Biso   1.000  O
  O165     1.0000 0.04821  0.27301  0.47019  Biso   1.000  O
  O166     1.0000 0.56522  0.98062  0.71416  Biso   1.000  O
  O167     1.0000 0.23957  0.94747  0.00749  Biso   1.000  O
  O168     1.0000 0.51501  0.27206  0.04736  Biso   1.000  O
  O169     1.0000 0.03409  0.01428  0.21074  Biso   1.000  O
  O170     1.0000 0.23991  0.98736  0.04817  Biso   1.000  O
  O171     1.0000 0.06221  0.18815  0.01067  Biso   1.000  O
  O172     1.0000 0.53844  0.02366  0.30466  Biso   1.000  O
  O173     1.0000 0.74127  0.98415  0.46564  Biso   1.000  O
  O174     1.0000 0.58355  0.18154  0.50319  Biso   1.000  O
  O175     1.0000 0.52606  0.52339  0.20880  Biso   1.000  O
  O176     1.0000 0.32068  0.47572  0.03995  Biso   1.000  O
  O177     1.0000 0.49147  0.69027  0.00493  Biso   1.000  O
  O178     1.0000 0.04739  0.51289  0.29530  Biso   1.000  O
  O179     1.0000 0.83236  0.47493  0.45788  Biso   1.000  O
  O180     1.0000 0.98701  0.69168  0.49782  Biso   1.000  O
  O181     1.0000 0.02580  0.94922  0.80019  Biso   1.000  O
  O182     1.0000 0.82343  0.97726  0.96528  Biso   1.000  O
  O183     1.0000 0.99383  0.77818  0.99800  Biso   1.000  O
  O184     1.0000 0.51761  0.94376  0.71100  Biso   1.000  O
  O185     1.0000 0.31667  0.98507  0.54438  Biso   1.000  O
  O186     1.0000 0.48602  0.78393  0.50134  Biso   1.000  O
  O187     1.0000 0.53504  0.43911  0.80123  Biso   1.000  O
  O188     1.0000 0.73365  0.46557  0.96033  Biso   1.000  O
  O189     1.0000 0.56296  0.26860  0.02116  Biso   1.000  O
  O190     1.0000 0.02343  0.44840  0.71111  Biso   1.000  O
  O191     1.0000 0.23721  0.49085  0.55102  Biso   1.000  O
  O192     1.0000 0.08083  0.28028  0.52009  Biso   1.000  O
