data_image0
_cell_length_a       46.5833
_cell_length_b       46.7227
_cell_length_c       46.4146
_cell_angle_alpha    90
_cell_angle_beta     90
_cell_angle_gamma    90

_symmetry_space_group_name_H-M    "P 1"
_symmetry_int_tables_number       1

loop_
  _symmetry_equiv_pos_as_xyz
  'x, y, z'

loop_
  _atom_site_label
  _atom_site_occupancy
  _atom_site_fract_x
  _atom_site_fract_y
  _atom_site_fract_z
  _atom_site_thermal_displace_type
  _atom_site_B_iso_or_equiv
  _atom_site_type_symbol
  C1       1.0000 0.55746  0.99496  0.33920  Biso   1.000  C
  C2       1.0000 0.34218  0.56372  0.02546  Biso   1.000  C
  C3       1.0000 0.01973  0.31770  0.57268  Biso   1.000  C
  C4       1.0000 0.05019  0.00578  0.20397  Biso   1.000  C
  C5       1.0000 0.84091  0.54752  0.51689  Biso   1.000  C
  C6       1.0000 0.49929  0.31685  0.96270  Biso   1.000  C
  C7       1.0000 0.96313  0.50291  0.33842  Biso   1.000  C
  C8       1.0000 0.19432  0.06030  0.03614  Biso   1.000  C
  C9       1.0000 0.51519  0.81396  0.57944  Biso   1.000  C
  C10      1.0000 0.46521  0.50126  0.20427  Biso   1.000  C
  C11      1.0000 0.69769  0.04780  0.50623  Biso   1.000  C
  C12      1.0000 0.03589  0.81535  0.95907  Biso   1.000  C
  C13      1.0000 0.47317  0.99716  0.70821  Biso   1.000  C
  C14      1.0000 0.69786  0.42905  0.01925  Biso   1.000  C
  C15      1.0000 0.02216  0.68026  0.46364  Biso   1.000  C
  C16      1.0000 0.96994  0.99215  0.83296  Biso   1.000  C
  C17      1.0000 0.20170  0.44311  0.51759  Biso   1.000  C
  C18      1.0000 0.53141  0.67160  0.07692  Biso   1.000  C
  C19      1.0000 0.06522  0.49080  0.70318  Biso   1.000  C
  C20      1.0000 0.83665  0.92963  0.01163  Biso   1.000  C
  C21      1.0000 0.52519  0.16931  0.46739  Biso   1.000  C
  C22      1.0000 0.56955  0.49962  0.84018  Biso   1.000  C
  C23      1.0000 0.33831  0.94509  0.52431  Biso   1.000  C
  C24      1.0000 0.00926  0.17209  0.07331  Biso   1.000  C
  C25      1.0000 0.33272  0.05221  0.53537  Biso   1.000  C
  C26      1.0000 0.51439  0.31544  0.07311  Biso   1.000  C
  C27      1.0000 0.07257  0.49832  0.33790  Biso   1.000  C
  C28      1.0000 0.83512  0.03709  0.00224  Biso   1.000  C
  C29      1.0000 0.01195  0.31777  0.46559  Biso   1.000  C
  C30      1.0000 0.57152  0.49422  0.20301  Biso   1.000  C
  C31      1.0000 0.19909  0.54965  0.52775  Biso   1.000  C
  C32      1.0000 0.01479  0.81192  0.06714  Biso   1.000  C
  C33      1.0000 0.45009  0.00514  0.34248  Biso   1.000  C
  C34      1.0000 0.70032  0.53635  0.02894  Biso   1.000  C
  C35      1.0000 0.52107  0.81819  0.47002  Biso   1.000  C
  C36      1.0000 0.94560  0.99119  0.20006  Biso   1.000  C
  C37      1.0000 0.69932  0.93871  0.51069  Biso   1.000  C
  C38      1.0000 0.52192  0.67753  0.96736  Biso   1.000  C
  C39      1.0000 0.95885  0.49990  0.70733  Biso   1.000  C
  C40      1.0000 0.19994  0.95141  0.02848  Biso   1.000  C
  C41      1.0000 0.02931  0.67487  0.57408  Biso   1.000  C
  C42      1.0000 0.46194  0.48847  0.83998  Biso   1.000  C
  C43      1.0000 0.83373  0.43696  0.52615  Biso   1.000  C
  C44      1.0000 0.01087  0.18153  0.96565  Biso   1.000  C
  C45      1.0000 0.57830  0.98554  0.69965  Biso   1.000  C
  C46      1.0000 0.33277  0.45487  0.02018  Biso   1.000  C
  C47      1.0000 0.50491  0.16436  0.57537  Biso   1.000  C
  C48      1.0000 0.08169  0.00042  0.83912  Biso   1.000  C
  C49      1.0000 0.01891  0.04978  0.83664  Biso   1.000  C
  C50      1.0000 0.83082  0.98913  0.06214  Biso   1.000  C
  C51      1.0000 0.07898  0.81844  0.02511  Biso   1.000  C
  C52      1.0000 0.53095  0.04568  0.70275  Biso   1.000  C
  C53      1.0000 0.33492  0.00404  0.47867  Biso   1.000  C
  C54      1.0000 0.57215  0.81632  0.52905  Biso   1.000  C
  C55      1.0000 0.50740  0.54918  0.84009  Biso   1.000  C
  C56      1.0000 0.69697  0.47857  0.07703  Biso   1.000  C
  C57      1.0000 0.45244  0.31618  0.02372  Biso   1.000  C
  C58      1.0000 0.01643  0.54936  0.70283  Biso   1.000  C
  C59      1.0000 0.20062  0.50160  0.46622  Biso   1.000  C
  C60      1.0000 0.96443  0.31436  0.52407  Biso   1.000  C
  C61      1.0000 0.00302  0.94313  0.19945  Biso   1.000  C
  C62      1.0000 0.19880  0.00831  0.97599  Biso   1.000  C
  C63      1.0000 0.95330  0.17553  0.01866  Biso   1.000  C
  C64      1.0000 0.49885  0.94627  0.34144  Biso   1.000  C
  C65      1.0000 0.70266  0.99537  0.56412  Biso   1.000  C
  C66      1.0000 0.46260  0.16896  0.51265  Biso   1.000  C
  C67      1.0000 0.51400  0.44136  0.19970  Biso   1.000  C
  C68      1.0000 0.33410  0.50861  0.96712  Biso   1.000  C
  C69      1.0000 0.58174  0.67008  0.01552  Biso   1.000  C
  C70      1.0000 0.01532  0.44390  0.33900  Biso   1.000  C
  C71      1.0000 0.83316  0.50318  0.57762  Biso   1.000  C
  C72      1.0000 0.07528  0.67693  0.51373  Biso   1.000  C
  C73      1.0000 0.01908  0.55302  0.33889  Biso   1.000  C
  C74      1.0000 0.34206  0.98831  0.58530  Biso   1.000  C
  C75      1.0000 0.56061  0.31367  0.01315  Biso   1.000  C
  C76      1.0000 0.52003  0.54997  0.20399  Biso   1.000  C
  C77      1.0000 0.84011  0.97853  0.95387  Biso   1.000  C
  C78      1.0000 0.07260  0.31794  0.51472  Biso   1.000  C
  C79      1.0000 0.50541  0.05358  0.33954  Biso   1.000  C
  C80      1.0000 0.19616  0.48794  0.57788  Biso   1.000  C
  C81      1.0000 0.97122  0.81266  0.00309  Biso   1.000  C
  C82      1.0000 0.98868  0.04827  0.20426  Biso   1.000  C
  C83      1.0000 0.70106  0.49662  0.97000  Biso   1.000  C
  C84      1.0000 0.46374  0.81910  0.52067  Biso   1.000  C
  C85      1.0000 0.00614  0.44084  0.70326  Biso   1.000  C
  C86      1.0000 0.69553  0.98965  0.45349  Biso   1.000  C
  C87      1.0000 0.47437  0.68443  0.02842  Biso   1.000  C
  C88      1.0000 0.51952  0.43931  0.83135  Biso   1.000  C
  C89      1.0000 0.18616  0.00455  0.08697  Biso   1.000  C
  C90      1.0000 0.96852  0.67722  0.51535  Biso   1.000  C
  C91      1.0000 0.51730  0.93853  0.70496  Biso   1.000  C
  C92      1.0000 0.83894  0.48501  0.46895  Biso   1.000  C
  C93      1.0000 0.06012  0.17941  0.02207  Biso   1.000  C
  C94      1.0000 0.03057  0.94226  0.83370  Biso   1.000  C
  C95      1.0000 0.33925  0.50834  0.07588  Biso   1.000  C
  C96      1.0000 0.57059  0.17045  0.52553  Biso   1.000  C
  C97      1.0000 0.69831  0.07873  0.50324  Biso   1.000  C
  C98      1.0000 0.52746  0.67407  0.10989  Biso   1.000  C
  C99      1.0000 0.09812  0.48737  0.70382  Biso   1.000  C
  C100     1.0000 0.19221  0.09252  0.03670  Biso   1.000  C
  C101     1.0000 0.02605  0.68110  0.43187  Biso   1.000  C
  C102     1.0000 0.60085  0.49978  0.84106  Biso   1.000  C
  C103     1.0000 0.84179  0.57934  0.51828  Biso   1.000  C
  C104     1.0000 0.01155  0.17277  0.10608  Biso   1.000  C
  C105     1.0000 0.44285  0.98976  0.71131  Biso   1.000  C
  C106     1.0000 0.34430  0.59550  0.02591  Biso   1.000  C
  C107     1.0000 0.53167  0.17247  0.43617  Biso   1.000  C
  C108     1.0000 0.93763  0.99387  0.83051  Biso   1.000  C
  C109     1.0000 0.33699  0.91348  0.52314  Biso   1.000  C
  C110     1.0000 0.49808  0.31630  0.92929  Biso   1.000  C
  C111     1.0000 0.93120  0.50426  0.33842  Biso   1.000  C
  C112     1.0000 0.83813  0.89712  0.00649  Biso   1.000  C
  C113     1.0000 0.01756  0.31543  0.60493  Biso   1.000  C
  C114     1.0000 0.43345  0.50799  0.20417  Biso   1.000  C
  C115     1.0000 0.20332  0.41161  0.51747  Biso   1.000  C
  C116     1.0000 0.04102  0.81748  0.92764  Biso   1.000  C
  C117     1.0000 0.58916  0.99608  0.33407  Biso   1.000  C
  C118     1.0000 0.69465  0.39815  0.01478  Biso   1.000  C
  C119     1.0000 0.51225  0.81308  0.61122  Biso   1.000  C
  C120     1.0000 0.08217  0.00649  0.20745  Biso   1.000  C
  C121     1.0000 0.82754  0.99723  0.09367  Biso   1.000  C
  C122     1.0000 0.11050  0.82188  0.03289  Biso   1.000  C
  C123     1.0000 0.01520  0.08171  0.83608  Biso   1.000  C
  C124     1.0000 0.33404  0.00714  0.44737  Biso   1.000  C
  C125     1.0000 0.60357  0.81665  0.53195  Biso   1.000  C
  C126     1.0000 0.53143  0.07682  0.70297  Biso   1.000  C
  C127     1.0000 0.69529  0.47518  0.10918  Biso   1.000  C
  C128     1.0000 0.42105  0.31879  0.02277  Biso   1.000  C
  C129     1.0000 0.50587  0.58168  0.84014  Biso   1.000  C
  C130     1.0000 0.20380  0.50431  0.43421  Biso   1.000  C
  C131     1.0000 0.93226  0.31338  0.52798  Biso   1.000  C
  C132     1.0000 0.02677  0.57996  0.70236  Biso   1.000  C
  C133     1.0000 0.20199  0.00180  0.94438  Biso   1.000  C
  C134     1.0000 0.92174  0.17313  0.01453  Biso   1.000  C
  C135     1.0000 0.00506  0.91064  0.19649  Biso   1.000  C
  C136     1.0000 0.70372  0.99043  0.59738  Biso   1.000  C
  C137     1.0000 0.43122  0.17096  0.50822  Biso   1.000  C
  C138     1.0000 0.49608  0.91399  0.34298  Biso   1.000  C
  C139     1.0000 0.33616  0.50162  0.93489  Biso   1.000  C
  C140     1.0000 0.61286  0.66716  0.01063  Biso   1.000  C
  C141     1.0000 0.50696  0.40985  0.19991  Biso   1.000  C
  C142     1.0000 0.83176  0.50854  0.60911  Biso   1.000  C
  C143     1.0000 0.10646  0.67731  0.51220  Biso   1.000  C
  C144     1.0000 0.01420  0.41158  0.33657  Biso   1.000  C
  C145     1.0000 0.33896  0.51360  0.10805  Biso   1.000  C
  C146     1.0000 0.10548  0.31713  0.51509  Biso   1.000  C
  C147     1.0000 0.50372  0.08559  0.33821  Biso   1.000  C
  C148     1.0000 0.83980  0.48709  0.43780  Biso   1.000  C
  C149     1.0000 0.59201  0.31036  0.01378  Biso   1.000  C
  C150     1.0000 0.99128  0.08112  0.20406  Biso   1.000  C
  C151     1.0000 0.18172  0.00885  0.11855  Biso   1.000  C
  C152     1.0000 0.43107  0.81963  0.51709  Biso   1.000  C
  C153     1.0000 0.01611  0.58413  0.33948  Biso   1.000  C
  C154     1.0000 0.69311  0.98788  0.42083  Biso   1.000  C
  C155     1.0000 0.94002  0.81088  0.99702  Biso   1.000  C
  C156     1.0000 0.52209  0.58169  0.20611  Biso   1.000  C
  C157     1.0000 0.70103  0.50369  0.93900  Biso   1.000  C
  C158     1.0000 0.93629  0.67501  0.51527  Biso   1.000  C
  C159     1.0000 0.51294  0.90743  0.70574  Biso   1.000  C
  C160     1.0000 0.19590  0.48065  0.60939  Biso   1.000  C
  C161     1.0000 0.44215  0.68698  0.02989  Biso   1.000  C
  C162     1.0000 0.03974  0.91154  0.83498  Biso   1.000  C
  C163     1.0000 0.84169  0.97434  0.92218  Biso   1.000  C
  C164     1.0000 0.60339  0.17166  0.52193  Biso   1.000  C
  C165     1.0000 0.00386  0.40978  0.70328  Biso   1.000  C
  C166     1.0000 0.34376  0.98546  0.61699  Biso   1.000  C
  C167     1.0000 0.09255  0.18110  0.02172  Biso   1.000  C
  C168     1.0000 0.51669  0.40730  0.83199  Biso   1.000  C
  C169     1.0000 0.01686  0.81244  0.09848  Biso   1.000  C
  C170     1.0000 0.11261  0.99557  0.84006  Biso   1.000  C
  C171     1.0000 0.83396  0.06965  0.00465  Biso   1.000  C
  C172     1.0000 0.51844  0.81974  0.43732  Biso   1.000  C
  C173     1.0000 0.61107  0.97844  0.69525  Biso   1.000  C
  C174     1.0000 0.33343  0.08456  0.53359  Biso   1.000  C
  C175     1.0000 0.51801  0.31502  0.10521  Biso   1.000  C
  C176     1.0000 0.43113  0.48263  0.84108  Biso   1.000  C
  C177     1.0000 0.70312  0.56815  0.02729  Biso   1.000  C
  C178     1.0000 0.01224  0.31780  0.43298  Biso   1.000  C
  C179     1.0000 0.92671  0.50469  0.70547  Biso   1.000  C
  C180     1.0000 0.19798  0.58169  0.52929  Biso   1.000  C
  C181     1.0000 0.01009  0.18235  0.93270  Biso   1.000  C
  C182     1.0000 0.91384  0.99502  0.19840  Biso   1.000  C
  C183     1.0000 0.20203  0.91912  0.02550  Biso   1.000  C
  C184     1.0000 0.50100  0.16375  0.60657  Biso   1.000  C
  C185     1.0000 0.41785  0.00865  0.34475  Biso   1.000  C
  C186     1.0000 0.70030  0.90609  0.51340  Biso   1.000  C
  C187     1.0000 0.51918  0.67780  0.93613  Biso   1.000  C
  C188     1.0000 0.60244  0.49778  0.20423  Biso   1.000  C
  C189     1.0000 0.33060  0.42335  0.02354  Biso   1.000  C
  C190     1.0000 0.03937  0.67331  0.60643  Biso   1.000  C
  C191     1.0000 0.10472  0.50356  0.33870  Biso   1.000  C
  C192     1.0000 0.83451  0.40533  0.52454  Biso   1.000  C
  C193     1.0000 0.86916  0.97830  0.90707  Biso   1.000  C
  C194     1.0000 0.92168  0.83602  0.99979  Biso   1.000  C
  C195     1.0000 0.04240  0.89724  0.86238  Biso   1.000  C
  C196     1.0000 0.37100  0.98632  0.63329  Biso   1.000  C
  C197     1.0000 0.41624  0.84658  0.51529  Biso   1.000  C
  C198     1.0000 0.51659  0.89152  0.67862  Biso   1.000  C
  C199     1.0000 0.67213  0.50138  0.92424  Biso   1.000  C
  C200     1.0000 0.61013  0.33611  0.01453  Biso   1.000  C
  C201     1.0000 0.51100  0.39303  0.85907  Biso   1.000  C
  C202     1.0000 0.16746  0.48202  0.62465  Biso   1.000  C
  C203     1.0000 0.12219  0.34352  0.51714  Biso   1.000  C
  C204     1.0000 0.00370  0.39259  0.67620  Biso   1.000  C
  C205     1.0000 0.15501  0.00894  0.13225  Biso   1.000  C
  C206     1.0000 0.10947  0.15575  0.02575  Biso   1.000  C
  C207     1.0000 0.99574  0.09557  0.17583  Biso   1.000  C
  C208     1.0000 0.66594  0.99485  0.40730  Biso   1.000  C
  C209     1.0000 0.61898  0.14430  0.51759  Biso   1.000  C
  C210     1.0000 0.51032  0.10255  0.36575  Biso   1.000  C
  C211     1.0000 0.36523  0.51101  0.12445  Biso   1.000  C
  C212     1.0000 0.42447  0.66059  0.02998  Biso   1.000  C
  C213     1.0000 0.52323  0.59884  0.17966  Biso   1.000  C
  C214     1.0000 0.86567  0.49273  0.42136  Biso   1.000  C
  C215     1.0000 0.92066  0.64833  0.51770  Biso   1.000  C
  C216     1.0000 0.01724  0.60158  0.36707  Biso   1.000  C
  C217     1.0000 0.12690  0.99527  0.86894  Biso   1.000  C
  C218     1.0000 0.85978  0.08701  0.00922  Biso   1.000  C
  C219     1.0000 0.01096  0.83957  0.11417  Biso   1.000  C
  C220     1.0000 0.62473  0.98128  0.66750  Biso   1.000  C
  C221     1.0000 0.36048  0.10065  0.52871  Biso   1.000  C
  C222     1.0000 0.51226  0.84714  0.42259  Biso   1.000  C
  C223     1.0000 0.41453  0.48421  0.86744  Biso   1.000  C
  C224     1.0000 0.67776  0.58562  0.02879  Biso   1.000  C
  C225     1.0000 0.51710  0.34269  0.12201  Biso   1.000  C
  C226     1.0000 0.91136  0.50711  0.67902  Biso   1.000  C
  C227     1.0000 0.17120  0.59940  0.52752  Biso   1.000  C
  C228     1.0000 0.01272  0.34478  0.41742  Biso   1.000  C
  C229     1.0000 0.89869  0.99671  0.16960  Biso   1.000  C
  C230     1.0000 0.17656  0.90296  0.02388  Biso   1.000  C
  C231     1.0000 0.01268  0.15559  0.91713  Biso   1.000  C
  C232     1.0000 0.40599  0.00807  0.37343  Biso   1.000  C
  C233     1.0000 0.67292  0.89045  0.51777  Biso   1.000  C
  C234     1.0000 0.50879  0.13827  0.62280  Biso   1.000  C
  C235     1.0000 0.61645  0.49434  0.17618  Biso   1.000  C
  C236     1.0000 0.35740  0.40603  0.02376  Biso   1.000  C
  C237     1.0000 0.51287  0.65153  0.92093  Biso   1.000  C
  C238     1.0000 0.12357  0.50687  0.36647  Biso   1.000  C
  C239     1.0000 0.86238  0.38956  0.52564  Biso   1.000  C
  C240     1.0000 0.03691  0.64658  0.62330  Biso   1.000  C
  C241     1.0000 0.61602  0.49900  0.86893  Biso   1.000  C
  C242     1.0000 0.86928  0.59564  0.51967  Biso   1.000  C
  C243     1.0000 0.51580  0.84074  0.62626  Biso   1.000  C
  C244     1.0000 0.11503  0.48609  0.67683  Biso   1.000  C
  C245     1.0000 0.37228  0.61038  0.02588  Biso   1.000  C
  C246     1.0000 0.04195  0.84470  0.91388  Biso   1.000  C
  C247     1.0000 0.92009  0.99177  0.85706  Biso   1.000  C
  C248     1.0000 0.67015  0.09507  0.50520  Biso   1.000  C
  C249     1.0000 0.01169  0.34134  0.62177  Biso   1.000  C
  C250     1.0000 0.42544  0.98748  0.68340  Biso   1.000  C
  C251     1.0000 0.16382  0.10570  0.03244  Biso   1.000  C
  C252     1.0000 0.50286  0.34302  0.91317  Biso   1.000  C
  C253     1.0000 0.41559  0.50832  0.17669  Biso   1.000  C
  C254     1.0000 0.17714  0.39452  0.51975  Biso   1.000  C
  C255     1.0000 0.52439  0.14897  0.41797  Biso   1.000  C
  C256     1.0000 0.91710  0.50143  0.36676  Biso   1.000  C
  C257     1.0000 0.66749  0.38519  0.01620  Biso   1.000  C
  C258     1.0000 0.00603  0.14735  0.12283  Biso   1.000  C
  C259     1.0000 0.09897  0.00865  0.18069  Biso   1.000  C
  C260     1.0000 0.36297  0.89839  0.51643  Biso   1.000  C
  C261     1.0000 0.02415  0.65407  0.41720  Biso   1.000  C
  C262     1.0000 0.60855  0.99600  0.36002  Biso   1.000  C
  C263     1.0000 0.86639  0.88336  0.00517  Biso   1.000  C
  C264     1.0000 0.52768  0.64825  0.12724  Biso   1.000  C
  C265     1.0000 0.01569  0.09840  0.86252  Biso   1.000  C
  C266     1.0000 0.85303  0.99615  0.11329  Biso   1.000  C
  C267     1.0000 0.12432  0.85000  0.03247  Biso   1.000  C
  C268     1.0000 0.52429  0.09041  0.67500  Biso   1.000  C
  C269     1.0000 0.35900  0.00651  0.42881  Biso   1.000  C
  C270     1.0000 0.62113  0.84180  0.52623  Biso   1.000  C
  C271     1.0000 0.50481  0.59792  0.86699  Biso   1.000  C
  C272     1.0000 0.66856  0.48321  0.12433  Biso   1.000  C
  C273     1.0000 0.40630  0.34633  0.01915  Biso   1.000  C
  C274     1.0000 0.03170  0.59644  0.67548  Biso   1.000  C
  C275     1.0000 0.17626  0.50488  0.41793  Biso   1.000  C
  C276     1.0000 0.91607  0.33868  0.52766  Biso   1.000  C
  C277     1.0000 0.01017  0.89326  0.16956  Biso   1.000  C
  C278     1.0000 0.17651  0.00227  0.92554  Biso   1.000  C
  C279     1.0000 0.90827  0.14352  0.01184  Biso   1.000  C
  C280     1.0000 0.49716  0.89942  0.37041  Biso   1.000  C
  C281     1.0000 0.67590  0.98823  0.61331  Biso   1.000  C
  C282     1.0000 0.41215  0.14618  0.51315  Biso   1.000  C
  C283     1.0000 0.51008  0.39345  0.17296  Biso   1.000  C
  C284     1.0000 0.36268  0.49462  0.91982  Biso   1.000  C
  C285     1.0000 0.62712  0.63869  0.01411  Biso   1.000  C
  C286     1.0000 0.01002  0.39656  0.36456  Biso   1.000  C
  C287     1.0000 0.85942  0.50789  0.62575  Biso   1.000  C
  C288     1.0000 0.12206  0.65114  0.51806  Biso   1.000  C
  C289     1.0000 0.36370  0.86769  0.51811  Biso   1.000  C
  C290     1.0000 0.50575  0.34106  0.88107  Biso   1.000  C
  C291     1.0000 0.88577  0.49892  0.36739  Biso   1.000  C
  C292     1.0000 0.86721  0.85200  0.00508  Biso   1.000  C
  C293     1.0000 0.01027  0.34059  0.65416  Biso   1.000  C
  C294     1.0000 0.38465  0.51178  0.17795  Biso   1.000  C
  C295     1.0000 0.17684  0.36346  0.51685  Biso   1.000  C
  C296     1.0000 0.04470  0.84431  0.88251  Biso   1.000  C
  C297     1.0000 0.63936  0.99814  0.35639  Biso   1.000  C
  C298     1.0000 0.66499  0.35277  0.01468  Biso   1.000  C
  C299     1.0000 0.51425  0.84009  0.65805  Biso   1.000  C
  C300     1.0000 0.13035  0.00971  0.18379  Biso   1.000  C
  C301     1.0000 0.67226  0.12658  0.50820  Biso   1.000  C
  C302     1.0000 0.52795  0.65068  0.15847  Biso   1.000  C
  C303     1.0000 0.14571  0.48205  0.67839  Biso   1.000  C
  C304     1.0000 0.16273  0.13799  0.03252  Biso   1.000  C
  C305     1.0000 0.02430  0.65572  0.38604  Biso   1.000  C
  C306     1.0000 0.64731  0.50254  0.87128  Biso   1.000  C
  C307     1.0000 0.86866  0.62751  0.52130  Biso   1.000  C
  C308     1.0000 0.00525  0.14817  0.15391  Biso   1.000  C
  C309     1.0000 0.39395  0.98525  0.68616  Biso   1.000  C
  C310     1.0000 0.37190  0.64199  0.02640  Biso   1.000  C
  C311     1.0000 0.52267  0.15363  0.38649  Biso   1.000  C
  C312     1.0000 0.88898  0.98461  0.85382  Biso   1.000  C
  C313     1.0000 0.17615  0.50938  0.38646  Biso   1.000  C
  C314     1.0000 0.38135  0.14999  0.51438  Biso   1.000  C
  C315     1.0000 0.51188  0.36283  0.17430  Biso   1.000  C
  C316     1.0000 0.66834  0.48432  0.15556  Biso   1.000  C
  C317     1.0000 0.87725  0.14204  0.01007  Biso   1.000  C
  C318     1.0000 0.01109  0.36601  0.36496  Biso   1.000  C
  C319     1.0000 0.35461  0.01078  0.39758  Biso   1.000  C
  C320     1.0000 0.15388  0.65151  0.52233  Biso   1.000  C
  C321     1.0000 0.00960  0.86133  0.16781  Biso   1.000  C
  C322     1.0000 0.84811  0.99645  0.14377  Biso   1.000  C
  C323     1.0000 0.65818  0.63653  0.01328  Biso   1.000  C
  C324     1.0000 0.50277  0.86836  0.36981  Biso   1.000  C
  C325     1.0000 0.85966  0.51091  0.65698  Biso   1.000  C
  C326     1.0000 0.65283  0.83732  0.52576  Biso   1.000  C
  C327     1.0000 0.50823  0.62874  0.86771  Biso   1.000  C
  C328     1.0000 0.36253  0.48750  0.88931  Biso   1.000  C
  C329     1.0000 0.15694  0.84973  0.03332  Biso   1.000  C
  C330     1.0000 0.03989  0.62594  0.67658  Biso   1.000  C
  C331     1.0000 0.67661  0.97894  0.64366  Biso   1.000  C
  C332     1.0000 0.88410  0.33708  0.52678  Biso   1.000  C
  C333     1.0000 0.01467  0.13121  0.86259  Biso   1.000  C
  C334     1.0000 0.17864  0.99679  0.89405  Biso   1.000  C
  C335     1.0000 0.37502  0.35076  0.02396  Biso   1.000  C
  C336     1.0000 0.52026  0.12278  0.67590  Biso   1.000  C
  C337     1.0000 0.66907  0.50460  0.89296  Biso   1.000  C
  C338     1.0000 0.88958  0.64891  0.51996  Biso   1.000  C
  C339     1.0000 0.51610  0.86058  0.68053  Biso   1.000  C
  C340     1.0000 0.16681  0.48063  0.65642  Biso   1.000  C
  C341     1.0000 0.39413  0.66238  0.02690  Biso   1.000  C
  C342     1.0000 0.04353  0.86602  0.86113  Biso   1.000  C
  C343     1.0000 0.86761  0.97846  0.87529  Biso   1.000  C
  C344     1.0000 0.65080  0.14863  0.51322  Biso   1.000  C
  C345     1.0000 0.00700  0.36154  0.67628  Biso   1.000  C
  C346     1.0000 0.37163  0.98389  0.66443  Biso   1.000  C
  C347     1.0000 0.14086  0.15790  0.02809  Biso   1.000  C
  C348     1.0000 0.51047  0.36115  0.85971  Biso   1.000  C
  C349     1.0000 0.36435  0.51333  0.15608  Biso   1.000  C
  C350     1.0000 0.15374  0.34218  0.51420  Biso   1.000  C
  C351     1.0000 0.51674  0.13384  0.36337  Biso   1.000  C
  C352     1.0000 0.86505  0.49435  0.38932  Biso   1.000  C
  C353     1.0000 0.64110  0.33294  0.01285  Biso   1.000  C
  C354     1.0000 0.00216  0.12697  0.17561  Biso   1.000  C
  C355     1.0000 0.15281  0.00958  0.16446  Biso   1.000  C
  C356     1.0000 0.38492  0.84632  0.51648  Biso   1.000  C
  C357     1.0000 0.02043  0.63263  0.36519  Biso   1.000  C
  C358     1.0000 0.66217  0.99502  0.37591  Biso   1.000  C
  C359     1.0000 0.89016  0.83254  0.00196  Biso   1.000  C
  C360     1.0000 0.52636  0.62990  0.18122  Biso   1.000  C
  C361     1.0000 0.01441  0.15301  0.88501  Biso   1.000  C
  C362     1.0000 0.86710  0.99665  0.16813  Biso   1.000  C
  C363     1.0000 0.17774  0.87137  0.02897  Biso   1.000  C
  C364     1.0000 0.51499  0.14206  0.65431  Biso   1.000  C
  C365     1.0000 0.37434  0.01007  0.37535  Biso   1.000  C
  C366     1.0000 0.67482  0.85801  0.52090  Biso   1.000  C
  C367     1.0000 0.51159  0.65070  0.88840  Biso   1.000  C
  C368     1.0000 0.64783  0.48953  0.17648  Biso   1.000  C
  C369     1.0000 0.35534  0.37424  0.02514  Biso   1.000  C
  C370     1.0000 0.04245  0.64755  0.65468  Biso   1.000  C
  C371     1.0000 0.15435  0.51019  0.36490  Biso   1.000  C
  C372     1.0000 0.86201  0.35817  0.52739  Biso   1.000  C
  C373     1.0000 0.01030  0.84070  0.14548  Biso   1.000  C
  C374     1.0000 0.15800  0.99293  0.87091  Biso   1.000  C
  C375     1.0000 0.85703  0.11873  0.00843  Biso   1.000  C
  C376     1.0000 0.50869  0.84723  0.39101  Biso   1.000  C
  C377     1.0000 0.65529  0.97614  0.66587  Biso   1.000  C
  C378     1.0000 0.35934  0.13015  0.51942  Biso   1.000  C
  C379     1.0000 0.51698  0.34097  0.15380  Biso   1.000  C
  C380     1.0000 0.38337  0.48235  0.86747  Biso   1.000  C
  C381     1.0000 0.67940  0.61482  0.01946  Biso   1.000  C
  C382     1.0000 0.00992  0.34369  0.38563  Biso   1.000  C
  C383     1.0000 0.88081  0.50997  0.67915  Biso   1.000  C
  C384     1.0000 0.17360  0.63017  0.52725  Biso   1.000  C
  C385     1.0000 0.18771  0.15490  0.03480  Biso   1.000  C
  C386     1.0000 0.00748  0.17595  0.17045  Biso   1.000  C
  C387     1.0000 0.14502  0.01058  0.21145  Biso   1.000  C
  C388     1.0000 0.69869  0.14264  0.51012  Biso   1.000  C
  C389     1.0000 0.52604  0.18014  0.37242  Biso   1.000  C
  C390     1.0000 0.65224  0.99593  0.32771  Biso   1.000  C
  C391     1.0000 0.34454  0.65826  0.02385  Biso   1.000  C
  C392     1.0000 0.52518  0.67849  0.17310  Biso   1.000  C
  C393     1.0000 0.37070  0.51665  0.20413  Biso   1.000  C
  C394     1.0000 0.84151  0.64305  0.52250  Biso   1.000  C
  C395     1.0000 0.02582  0.68089  0.36972  Biso   1.000  C
  C396     1.0000 0.86941  0.50220  0.34114  Biso   1.000  C
  C397     1.0000 0.84171  0.83436  0.00475  Biso   1.000  C
  C398     1.0000 0.04774  0.81836  0.86587  Biso   1.000  C
  C399     1.0000 0.87586  0.98060  0.82530  Biso   1.000  C
  C400     1.0000 0.33803  0.85076  0.52217  Biso   1.000  C
  C401     1.0000 0.51141  0.81256  0.67248  Biso   1.000  C
  C402     1.0000 0.37911  0.98513  0.71251  Biso   1.000  C
  C403     1.0000 0.68999  0.33421  0.01500  Biso   1.000  C
  C404     1.0000 0.50610  0.31406  0.86562  Biso   1.000  C
  C405     1.0000 0.66343  0.50373  0.84382  Biso   1.000  C
  C406     1.0000 0.20227  0.34686  0.51527  Biso   1.000  C
  C407     1.0000 0.01626  0.31488  0.66941  Biso   1.000  C
  C408     1.0000 0.16188  0.48037  0.70608  Biso   1.000  C
  C409     1.0000 0.17596  0.98957  0.84528  Biso   1.000  C
  C410     1.0000 0.82854  0.13236  0.00333  Biso   1.000  C
  C411     1.0000 0.01391  0.81333  0.16116  Biso   1.000  C
  C412     1.0000 0.67311  0.97217  0.69202  Biso   1.000  C
  C413     1.0000 0.33339  0.14671  0.51781  Biso   1.000  C
  C414     1.0000 0.51126  0.82086  0.37518  Biso   1.000  C
  C415     1.0000 0.36753  0.47882  0.84142  Biso   1.000  C
  C416     1.0000 0.70691  0.62916  0.01333  Biso   1.000  C
  C417     1.0000 0.51927  0.31522  0.16930  Biso   1.000  C
  C418     1.0000 0.86440  0.51248  0.70546  Biso   1.000  C
  C419     1.0000 0.20015  0.64413  0.53259  Biso   1.000  C
  C420     1.0000 0.00980  0.31708  0.36910  Biso   1.000  C
  C421     1.0000 0.84965  0.99420  0.19357  Biso   1.000  C
  C422     1.0000 0.20481  0.85720  0.02983  Biso   1.000  C
  C423     1.0000 0.01168  0.17979  0.86871  Biso   1.000  C
  C424     1.0000 0.35531  0.01133  0.34828  Biso   1.000  C
  C425     1.0000 0.70185  0.84184  0.52054  Biso   1.000  C
  C426     1.0000 0.51315  0.16928  0.66957  Biso   1.000  C
  C427     1.0000 0.66327  0.48941  0.20389  Biso   1.000  C
  C428     1.0000 0.32703  0.35974  0.02708  Biso   1.000  C
  C429     1.0000 0.51474  0.67654  0.87305  Biso   1.000  C
  C430     1.0000 0.16883  0.51213  0.33700  Biso   1.000  C
  C431     1.0000 0.83484  0.34223  0.52595  Biso   1.000  C
  C432     1.0000 0.04768  0.67401  0.67141  Biso   1.000  C
  C433     1.0000 0.01379  0.14470  0.83515  Biso   1.000  C
  C434     1.0000 0.81981  0.99808  0.15618  Biso   1.000  C
  C435     1.0000 0.17393  0.82433  0.03586  Biso   1.000  C
  C436     1.0000 0.52145  0.13978  0.70306  Biso   1.000  C
  C437     1.0000 0.32597  0.01185  0.38354  Biso   1.000  C
  C438     1.0000 0.66663  0.81037  0.53046  Biso   1.000  C
  C439     1.0000 0.51218  0.64308  0.84012  Biso   1.000  C
  C440     1.0000 0.69437  0.47655  0.17142  Biso   1.000  C
  C441     1.0000 0.35762  0.32510  0.02716  Biso   1.000  C
  C442     1.0000 0.04356  0.64055  0.70425  Biso   1.000  C
  C443     1.0000 0.20211  0.51267  0.36979  Biso   1.000  C
  C444     1.0000 0.86911  0.30987  0.52710  Biso   1.000  C
  C445     1.0000 0.00923  0.84655  0.19586  Biso   1.000  C
  C446     1.0000 0.20589  0.99434  0.88120  Biso   1.000  C
  C447     1.0000 0.85977  0.16626  0.00936  Biso   1.000  C
  C448     1.0000 0.50474  0.85169  0.34340  Biso   1.000  C
  C449     1.0000 0.70340  0.97453  0.65793  Biso   1.000  C
  C450     1.0000 0.36738  0.17779  0.50757  Biso   1.000  C
  C451     1.0000 0.50884  0.34820  0.20145  Biso   1.000  C
  C452     1.0000 0.33493  0.48701  0.87307  Biso   1.000  C
  C453     1.0000 0.67462  0.66186  0.00630  Biso   1.000  C
  C454     1.0000 0.01200  0.34960  0.33821  Biso   1.000  C
  C455     1.0000 0.83209  0.51630  0.67185  Biso   1.000  C
  C456     1.0000 0.16986  0.67835  0.52370  Biso   1.000  C
  C457     1.0000 0.02070  0.64713  0.33731  Biso   1.000  C
  C458     1.0000 0.34626  0.98214  0.68067  Biso   1.000  C
  C459     1.0000 0.65495  0.30431  0.01559  Biso   1.000  C
  C460     1.0000 0.52499  0.64561  0.20819  Biso   1.000  C
  C461     1.0000 0.84300  0.97100  0.85743  Biso   1.000  C
  C462     1.0000 0.16908  0.31518  0.51123  Biso   1.000  C
  C463     1.0000 0.51597  0.14930  0.33654  Biso   1.000  C
  C464     1.0000 0.19463  0.47645  0.67318  Biso   1.000  C
  C465     1.0000 0.87683  0.80441  0.00046  Biso   1.000  C
  C466     1.0000 0.00138  0.14362  0.20219  Biso   1.000  C
  C467     1.0000 0.69647  0.50725  0.87735  Biso   1.000  C
  C468     1.0000 0.36888  0.81860  0.51781  Biso   1.000  C
  C469     1.0000 0.00995  0.34612  0.70285  Biso   1.000  C
  C470     1.0000 0.68749  0.99067  0.35827  Biso   1.000  C
  C471     1.0000 0.37917  0.68917  0.02620  Biso   1.000  C
  C472     1.0000 0.51356  0.34571  0.83252  Biso   1.000  C
  C473     1.0000 0.17944  0.01174  0.18195  Biso   1.000  C
  C474     1.0000 0.87247  0.67572  0.52200  Biso   1.000  C
  C475     1.0000 0.51318  0.84522  0.70700  Biso   1.000  C
  C476     1.0000 0.83806  0.49396  0.37340  Biso   1.000  C
  C477     1.0000 0.15591  0.18530  0.02822  Biso   1.000  C
  C478     1.0000 0.04601  0.85050  0.83428  Biso   1.000  C
  C479     1.0000 0.33844  0.51473  0.17152  Biso   1.000  C
  C480     1.0000 0.66526  0.17511  0.51302  Biso   1.000  C
  C481     1.0000 0.38373  0.79085  0.51796  Biso   1.000  C
  C482     1.0000 0.51973  0.36049  0.80490  Biso   1.000  C
  C483     1.0000 0.81206  0.49014  0.38978  Biso   1.000  C
  C484     1.0000 0.89554  0.77831  0.99500  Biso   1.000  C
  C485     1.0000 0.00568  0.36186  0.73038  Biso   1.000  C
  C486     1.0000 0.31092  0.51777  0.15470  Biso   1.000  C
  C487     1.0000 0.15071  0.28855  0.50655  Biso   1.000  C
  C488     1.0000 0.04528  0.86437  0.80694  Biso   1.000  C
  C489     1.0000 0.71493  0.98481  0.37164  Biso   1.000  C
  C490     1.0000 0.63689  0.27869  0.01862  Biso   1.000  C
  C491     1.0000 0.51133  0.86160  0.73316  Biso   1.000  C
  C492     1.0000 0.20731  0.01152  0.16842  Biso   1.000  C
  C493     1.0000 0.64755  0.20147  0.51822  Biso   1.000  C
  C494     1.0000 0.52580  0.62903  0.23578  Biso   1.000  C
  C495     1.0000 0.22266  0.47648  0.65714  Biso   1.000  C
  C496     1.0000 0.13762  0.21099  0.02340  Biso   1.000  C
  C497     1.0000 0.01868  0.63046  0.30937  Biso   1.000  C
  C498     1.0000 0.72473  0.51014  0.89247  Biso   1.000  C
  C499     1.0000 0.88906  0.70148  0.52220  Biso   1.000  C
  C500     1.0000 0.99504  0.12951  0.23036  Biso   1.000  C
  C501     1.0000 0.31775  0.98034  0.66476  Biso   1.000  C
  C502     1.0000 0.39620  0.71546  0.02676  Biso   1.000  C
  C503     1.0000 0.50711  0.13314  0.30970  Biso   1.000  C
  C504     1.0000 0.81568  0.96483  0.87179  Biso   1.000  C
  C505     1.0000 0.64930  0.49915  0.81460  Biso   1.000  C
  C506     1.0000 0.81432  0.62529  0.51926  Biso   1.000  C
  C507     1.0000 0.50840  0.78542  0.65643  Biso   1.000  C
  C508     1.0000 0.14457  0.47877  0.73111  Biso   1.000  C
  C509     1.0000 0.31802  0.64181  0.01931  Biso   1.000  C
  C510     1.0000 0.04767  0.79075  0.87883  Biso   1.000  C
  C511     1.0000 0.89384  0.98406  0.79912  Biso   1.000  C
  C512     1.0000 0.72535  0.12679  0.50379  Biso   1.000  C
  C513     1.0000 0.02777  0.28900  0.65197  Biso   1.000  C
  C514     1.0000 0.39590  0.99188  0.73856  Biso   1.000  C
  C515     1.0000 0.21666  0.13929  0.03865  Biso   1.000  C
  C516     1.0000 0.49744  0.28881  0.88076  Biso   1.000  C
  C517     1.0000 0.38639  0.51379  0.23270  Biso   1.000  C
  C518     1.0000 0.22937  0.36322  0.51572  Biso   1.000  C
  C519     1.0000 0.53618  0.20340  0.39101  Biso   1.000  C
  C520     1.0000 0.88435  0.50336  0.31268  Biso   1.000  C
  C521     1.0000 0.71873  0.34761  0.01184  Biso   1.000  C
  C522     1.0000 0.01347  0.20150  0.15378  Biso   1.000  C
  C523     1.0000 0.12774  0.01250  0.23859  Biso   1.000  C
  C524     1.0000 0.31046  0.86706  0.52697  Biso   1.000  C
  C525     1.0000 0.02826  0.70894  0.38433  Biso   1.000  C
  C526     1.0000 0.63303  0.99392  0.30136  Biso   1.000  C
  C527     1.0000 0.81457  0.84851  0.00594  Biso   1.000  C
  C528     1.0000 0.52664  0.70473  0.15613  Biso   1.000  C
  C529     1.0000 0.80329  0.11474  0.99893  Biso   1.000  C
  C530     1.0000 0.01894  0.78632  0.14676  Biso   1.000  C
  C531     1.0000 0.16236  0.98972  0.81563  Biso   1.000  C
  C532     1.0000 0.30685  0.13240  0.52706  Biso   1.000  C
  C533     1.0000 0.52016  0.79415  0.38836  Biso   1.000  C
  C534     1.0000 0.65922  0.97094  0.71984  Biso   1.000  C
  C535     1.0000 0.73428  0.61256  0.01292  Biso   1.000  C
  C536     1.0000 0.52110  0.28753  0.15309  Biso   1.000  C
  C537     1.0000 0.38447  0.47445  0.81386  Biso   1.000  C
  C538     1.0000 0.22636  0.62816  0.53848  Biso   1.000  C
  C539     1.0000 0.00915  0.28950  0.38540  Biso   1.000  C
  C540     1.0000 0.88114  0.51121  0.73329  Biso   1.000  C
  C541     1.0000 0.23234  0.87389  0.03078  Biso   1.000  C
  C542     1.0000 0.01376  0.20797  0.88319  Biso   1.000  C
  C543     1.0000 0.86439  0.99255  0.22276  Biso   1.000  C
  C544     1.0000 0.72850  0.85918  0.51384  Biso   1.000  C
  C545     1.0000 0.50244  0.19345  0.65350  Biso   1.000  C
  C546     1.0000 0.36823  0.00911  0.31936  Biso   1.000  C
  C547     1.0000 0.30005  0.37756  0.02794  Biso   1.000  C
  C548     1.0000 0.52148  0.70405  0.88809  Biso   1.000  C
  C549     1.0000 0.64892  0.49799  0.23074  Biso   1.000  C
  C550     1.0000 0.80713  0.35755  0.52036  Biso   1.000  C
  C551     1.0000 0.05284  0.70014  0.65432  Biso   1.000  C
  C552     1.0000 0.15100  0.50817  0.31050  Biso   1.000  C
  C553     1.0000 0.01342  0.12741  0.80797  Biso   1.000  C
  C554     1.0000 0.79401  0.00153  0.13827  Biso   1.000  C
  C555     1.0000 0.15869  0.79564  0.03689  Biso   1.000  C
  C556     1.0000 0.52754  0.12577  0.72950  Biso   1.000  C
  C557     1.0000 0.30128  0.01454  0.40266  Biso   1.000  C
  C558     1.0000 0.64870  0.78591  0.53643  Biso   1.000  C
  C559     1.0000 0.51445  0.62747  0.81229  Biso   1.000  C
  C560     1.0000 0.72135  0.46759  0.15695  Biso   1.000  C
  C561     1.0000 0.37166  0.29731  0.02840  Biso   1.000  C
  C562     1.0000 0.03907  0.62541  0.73017  Biso   1.000  C
  C563     1.0000 0.23053  0.51032  0.38628  Biso   1.000  C
  C564     1.0000 0.88768  0.28387  0.52773  Biso   1.000  C
  C565     1.0000 0.00005  0.86282  0.22277  Biso   1.000  C
  C566     1.0000 0.23219  0.99312  0.89880  Biso   1.000  C
  C567     1.0000 0.87153  0.19520  0.00729  Biso   1.000  C
  C568     1.0000 0.49706  0.86552  0.31605  Biso   1.000  C
  C569     1.0000 0.73154  0.97835  0.64178  Biso   1.000  C
  C570     1.0000 0.38673  0.20105  0.49957  Biso   1.000  C
  C571     1.0000 0.50346  0.36432  0.22915  Biso   1.000  C
  C572     1.0000 0.30778  0.49415  0.88751  Biso   1.000  C
  C573     1.0000 0.66034  0.68993  0.00033  Biso   1.000  C
  C574     1.0000 0.01534  0.36400  0.30983  Biso   1.000  C
  C575     1.0000 0.80414  0.51524  0.65674  Biso   1.000  C
  C576     1.0000 0.15195  0.70405  0.51665  Biso   1.000  C
  C577     1.0000 0.31145  0.51783  0.12246  Biso   1.000  C
  C578     1.0000 0.11955  0.29085  0.50884  Biso   1.000  C
  C579     1.0000 0.50079  0.10213  0.31169  Biso   1.000  C
  C580     1.0000 0.81179  0.48803  0.42183  Biso   1.000  C
  C581     1.0000 0.60554  0.28317  0.01847  Biso   1.000  C
  C582     1.0000 0.99005  0.09926  0.23104  Biso   1.000  C
  C583     1.0000 0.20797  0.01032  0.13679  Biso   1.000  C
  C584     1.0000 0.41458  0.79249  0.51725  Biso   1.000  C
  C585     1.0000 0.01470  0.59926  0.31103  Biso   1.000  C
  C586     1.0000 0.71745  0.98181  0.40246  Biso   1.000  C
  C587     1.0000 0.92707  0.78109  0.99552  Biso   1.000  C
  C588     1.0000 0.52375  0.59723  0.23434  Biso   1.000  C
  C589     1.0000 0.72747  0.50796  0.92339  Biso   1.000  C
  C590     1.0000 0.91978  0.70208  0.51635  Biso   1.000  C
  C591     1.0000 0.51347  0.89314  0.73259  Biso   1.000  C
  C592     1.0000 0.22338  0.48123  0.62667  Biso   1.000  C
  C593     1.0000 0.42802  0.71527  0.03038  Biso   1.000  C
  C594     1.0000 0.04233  0.89522  0.80694  Biso   1.000  C
  C595     1.0000 0.81606  0.96812  0.90319  Biso   1.000  C
  C596     1.0000 0.61712  0.19862  0.52327  Biso   1.000  C
  C597     1.0000 0.00470  0.39336  0.73217  Biso   1.000  C
  C598     1.0000 0.31627  0.97851  0.63240  Biso   1.000  C
  C599     1.0000 0.10784  0.20738  0.01769  Biso   1.000  C
  C600     1.0000 0.52236  0.39166  0.80426  Biso   1.000  C
  C601     1.0000 0.23046  0.99765  0.93120  Biso   1.000  C
  C602     1.0000 0.90188  0.19845  0.00942  Biso   1.000  C
  C603     1.0000 0.99806  0.89389  0.22307  Biso   1.000  C
  C604     1.0000 0.73170  0.98724  0.61135  Biso   1.000  C
  C605     1.0000 0.41827  0.19807  0.49937  Biso   1.000  C
  C606     1.0000 0.49428  0.89725  0.31482  Biso   1.000  C
  C607     1.0000 0.30847  0.50166  0.91782  Biso   1.000  C
  C608     1.0000 0.62994  0.69286  0.00621  Biso   1.000  C
  C609     1.0000 0.50429  0.39590  0.22709  Biso   1.000  C
  C610     1.0000 0.80478  0.51217  0.62437  Biso   1.000  C
  C611     1.0000 0.12154  0.70481  0.51102  Biso   1.000  C
  C612     1.0000 0.01712  0.39468  0.31008  Biso   1.000  C
  C613     1.0000 0.80001  0.00081  0.10774  Biso   1.000  C
  C614     1.0000 0.12688  0.79539  0.03652  Biso   1.000  C
  C615     1.0000 0.01581  0.09578  0.80931  Biso   1.000  C
  C616     1.0000 0.30470  0.01178  0.43545  Biso   1.000  C
  C617     1.0000 0.61757  0.78930  0.53546  Biso   1.000  C
  C618     1.0000 0.53508  0.09534  0.72995  Biso   1.000  C
  C619     1.0000 0.72133  0.46732  0.12360  Biso   1.000  C
  C620     1.0000 0.40275  0.29334  0.02598  Biso   1.000  C
  C621     1.0000 0.51053  0.59615  0.81350  Biso   1.000  C
  C622     1.0000 0.23082  0.50679  0.41841  Biso   1.000  C
  C623     1.0000 0.91851  0.28596  0.53020  Biso   1.000  C
  C624     1.0000 0.03271  0.59557  0.72971  Biso   1.000  C
  C625     1.0000 0.01204  0.20836  0.91479  Biso   1.000  C
  C626     1.0000 0.89711  0.99345  0.22503  Biso   1.000  C
  C627     1.0000 0.23026  0.90556  0.02888  Biso   1.000  C
  C628     1.0000 0.49741  0.19135  0.62186  Biso   1.000  C
  C629     1.0000 0.39901  0.00822  0.31731  Biso   1.000  C
  C630     1.0000 0.72692  0.89053  0.51045  Biso   1.000  C
  C631     1.0000 0.52033  0.70534  0.92068  Biso   1.000  C
  C632     1.0000 0.61790  0.50053  0.23179  Biso   1.000  C
  C633     1.0000 0.30250  0.40896  0.02710  Biso   1.000  C
  C634     1.0000 0.04756  0.69970  0.62321  Biso   1.000  C
  C635     1.0000 0.12005  0.50424  0.30983  Biso   1.000  C
  C636     1.0000 0.80649  0.38902  0.52013  Biso   1.000  C
  C637     1.0000 0.02088  0.78644  0.11500  Biso   1.000  C
  C638     1.0000 0.13066  0.99055  0.81296  Biso   1.000  C
  C639     1.0000 0.80573  0.08268  0.99940  Biso   1.000  C
  C640     1.0000 0.52141  0.79338  0.42012  Biso   1.000  C
  C641     1.0000 0.62791  0.97212  0.72089  Biso   1.000  C
  C642     1.0000 0.30703  0.10123  0.53351  Biso   1.000  C
  C643     1.0000 0.52229  0.28806  0.12107  Biso   1.000  C
  C644     1.0000 0.41576  0.47779  0.81326  Biso   1.000  C
  C645     1.0000 0.73149  0.58099  0.02075  Biso   1.000  C
  C646     1.0000 0.01110  0.29117  0.41707  Biso   1.000  C
  C647     1.0000 0.91194  0.50685  0.73255  Biso   1.000  C
  C648     1.0000 0.22491  0.59702  0.53516  Biso   1.000  C
  C649     1.0000 0.02915  0.70879  0.41725  Biso   1.000  C
  C650     1.0000 0.42684  0.99226  0.73887  Biso   1.000  C
  C651     1.0000 0.72038  0.37989  0.01132  Biso   1.000  C
  C652     1.0000 0.52748  0.70296  0.12442  Biso   1.000  C
  C653     1.0000 0.92453  0.99438  0.80216  Biso   1.000  C
  C654     1.0000 0.23008  0.39518  0.51884  Biso   1.000  C
  C655     1.0000 0.53985  0.19966  0.42152  Biso   1.000  C
  C656     1.0000 0.11296  0.48228  0.73183  Biso   1.000  C
  C657     1.0000 0.81320  0.87848  0.00904  Biso   1.000  C
  C658     1.0000 0.01653  0.19972  0.12178  Biso   1.000  C
  C659     1.0000 0.61656  0.49783  0.81359  Biso   1.000  C
  C660     1.0000 0.31127  0.89815  0.52814  Biso   1.000  C
  C661     1.0000 0.02604  0.28915  0.61990  Biso   1.000  C
  C662     1.0000 0.60215  0.99479  0.30528  Biso   1.000  C
  C663     1.0000 0.31759  0.61111  0.02569  Biso   1.000  C
  C664     1.0000 0.49554  0.28900  0.91358  Biso   1.000  C
  C665     1.0000 0.09651  0.00864  0.23542  Biso   1.000  C
  C666     1.0000 0.81486  0.59394  0.51817  Biso   1.000  C
  C667     1.0000 0.51187  0.78518  0.62421  Biso   1.000  C
  C668     1.0000 0.91527  0.50401  0.31121  Biso   1.000  C
  C669     1.0000 0.21986  0.10956  0.03783  Biso   1.000  C
  C670     1.0000 0.04365  0.79060  0.91073  Biso   1.000  C
  C671     1.0000 0.41876  0.51118  0.23214  Biso   1.000  C
  C672     1.0000 0.72613  0.09606  0.50122  Biso   1.000  C
  C673     1.0000 0.22329  0.98866  0.83535  Biso   1.000  C
  C674     1.0000 0.81382  0.17816  0.00725  Biso   1.000  C
  C675     1.0000 0.01293  0.80073  0.20932  Biso   1.000  C
  C676     1.0000 0.71992  0.96745  0.70346  Biso   1.000  C
  C677     1.0000 0.32203  0.19265  0.51003  Biso   1.000  C
  C678     1.0000 0.51130  0.80654  0.32702  Biso   1.000  C
  C679     1.0000 0.31982  0.47817  0.82786  Biso   1.000  C
  C680     1.0000 0.72382  0.67363  0.00394  Biso   1.000  C
  C681     1.0000 0.51487  0.30368  0.21660  Biso   1.000  C
  C682     1.0000 0.81693  0.51301  0.71873  Biso   1.000  C
  C683     1.0000 0.21581  0.69226  0.53256  Biso   1.000  C
  C684     1.0000 0.00790  0.30328  0.32366  Biso   1.000  C
  C685     1.0000 0.80334  0.99658  0.20127  Biso   1.000  C
  C686     1.0000 0.21882  0.81018  0.03118  Biso   1.000  C
  C687     1.0000 0.01454  0.19159  0.82078  Biso   1.000  C
  C688     1.0000 0.30874  0.01388  0.33750  Biso   1.000  C
  C689     1.0000 0.71336  0.79433  0.52907  Biso   1.000  C
  C690     1.0000 0.51540  0.18713  0.71714  Biso   1.000  C
  C691     1.0000 0.70954  0.48196  0.21744  Biso   1.000  C
  C692     1.0000 0.31056  0.31244  0.03173  Biso   1.000  C
  C693     1.0000 0.51018  0.68874  0.82561  Biso   1.000  C
  C694     1.0000 0.21570  0.51619  0.32289  Biso   1.000  C
  C695     1.0000 0.82123  0.29598  0.52266  Biso   1.000  C
  C696     1.0000 0.05018  0.68805  0.71797  Biso   1.000  C
  C697     1.0000 0.69719  0.99313  0.31161  Biso   1.000  C
  C698     1.0000 0.33187  0.70438  0.02569  Biso   1.000  C
  C699     1.0000 0.01654  0.29865  0.71478  Biso   1.000  C
  C700     1.0000 0.19029  0.01371  0.23014  Biso   1.000  C
  C701     1.0000 0.82718  0.69139  0.52280  Biso   1.000  C
  C702     1.0000 0.51116  0.29980  0.81864  Biso   1.000  C
  C703     1.0000 0.82348  0.49312  0.32634  Biso   1.000  C
  C704     1.0000 0.20297  0.20051  0.02898  Biso   1.000  C
  C705     1.0000 0.50823  0.79892  0.71865  Biso   1.000  C
  C706     1.0000 0.32367  0.51994  0.21757  Biso   1.000  C
  C707     1.0000 0.71119  0.18892  0.51248  Biso   1.000  C
  C708     1.0000 0.05248  0.80350  0.81834  Biso   1.000  C
  C709     1.0000 0.33173  0.98602  0.72693  Biso   1.000  C
  C710     1.0000 0.70145  0.28813  0.01190  Biso   1.000  C
  C711     1.0000 0.02474  0.69242  0.32094  Biso   1.000  C
  C712     1.0000 0.83039  0.96950  0.81019  Biso   1.000  C
  C713     1.0000 0.21572  0.29960  0.51283  Biso   1.000  C
  C714     1.0000 0.52179  0.69154  0.22107  Biso   1.000  C
  C715     1.0000 0.20614  0.47028  0.72051  Biso   1.000  C
  C716     1.0000 0.83257  0.78574  0.00313  Biso   1.000  C
  C717     1.0000 0.52375  0.19527  0.32590  Biso   1.000  C
  C718     1.0000 0.70770  0.50487  0.82956  Biso   1.000  C
  C719     1.0000 0.32254  0.80482  0.52514  Biso   1.000  C
  C720     1.0000 0.00641  0.19005  0.21685  Biso   1.000  C
  C721     1.0000 0.52448  0.81185  0.29808  Biso   1.000  C
  C722     1.0000 0.32262  0.48979  0.79800  Biso   1.000  C
  C723     1.0000 0.79439  0.29892  0.53605  Biso   1.000  C
  C724     1.0000 0.00147  0.77176  0.20450  Biso   1.000  C
  C725     1.0000 0.78937  0.52919  0.71766  Biso   1.000  C
  C726     1.0000 0.28125  0.31573  0.01610  Biso   1.000  C
  C727     1.0000 0.98735  0.30323  0.29914  Biso   1.000  C
  C728     1.0000 0.24776  0.00827  0.83595  Biso   1.000  C
  C729     1.0000 0.74228  0.80112  0.54146  Biso   1.000  C
  C730     1.0000 0.49562  0.30242  0.24159  Biso   1.000  C
  C731     1.0000 0.74453  0.94826  0.69721  Biso   1.000  C
  C732     1.0000 0.24160  0.81256  0.00975  Biso   1.000  C
  C733     1.0000 0.50544  0.18473  0.74840  Biso   1.000  C
  C734     1.0000 0.70530  0.47418  0.24863  Biso   1.000  C
  C735     1.0000 0.20961  0.72217  0.54215  Biso   1.000  C
  C736     1.0000 0.99737  0.21684  0.82184  Biso   1.000  C
  C737     1.0000 0.24508  0.50151  0.32568  Biso   1.000  C
  C738     1.0000 0.74930  0.67269  0.02363  Biso   1.000  C
  C739     1.0000 0.06372  0.68486  0.74572  Biso   1.000  C
  C740     1.0000 0.77400  0.98244  0.19480  Biso   1.000  C
  C741     1.0000 0.29340  0.18581  0.49885  Biso   1.000  C
  C742     1.0000 0.52538  0.68560  0.79844  Biso   1.000  C
  C743     1.0000 0.28185  0.99883  0.34262  Biso   1.000  C
  C744     1.0000 0.81313  0.20058  0.02950  Biso   1.000  C
  C745     1.0000 0.04650  0.71474  0.31833  Biso   1.000  C
  C746     1.0000 0.30265  0.00162  0.72315  Biso   1.000  C
  C747     1.0000 0.72785  0.29077  0.03033  Biso   1.000  C
  C748     1.0000 0.54135  0.71787  0.21921  Biso   1.000  C
  C749     1.0000 0.80842  0.94716  0.80950  Biso   1.000  C
  C750     1.0000 0.23784  0.29750  0.53541  Biso   1.000  C
  C751     1.0000 0.53307  0.19013  0.29584  Biso   1.000  C
  C752     1.0000 0.22964  0.44909  0.71670  Biso   1.000  C
  C753     1.0000 0.80477  0.78669  0.98637  Biso   1.000  C
  C754     1.0000 0.02097  0.18655  0.24480  Biso   1.000  C
  C755     1.0000 0.70115  0.52006  0.80161  Biso   1.000  C
  C756     1.0000 0.29597  0.80581  0.50731  Biso   1.000  C
  C757     1.0000 0.00815  0.26873  0.70766  Biso   1.000  C
  C758     1.0000 0.69405  0.01457  0.28718  Biso   1.000  C
  C759     1.0000 0.30796  0.70309  0.04581  Biso   1.000  C
  C760     1.0000 0.52918  0.27212  0.82813  Biso   1.000  C
  C761     1.0000 0.21505  0.03219  0.22879  Biso   1.000  C
  C762     1.0000 0.82952  0.71840  0.50881  Biso   1.000  C
  C763     1.0000 0.49222  0.80000  0.74572  Biso   1.000  C
  C764     1.0000 0.80160  0.47141  0.32883  Biso   1.000  C
  C765     1.0000 0.22639  0.20127  0.04987  Biso   1.000  C
  C766     1.0000 0.03383  0.80343  0.79361  Biso   1.000  C
  C767     1.0000 0.32841  0.53694  0.24393  Biso   1.000  C
  C768     1.0000 0.70717  0.21653  0.49982  Biso   1.000  C
  C769     1.0000 0.49432  0.71525  0.83068  Biso   1.000  C
  C770     1.0000 0.81841  0.49450  0.74447  Biso   1.000  C
  C771     1.0000 0.70759  0.76388  0.52141  Biso   1.000  C
  C772     1.0000 0.03768  0.71535  0.71024  Biso   1.000  C
  C773     1.0000 0.29201  0.46563  0.83527  Biso   1.000  C
  C774     1.0000 0.22106  0.78487  0.04937  Biso   1.000  C
  C775     1.0000 0.03465  0.18785  0.79721  Biso   1.000  C
  C776     1.0000 0.72126  0.98571  0.72902  Biso   1.000  C
  C777     1.0000 0.82585  0.26967  0.50427  Biso   1.000  C
  C778     1.0000 0.52834  0.21453  0.70926  Biso   1.000  C
  C779     1.0000 0.21991  0.96958  0.81111  Biso   1.000  C
  C780     1.0000 0.31297  0.28665  0.05044  Biso   1.000  C
  C781     1.0000 0.53742  0.28100  0.21580  Biso   1.000  C
  C782     1.0000 0.20843  0.53397  0.29828  Biso   1.000  C
  C783     1.0000 0.32977  0.22315  0.51629  Biso   1.000  C
  C784     1.0000 0.02933  0.27961  0.32521  Biso   1.000  C
  C785     1.0000 0.73810  0.49318  0.21225  Biso   1.000  C
  C786     1.0000 0.78962  0.17815  0.98502  Biso   1.000  C
  C787     1.0000 0.02616  0.80519  0.23875  Biso   1.000  C
  C788     1.0000 0.30971  0.02914  0.31051  Biso   1.000  C
  C789     1.0000 0.24292  0.68577  0.51911  Biso   1.000  C
  C790     1.0000 0.49755  0.77871  0.32994  Biso   1.000  C
  C791     1.0000 0.80313  0.01529  0.22731  Biso   1.000  C
  C792     1.0000 0.72260  0.69649  0.98336  Biso   1.000  C
  C793     1.0000 0.51351  0.22460  0.33327  Biso   1.000  C
  C794     1.0000 0.29486  0.50629  0.21385  Biso   1.000  C
  C795     1.0000 0.21496  0.28049  0.48825  Biso   1.000  C
  C796     1.0000 0.99350  0.21671  0.21012  Biso   1.000  C
  C797     1.0000 0.82236  0.51314  0.30213  Biso   1.000  C
  C798     1.0000 0.69680  0.26201  0.99454  Biso   1.000  C
  C799     1.0000 0.00060  0.69072  0.29935  Biso   1.000  C
  C800     1.0000 0.18693  0.99709  0.25674  Biso   1.000  C
  C801     1.0000 0.32654  0.77709  0.54158  Biso   1.000  C
  C802     1.0000 0.50289  0.69061  0.24617  Biso   1.000  C
  C803     1.0000 0.72104  0.97287  0.31064  Biso   1.000  C
  C804     1.0000 0.83679  0.75716  0.01810  Biso   1.000  C
  C805     1.0000 0.52654  0.77439  0.71541  Biso   1.000  C
  C806     1.0000 0.73535  0.48979  0.83161  Biso   1.000  C
  C807     1.0000 0.80088  0.68618  0.53973  Biso   1.000  C
  C808     1.0000 0.07222  0.77992  0.82132  Biso   1.000  C
  C809     1.0000 0.20515  0.48822  0.74721  Biso   1.000  C
  C810     1.0000 0.33375  0.73002  0.00800  Biso   1.000  C
  C811     1.0000 0.02782  0.30472  0.74492  Biso   1.000  C
  C812     1.0000 0.82986  0.98852  0.78397  Biso   1.000  C
  C813     1.0000 0.73993  0.18383  0.52678  Biso   1.000  C
  C814     1.0000 0.50151  0.30190  0.78841  Biso   1.000  C
  C815     1.0000 0.33653  0.97202  0.75496  Biso   1.000  C
  C816     1.0000 0.20148  0.22272  0.00674  Biso   1.000  C
  C817     1.0000 0.00036  0.23746  0.80038  Biso   1.000  C
  C818     1.0000 0.75339  0.98217  0.21639  Biso   1.000  C
  C819     1.0000 0.26474  0.79280  0.00850  Biso   1.000  C
  C820     1.0000 0.50946  0.20776  0.76761  Biso   1.000  C
  C821     1.0000 0.25803  0.99950  0.32364  Biso   1.000  C
  C822     1.0000 0.76364  0.78032  0.54027  Biso   1.000  C
  C823     1.0000 0.52453  0.70687  0.77796  Biso   1.000  C
  C824     1.0000 0.72800  0.47477  0.26777  Biso   1.000  C
  C825     1.0000 0.26038  0.29389  0.01620  Biso   1.000  C
  C826     1.0000 0.06552  0.70899  0.76408  Biso   1.000  C
  C827     1.0000 0.26509  0.50651  0.30449  Biso   1.000  C
  C828     1.0000 0.77282  0.27756  0.52998  Biso   1.000  C
  C829     1.0000 0.00332  0.74969  0.22481  Biso   1.000  C
  C830     1.0000 0.26957  0.00558  0.81490  Biso   1.000  C
  C831     1.0000 0.78979  0.22169  0.02976  Biso   1.000  C
  C832     1.0000 0.52247  0.79004  0.27738  Biso   1.000  C
  C833     1.0000 0.76651  0.94691  0.71766  Biso   1.000  C
  C834     1.0000 0.27207  0.20722  0.49972  Biso   1.000  C
  C835     1.0000 0.49901  0.28060  0.26143  Biso   1.000  C
  C836     1.0000 0.30013  0.48503  0.77771  Biso   1.000  C
  C837     1.0000 0.77055  0.69449  0.02180  Biso   1.000  C
  C838     1.0000 0.98849  0.28356  0.27762  Biso   1.000  C
  C839     1.0000 0.76804  0.52846  0.73926  Biso   1.000  C
  C840     1.0000 0.23048  0.74338  0.53798  Biso   1.000  C
  C841     1.0000 0.24267  0.96791  0.79124  Biso   1.000  C
  C842     1.0000 0.76733  0.19951  0.98634  Biso   1.000  C
  C843     1.0000 0.03141  0.78099  0.25661  Biso   1.000  C
  C844     1.0000 0.74449  0.98503  0.74920  Biso   1.000  C
  C845     1.0000 0.30723  0.24358  0.51558  Biso   1.000  C
  C846     1.0000 0.50126  0.75662  0.30985  Biso   1.000  C
  C847     1.0000 0.27154  0.46094  0.81355  Biso   1.000  C
  C848     1.0000 0.74367  0.71762  0.98272  Biso   1.000  C
  C849     1.0000 0.53968  0.25909  0.23693  Biso   1.000  C
  C850     1.0000 0.79607  0.49193  0.76433  Biso   1.000  C
  C851     1.0000 0.26364  0.70786  0.51855  Biso   1.000  C
  C852     1.0000 0.02833  0.25865  0.30273  Biso   1.000  C
  C853     1.0000 0.78074  0.01495  0.24705  Biso   1.000  C
  C854     1.0000 0.24359  0.76621  0.04785  Biso   1.000  C
  C855     1.0000 0.03799  0.20958  0.77724  Biso   1.000  C
  C856     1.0000 0.28519  0.02905  0.29157  Biso   1.000  C
  C857     1.0000 0.73078  0.74415  0.52135  Biso   1.000  C
  C858     1.0000 0.53492  0.23570  0.73012  Biso   1.000  C
  C859     1.0000 0.76051  0.49521  0.23325  Biso   1.000  C
  C860     1.0000 0.29155  0.26547  0.04887  Biso   1.000  C
  C861     1.0000 0.49408  0.73515  0.80846  Biso   1.000  C
  C862     1.0000 0.23033  0.53601  0.27828  Biso   1.000  C
  C863     1.0000 0.80415  0.24829  0.50165  Biso   1.000  C
  C864     1.0000 0.03917  0.73777  0.73019  Biso   1.000  C
  C865     1.0000 0.72198  0.51928  0.78010  Biso   1.000  C
  C866     1.0000 0.80872  0.73875  0.51380  Biso   1.000  C
  C867     1.0000 0.49099  0.77759  0.76525  Biso   1.000  C
  C868     1.0000 0.25223  0.44943  0.73659  Biso   1.000  C
  C869     1.0000 0.28768  0.72455  0.04620  Biso   1.000  C
  C870     1.0000 0.03518  0.78072  0.77374  Biso   1.000  C
  C871     1.0000 0.79023  0.94425  0.78683  Biso   1.000  C
  C872     1.0000 0.72732  0.23774  0.49990  Biso   1.000  C
  C873     1.0000 0.01141  0.24706  0.72846  Biso   1.000  C
  C874     1.0000 0.28229  0.00067  0.74604  Biso   1.000  C
  C875     1.0000 0.24872  0.22051  0.04741  Biso   1.000  C
  C876     1.0000 0.53227  0.25237  0.80593  Biso   1.000  C
  C877     1.0000 0.30611  0.53898  0.26478  Biso   1.000  C
  C878     1.0000 0.25668  0.27478  0.53432  Biso   1.000  C
  C879     1.0000 0.53012  0.21029  0.27434  Biso   1.000  C
  C880     1.0000 0.77948  0.46856  0.30649  Biso   1.000  C
  C881     1.0000 0.74917  0.26986  0.02722  Biso   1.000  C
  C882     1.0000 0.02032  0.20953  0.26395  Biso   1.000  C
  C883     1.0000 0.23595  0.03217  0.25014  Biso   1.000  C
  C884     1.0000 0.27518  0.78419  0.50987  Biso   1.000  C
  C885     1.0000 0.04483  0.73110  0.29362  Biso   1.000  C
  C886     1.0000 0.71461  0.01639  0.26631  Biso   1.000  C
  C887     1.0000 0.78422  0.76565  0.98744  Biso   1.000  C
  C888     1.0000 0.53623  0.74176  0.23816  Biso   1.000  C
  C889     1.0000 0.73963  0.97534  0.28755  Biso   1.000  C
  C890     1.0000 0.31246  0.75105  0.00789  Biso   1.000  C
  C891     1.0000 0.03001  0.28305  0.76463  Biso   1.000  C
  C892     1.0000 0.20790  0.99735  0.27981  Biso   1.000  C
  C893     1.0000 0.77756  0.70472  0.53837  Biso   1.000  C
  C894     1.0000 0.50534  0.28056  0.76898  Biso   1.000  C
  C895     1.0000 0.79824  0.51005  0.28345  Biso   1.000  C
  C896     1.0000 0.22333  0.24411  0.00737  Biso   1.000  C
  C897     1.0000 0.52438  0.75158  0.73501  Biso   1.000  C
  C898     1.0000 0.27308  0.51209  0.23429  Biso   1.000  C
  C899     1.0000 0.76241  0.20438  0.52726  Biso   1.000  C
  C900     1.0000 0.07548  0.75980  0.79939  Biso   1.000  C
  C901     1.0000 0.31515  0.97177  0.77653  Biso   1.000  C
  C902     1.0000 0.71764  0.23947  0.99574  Biso   1.000  C
  C903     1.0000 0.99912  0.71250  0.27761  Biso   1.000  C
  C904     1.0000 0.81005  0.98496  0.76150  Biso   1.000  C
  C905     1.0000 0.23576  0.25922  0.48706  Biso   1.000  C
  C906     1.0000 0.49780  0.71475  0.26380  Biso   1.000  C
  C907     1.0000 0.22824  0.48621  0.76759  Biso   1.000  C
  C908     1.0000 0.81528  0.73563  0.01788  Biso   1.000  C
  C909     1.0000 0.51220  0.24396  0.31082  Biso   1.000  C
  C910     1.0000 0.75663  0.49160  0.80984  Biso   1.000  C
  C911     1.0000 0.30610  0.75477  0.54179  Biso   1.000  C
  C912     1.0000 0.99478  0.23958  0.22919  Biso   1.000  C
  C913     1.0000 0.77206  0.50901  0.76344  Biso   1.000  C
  C914     1.0000 0.75879  0.75263  0.53020  Biso   1.000  C
  C915     1.0000 0.50941  0.73117  0.78328  Biso   1.000  C
  C916     1.0000 0.27447  0.47014  0.78457  Biso   1.000  C
  C917     1.0000 0.26560  0.76945  0.02762  Biso   1.000  C
  C918     1.0000 0.05350  0.73511  0.75614  Biso   1.000  C
  C919     1.0000 0.76508  0.96488  0.74142  Biso   1.000  C
  C920     1.0000 0.77762  0.25204  0.51323  Biso   1.000  C
  C921     1.0000 0.02221  0.23412  0.77933  Biso   1.000  C
  C922     1.0000 0.26752  0.98449  0.79373  Biso   1.000  C
  C923     1.0000 0.26534  0.26773  0.03197  Biso   1.000  C
  C924     1.0000 0.52357  0.23196  0.75791  Biso   1.000  C
  C925     1.0000 0.25854  0.52577  0.28237  Biso   1.000  C
  C926     1.0000 0.27923  0.23555  0.50763  Biso   1.000  C
  C927     1.0000 0.51923  0.25940  0.25843  Biso   1.000  C
  C928     1.0000 0.75617  0.48634  0.26206  Biso   1.000  C
  C929     1.0000 0.76734  0.22087  0.00865  Biso   1.000  C
  C930     1.0000 0.00795  0.26007  0.27918  Biso   1.000  C
  C931     1.0000 0.25838  0.01427  0.29718  Biso   1.000  C
  C932     1.0000 0.25660  0.73624  0.52594  Biso   1.000  C
  C933     1.0000 0.01841  0.75325  0.25078  Biso   1.000  C
  C934     1.0000 0.75561  0.99716  0.24321  Biso   1.000  C
  C935     1.0000 0.76848  0.71620  0.00064  Biso   1.000  C
  C936     1.0000 0.51270  0.76271  0.28234  Biso   1.000  C
  C937     1.0000 0.74330  0.24360  0.01166  Biso   1.000  C
  C938     1.0000 0.02147  0.73134  0.27376  Biso   1.000  C
  C939     1.0000 0.28897  0.98521  0.77076  Biso   1.000  C
  C940     1.0000 0.25646  0.25619  0.50995  Biso   1.000  C
  C941     1.0000 0.51443  0.73980  0.26068  Biso   1.000  C
  C942     1.0000 0.78982  0.96316  0.76321  Biso   1.000  C
  C943     1.0000 0.78897  0.74072  0.00271  Biso   1.000  C
  C944     1.0000 0.51918  0.23781  0.28200  Biso   1.000  C
  C945     1.0000 0.25057  0.46695  0.76208  Biso   1.000  C
  C946     1.0000 0.28040  0.75854  0.52435  Biso   1.000  C
  C947     1.0000 0.00795  0.23698  0.25695  Biso   1.000  C
  C948     1.0000 0.74895  0.50650  0.78452  Biso   1.000  C
  C949     1.0000 0.28888  0.74820  0.02662  Biso   1.000  C
  C950     1.0000 0.02310  0.25475  0.75622  Biso   1.000  C
  C951     1.0000 0.73591  0.99676  0.26775  Biso   1.000  C
  C952     1.0000 0.78272  0.73229  0.52748  Biso   1.000  C
  C953     1.0000 0.52030  0.25696  0.77820  Biso   1.000  C
  C954     1.0000 0.23266  0.01506  0.27509  Biso   1.000  C
  C955     1.0000 0.24705  0.24304  0.02669  Biso   1.000  C
  C956     1.0000 0.50831  0.75289  0.75992  Biso   1.000  C
  C957     1.0000 0.77928  0.48635  0.28313  Biso   1.000  C
  C958     1.0000 0.75520  0.23064  0.51336  Biso   1.000  C
  C959     1.0000 0.05557  0.75946  0.77654  Biso   1.000  C
  C960     1.0000 0.27926  0.52628  0.25994  Biso   1.000  C
  Cu1      1.0000 0.01098  0.49448  0.67782  Biso   1.000  Cu
  Cu2      1.0000 0.67237  0.99264  0.50970  Biso   1.000  Cu
  Cu3      1.0000 0.52449  0.64869  0.01959  Biso   1.000  Cu
  Cu4      1.0000 0.51540  0.49381  0.86602  Biso   1.000  Cu
  Cu5      1.0000 0.16848  0.00491  0.02801  Biso   1.000  Cu
  Cu6      1.0000 0.02037  0.64822  0.51626  Biso   1.000  Cu
  Cu7      1.0000 0.52401  0.99310  0.67849  Biso   1.000  Cu
  Cu8      1.0000 0.86341  0.49327  0.52477  Biso   1.000  Cu
  Cu9      1.0000 0.00804  0.14979  0.01838  Biso   1.000  Cu
  Cu10     1.0000 0.02275  0.99583  0.86196  Biso   1.000  Cu
  Cu11     1.0000 0.36281  0.50730  0.02092  Biso   1.000  Cu
  Cu12     1.0000 0.51434  0.14043  0.51978  Biso   1.000  Cu
  Cu13     1.0000 0.01714  0.49916  0.36629  Biso   1.000  Cu
  Cu14     1.0000 0.36633  0.99777  0.53171  Biso   1.000  Cu
  Cu15     1.0000 0.50727  0.34182  0.01814  Biso   1.000  Cu
  Cu16     1.0000 0.51838  0.49647  0.17392  Biso   1.000  Cu
  Cu17     1.0000 0.86396  0.98438  0.01026  Biso   1.000  Cu
  Cu18     1.0000 0.01760  0.34362  0.52012  Biso   1.000  Cu
  Cu19     1.0000 0.50541  0.00180  0.36848  Biso   1.000  Cu
  Cu20     1.0000 0.17199  0.49399  0.52086  Biso   1.000  Cu
  Cu21     1.0000 0.02489  0.84074  0.01381  Biso   1.000  Cu
  Cu22     1.0000 0.99875  0.99816  0.17383  Biso   1.000  Cu
  Cu23     1.0000 0.67064  0.48578  0.02395  Biso   1.000  Cu
  Cu24     1.0000 0.51840  0.84331  0.52615  Biso   1.000  Cu
  Cu25     1.0000 0.22213  0.00771  0.03615  Biso   1.000  Cu
  Cu26     1.0000 0.00587  0.20537  0.02139  Biso   1.000  Cu
  Cu27     1.0000 0.99588  0.99449  0.22953  Biso   1.000  Cu
  Cu28     1.0000 0.72578  0.99502  0.50711  Biso   1.000  Cu
  Cu29     1.0000 0.51649  0.19592  0.52252  Biso   1.000  Cu
  Cu30     1.0000 0.50001  0.99923  0.31491  Biso   1.000  Cu
  Cu31     1.0000 0.30945  0.51054  0.02213  Biso   1.000  Cu
  Cu32     1.0000 0.53220  0.70204  0.02154  Biso   1.000  Cu
  Cu33     1.0000 0.51832  0.49329  0.22879  Biso   1.000  Cu
  Cu34     1.0000 0.81037  0.49507  0.52018  Biso   1.000  Cu
  Cu35     1.0000 0.02145  0.70381  0.51943  Biso   1.000  Cu
  Cu36     1.0000 0.01678  0.49937  0.31198  Biso   1.000  Cu
  Cu37     1.0000 0.80910  0.98155  0.00426  Biso   1.000  Cu
  Cu38     1.0000 0.02706  0.78744  0.01144  Biso   1.000  Cu
  Cu39     1.0000 0.02630  0.99530  0.80767  Biso   1.000  Cu
  Cu40     1.0000 0.31062  0.99707  0.53326  Biso   1.000  Cu
  Cu41     1.0000 0.51823  0.79001  0.52325  Biso   1.000  Cu
  Cu42     1.0000 0.53001  0.99236  0.73250  Biso   1.000  Cu
  Cu43     1.0000 0.72496  0.48231  0.02467  Biso   1.000  Cu
  Cu44     1.0000 0.50608  0.28726  0.01893  Biso   1.000  Cu
  Cu45     1.0000 0.51571  0.49497  0.81166  Biso   1.000  Cu
  Cu46     1.0000 0.22594  0.49799  0.52471  Biso   1.000  Cu
  Cu47     1.0000 0.01943  0.29058  0.51771  Biso   1.000  Cu
  Cu48     1.0000 0.01331  0.49448  0.73364  Biso   1.000  Cu
  H1       1.0000 0.25476  0.78462  0.49807  Biso   1.000  H
  H2       1.0000 0.54558  0.23403  0.80985  Biso   1.000  H
  H3       1.0000 0.76349  0.45087  0.30701  Biso   1.000  H
  H4       1.0000 0.76413  0.76862  0.97594  Biso   1.000  H
  H5       1.0000 0.00591  0.22639  0.72347  Biso   1.000  H
  H6       1.0000 0.30572  0.55241  0.28377  Biso   1.000  H
  H7       1.0000 0.26990  0.27127  0.55305  Biso   1.000  H
  H8       1.0000 0.01953  0.78229  0.75560  Biso   1.000  H
  H9       1.0000 0.71330  0.03279  0.25065  Biso   1.000  H
  H10      1.0000 0.77122  0.27451  0.03472  Biso   1.000  H
  H11      1.0000 0.47587  0.77952  0.78385  Biso   1.000  H
  H12      1.0000 0.25421  0.04773  0.24822  Biso   1.000  H
  H13      1.0000 0.72400  0.25861  0.49058  Biso   1.000  H
  H14      1.0000 0.55088  0.76002  0.23499  Biso   1.000  H
  H15      1.0000 0.27110  0.43628  0.73578  Biso   1.000  H
  H16      1.0000 0.26501  0.21739  0.06441  Biso   1.000  H
  H17      1.0000 0.06187  0.74608  0.28938  Biso   1.000  H
  H18      1.0000 0.71619  0.53007  0.75921  Biso   1.000  H
  H19      1.0000 0.81570  0.76166  0.50982  Biso   1.000  H
  H20      1.0000 0.03284  0.20728  0.28456  Biso   1.000  H
  H21      1.0000 0.26178  0.01211  0.74527  Biso   1.000  H
  H22      1.0000 0.26962  0.72066  0.06015  Biso   1.000  H
  H23      1.0000 0.53494  0.20577  0.25146  Biso   1.000  H
  H24      1.0000 0.77742  0.92315  0.78648  Biso   1.000  H
  H25      1.0000 0.28871  0.01828  0.81472  Biso   1.000  H
  H26      1.0000 0.79321  0.23958  0.04527  Biso   1.000  H
  H27      1.0000 0.99474  0.72845  0.22143  Biso   1.000  H
  H28      1.0000 0.78427  0.93294  0.71230  Biso   1.000  H
  H29      1.0000 0.24954  0.20139  0.49401  Biso   1.000  H
  H30      1.0000 0.53279  0.79413  0.25729  Biso   1.000  H
  H31      1.0000 0.30405  0.49234  0.75489  Biso   1.000  H
  H32      1.0000 0.78900  0.69506  0.03727  Biso   1.000  H
  H33      1.0000 0.48393  0.27849  0.27807  Biso   1.000  H
  H34      1.0000 0.74865  0.54109  0.73730  Biso   1.000  H
  H35      1.0000 0.22587  0.76678  0.54392  Biso   1.000  H
  H36      1.0000 0.97183  0.28363  0.25984  Biso   1.000  H
  H37      1.0000 0.73519  0.96849  0.21103  Biso   1.000  H
  H38      1.0000 0.28226  0.79678  0.99288  Biso   1.000  H
  H39      1.0000 0.99066  0.25886  0.80338  Biso   1.000  H
  H40      1.0000 0.23902  0.98638  0.32858  Biso   1.000  H
  H41      1.0000 0.78485  0.78605  0.54788  Biso   1.000  H
  H42      1.0000 0.50142  0.20899  0.78901  Biso   1.000  H
  H43      1.0000 0.72190  0.46816  0.28976  Biso   1.000  H
  H44      1.0000 0.23965  0.29934  0.00628  Biso   1.000  H
  H45      1.0000 0.53814  0.69953  0.75892  Biso   1.000  H
  H46      1.0000 0.28710  0.49496  0.30463  Biso   1.000  H
  H47      1.0000 0.75172  0.28264  0.53824  Biso   1.000  H
  H48      1.0000 0.07913  0.70648  0.78406  Biso   1.000  H
  H49      1.0000 0.22455  0.54643  0.25835  Biso   1.000  H
  H50      1.0000 0.31371  0.26750  0.52114  Biso   1.000  H
  H51      1.0000 0.55617  0.24285  0.23698  Biso   1.000  H
  H52      1.0000 0.78189  0.50419  0.22797  Biso   1.000  H
  H53      1.0000 0.75078  0.19920  0.97015  Biso   1.000  H
  H54      1.0000 0.04468  0.24177  0.29870  Biso   1.000  H
  H55      1.0000 0.28858  0.04036  0.27067  Biso   1.000  H
  H56      1.0000 0.28470  0.70170  0.50883  Biso   1.000  H
  H57      1.0000 0.04456  0.78282  0.27611  Biso   1.000  H
  H58      1.0000 0.78160  0.02850  0.26747  Biso   1.000  H
  H59      1.0000 0.73699  0.73679  0.96990  Biso   1.000  H
  H60      1.0000 0.49271  0.73569  0.31629  Biso   1.000  H
  H61      1.0000 0.79894  0.47489  0.78084  Biso   1.000  H
  H62      1.0000 0.72766  0.72352  0.51377  Biso   1.000  H
  H63      1.0000 0.48140  0.75403  0.81525  Biso   1.000  H
  H64      1.0000 0.25300  0.44650  0.81483  Biso   1.000  H
  H65      1.0000 0.24505  0.75007  0.06529  Biso   1.000  H
  H66      1.0000 0.03108  0.75814  0.72170  Biso   1.000  H
  H67      1.0000 0.74555  0.99753  0.76935  Biso   1.000  H
  H68      1.0000 0.80927  0.22992  0.48720  Biso   1.000  H
  H69      1.0000 0.05547  0.20841  0.76153  Biso   1.000  H
  H70      1.0000 0.24018  0.95279  0.77338  Biso   1.000  H
  H71      1.0000 0.29759  0.24410  0.05921  Biso   1.000  H
  H72      1.0000 0.54818  0.25505  0.72513  Biso   1.000  H
  H73      1.0000 0.77649  0.48149  0.81390  Biso   1.000  H
  H74      1.0000 0.75729  0.70019  0.54960  Biso   1.000  H
  H75      1.0000 0.53686  0.73168  0.72965  Biso   1.000  H
  H76      1.0000 0.23038  0.49974  0.78691  Biso   1.000  H
  H77      1.0000 0.31317  0.76765  0.99207  Biso   1.000  H
  H78      1.0000 0.09184  0.74224  0.80429  Biso   1.000  H
  H79      1.0000 0.80876  0.99816  0.74250  Biso   1.000  H
  H80      1.0000 0.78273  0.19932  0.53522  Biso   1.000  H
  H81      1.0000 0.03676  0.28771  0.78765  Biso   1.000  H
  H82      1.0000 0.31817  0.96118  0.79731  Biso   1.000  H
  H83      1.0000 0.22434  0.26024  0.98883  Biso   1.000  H
  H84      1.0000 0.49990  0.28381  0.74442  Biso   1.000  H
  H85      1.0000 0.25169  0.50194  0.22652  Biso   1.000  H
  H86      1.0000 0.23611  0.24410  0.46934  Biso   1.000  H
  H87      1.0000 0.50345  0.26518  0.31518  Biso   1.000  H
  H88      1.0000 0.79565  0.52495  0.26614  Biso   1.000  H
  H89      1.0000 0.71450  0.22031  0.98139  Biso   1.000  H
  H90      1.0000 0.98612  0.26045  0.22228  Biso   1.000  H
  H91      1.0000 0.20293  0.98430  0.29955  Biso   1.000  H
  H92      1.0000 0.30700  0.73537  0.55472  Biso   1.000  H
  H93      1.0000 0.98052  0.71433  0.26256  Biso   1.000  H
  H94      1.0000 0.75616  0.95808  0.28460  Biso   1.000  H
  H95      1.0000 0.82010  0.71572  0.02973  Biso   1.000  H
  H96      1.0000 0.48006  0.71269  0.28007  Biso   1.000  H
  H97      1.0000 0.89113  0.98129  0.91639  Biso   1.000  H
  H98      1.0000 0.93113  0.85704  0.00403  Biso   1.000  H
  H99      1.0000 0.04201  0.90824  0.88310  Biso   1.000  H
  H100     1.0000 0.39155  0.98764  0.62122  Biso   1.000  H
  H101     1.0000 0.42713  0.86808  0.51513  Biso   1.000  H
  H102     1.0000 0.51686  0.90199  0.65696  Biso   1.000  H
  H103     1.0000 0.65218  0.49797  0.93534  Biso   1.000  H
  H104     1.0000 0.60032  0.35686  0.01129  Biso   1.000  H
  H105     1.0000 0.50665  0.40642  0.87812  Biso   1.000  H
  H106     1.0000 0.14668  0.48440  0.61235  Biso   1.000  H
  H107     1.0000 0.11143  0.36377  0.52054  Biso   1.000  H
  H108     1.0000 0.00028  0.40384  0.65451  Biso   1.000  H
  H109     1.0000 0.13479  0.01102  0.11934  Biso   1.000  H
  H110     1.0000 0.09927  0.13406  0.02258  Biso   1.000  H
  H111     1.0000 0.99377  0.08268  0.15571  Biso   1.000  H
  H112     1.0000 0.64734  0.00091  0.42105  Biso   1.000  H
  H113     1.0000 0.60861  0.12378  0.51860  Biso   1.000  H
  H114     1.0000 0.51246  0.09220  0.38679  Biso   1.000  H
  H115     1.0000 0.38633  0.50525  0.11545  Biso   1.000  H
  H116     1.0000 0.43474  0.63947  0.03363  Biso   1.000  H
  H117     1.0000 0.52290  0.58914  0.15885  Biso   1.000  H
  H118     1.0000 0.88496  0.49236  0.43419  Biso   1.000  H
  H119     1.0000 0.93071  0.62673  0.51606  Biso   1.000  H
  H120     1.0000 0.01609  0.59058  0.38810  Biso   1.000  H
  H121     1.0000 0.11338  0.99962  0.88788  Biso   1.000  H
  H122     1.0000 0.88099  0.07927  0.01336  Biso   1.000  H
  H123     1.0000 0.00993  0.85847  0.09971  Biso   1.000  H
  H124     1.0000 0.61091  0.98606  0.64777  Biso   1.000  H
  H125     1.0000 0.38086  0.08893  0.53321  Biso   1.000  H
  H126     1.0000 0.50765  0.86682  0.43525  Biso   1.000  H
  H127     1.0000 0.42587  0.48313  0.88912  Biso   1.000  H
  H128     1.0000 0.65774  0.57370  0.03096  Biso   1.000  H
  H129     1.0000 0.51166  0.36207  0.10915  Biso   1.000  H
  H130     1.0000 0.92161  0.50216  0.65855  Biso   1.000  H
  H131     1.0000 0.15110  0.58972  0.52238  Biso   1.000  H
  H132     1.0000 0.01413  0.36476  0.42869  Biso   1.000  H
  H133     1.0000 0.91084  0.00095  0.15003  Biso   1.000  H
  H134     1.0000 0.15583  0.91192  0.02133  Biso   1.000  H
  H135     1.0000 0.01143  0.13490  0.92896  Biso   1.000  H
  H136     1.0000 0.41800  0.00656  0.39323  Biso   1.000  H
  H137     1.0000 0.65391  0.90458  0.52003  Biso   1.000  H
  H138     1.0000 0.51411  0.11844  0.61116  Biso   1.000  H
  H139     1.0000 0.60403  0.49686  0.15492  Biso   1.000  H
  H140     1.0000 0.38001  0.41573  0.02527  Biso   1.000  H
  H141     1.0000 0.50991  0.63017  0.93345  Biso   1.000  H
  H142     1.0000 0.11285  0.50565  0.38761  Biso   1.000  H
  H143     1.0000 0.88404  0.40237  0.52640  Biso   1.000  H
  H144     1.0000 0.03146  0.62495  0.61324  Biso   1.000  H
  H145     1.0000 0.60301  0.49988  0.88821  Biso   1.000  H
  H146     1.0000 0.88979  0.58461  0.51787  Biso   1.000  H
  H147     1.0000 0.51986  0.86079  0.61490  Biso   1.000  H
  H148     1.0000 0.10424  0.48751  0.65387  Biso   1.000  H
  H149     1.0000 0.39231  0.59717  0.02788  Biso   1.000  H
  H150     1.0000 0.03840  0.86478  0.92635  Biso   1.000  H
  H151     1.0000 0.93076  0.98998  0.87864  Biso   1.000  H
  H152     1.0000 0.64660  0.08768  0.50475  Biso   1.000  H
  H153     1.0000 0.00548  0.36266  0.61250  Biso   1.000  H
  H154     1.0000 0.43633  0.98247  0.66286  Biso   1.000  H
  H155     1.0000 0.14402  0.09295  0.02776  Biso   1.000  H
  H156     1.0000 0.50425  0.36274  0.92530  Biso   1.000  H
  H157     1.0000 0.42546  0.50472  0.15588  Biso   1.000  H
  H158     1.0000 0.15824  0.40646  0.52368  Biso   1.000  H
  H159     1.0000 0.52302  0.12735  0.42565  Biso   1.000  H
  H160     1.0000 0.92581  0.49578  0.38910  Biso   1.000  H
  H161     1.0000 0.64698  0.39777  0.01583  Biso   1.000  H
  H162     1.0000 0.99885  0.12742  0.11432  Biso   1.000  H
  H163     1.0000 0.09213  0.00518  0.15733  Biso   1.000  H
  H164     1.0000 0.38239  0.91080  0.51289  Biso   1.000  H
  H165     1.0000 0.02444  0.63283  0.42707  Biso   1.000  H
  H166     1.0000 0.60047  0.99601  0.38264  Biso   1.000  H
  H167     1.0000 0.88677  0.89383  0.00250  Biso   1.000  H
  H168     1.0000 0.52504  0.62772  0.11731  Biso   1.000  H
  H169     1.0000 0.01551  0.08457  0.88317  Biso   1.000  H
  H170     1.0000 0.87401  0.99272  0.10336  Biso   1.000  H
  H171     1.0000 0.11060  0.86891  0.03151  Biso   1.000  H
  H172     1.0000 0.52186  0.07894  0.65503  Biso   1.000  H
  H173     1.0000 0.38286  0.00292  0.43575  Biso   1.000  H
  H174     1.0000 0.61187  0.86274  0.52316  Biso   1.000  H
  H175     1.0000 0.49946  0.58879  0.88900  Biso   1.000  H
  H176     1.0000 0.64811  0.49078  0.11239  Biso   1.000  H
  H177     1.0000 0.42063  0.36469  0.01372  Biso   1.000  H
  H178     1.0000 0.02521  0.58551  0.65475  Biso   1.000  H
  H179     1.0000 0.15642  0.50127  0.42931  Biso   1.000  H
  H180     1.0000 0.92836  0.35791  0.52652  Biso   1.000  H
  H181     1.0000 0.01361  0.90299  0.14884  Biso   1.000  H
  H182     1.0000 0.15398  0.00596  0.93219  Biso   1.000  H
  H183     1.0000 0.92117  0.12262  0.01564  Biso   1.000  H
  H184     1.0000 0.49711  0.91153  0.39208  Biso   1.000  H
  H185     1.0000 0.65520  0.99186  0.60221  Biso   1.000  H
  H186     1.0000 0.42195  0.12734  0.52182  Biso   1.000  H
  H187     1.0000 0.50971  0.40289  0.15184  Biso   1.000  H
  H188     1.0000 0.38160  0.49417  0.93310  Biso   1.000  H
  H189     1.0000 0.61735  0.61849  0.01778  Biso   1.000  H
  H190     1.0000 0.00486  0.40648  0.38552  Biso   1.000  H
  H191     1.0000 0.88070  0.50335  0.61294  Biso   1.000  H
  H192     1.0000 0.11015  0.63150  0.51909  Biso   1.000  H
  H193     1.0000 0.29039  0.85707  0.53202  Biso   1.000  H
  H194     1.0000 0.49819  0.26728  0.87060  Biso   1.000  H
  H195     1.0000 0.87119  0.50698  0.29207  Biso   1.000  H
  H196     1.0000 0.79370  0.83723  0.00640  Biso   1.000  H
  H197     1.0000 0.03437  0.26911  0.66119  Biso   1.000  H
  H198     1.0000 0.37586  0.51663  0.25435  Biso   1.000  H
  H199     1.0000 0.25078  0.35264  0.51348  Biso   1.000  H
  H200     1.0000 0.04908  0.77120  0.86376  Biso   1.000  H
  H201     1.0000 0.64230  0.99189  0.27953  Biso   1.000  H
  H202     1.0000 0.73777  0.33379  0.00622  Biso   1.000  H
  H203     1.0000 0.50687  0.76481  0.66612  Biso   1.000  H
  H204     1.0000 0.13810  0.01673  0.25915  Biso   1.000  H
  H205     1.0000 0.74609  0.13687  0.49969  Biso   1.000  H
  H206     1.0000 0.52613  0.72575  0.16535  Biso   1.000  H
  H207     1.0000 0.15838  0.47315  0.75147  Biso   1.000  H
  H208     1.0000 0.23739  0.15083  0.04051  Biso   1.000  H
  H209     1.0000 0.03029  0.72830  0.37116  Biso   1.000  H
  H210     1.0000 0.66194  0.49450  0.79632  Biso   1.000  H
  H211     1.0000 0.79360  0.63649  0.51495  Biso   1.000  H
  H212     1.0000 0.01340  0.22286  0.16458  Biso   1.000  H
  H213     1.0000 0.38518  0.99659  0.75927  Biso   1.000  H
  H214     1.0000 0.29688  0.65114  0.01508  Biso   1.000  H
  H215     1.0000 0.54083  0.22393  0.38154  Biso   1.000  H
  H216     1.0000 0.88539  0.97875  0.77733  Biso   1.000  H
  H217     1.0000 0.25186  0.51177  0.37751  Biso   1.000  H
  H218     1.0000 0.38009  0.22227  0.49286  Biso   1.000  H
  H219     1.0000 0.50274  0.35432  0.24987  Biso   1.000  H
  H220     1.0000 0.74214  0.45944  0.16670  Biso   1.000  H
  H221     1.0000 0.85812  0.21408  0.00714  Biso   1.000  H
  H222     1.0000 0.01731  0.35297  0.28851  Biso   1.000  H
  H223     1.0000 0.28003  0.01829  0.39337  Biso   1.000  H
  H224     1.0000 0.16590  0.72389  0.51548  Biso   1.000  H
  H225     1.0000 0.99538  0.85035  0.24172  Biso   1.000  H
  H226     1.0000 0.77195  0.00130  0.14620  Biso   1.000  H
  H227     1.0000 0.67494  0.70630  0.99165  Biso   1.000  H
  H228     1.0000 0.49158  0.85225  0.29634  Biso   1.000  H
  H229     1.0000 0.78368  0.51485  0.66760  Biso   1.000  H
  H230     1.0000 0.65769  0.76415  0.54144  Biso   1.000  H
  H231     1.0000 0.51661  0.63518  0.79006  Biso   1.000  H
  H232     1.0000 0.28690  0.49429  0.87508  Biso   1.000  H
  H233     1.0000 0.16986  0.77546  0.03452  Biso   1.000  H
  H234     1.0000 0.04236  0.63417  0.75202  Biso   1.000  H
  H235     1.0000 0.75246  0.97589  0.65155  Biso   1.000  H
  H236     1.0000 0.87713  0.26428  0.52977  Biso   1.000  H
  H237     1.0000 0.01171  0.13798  0.78641  Biso   1.000  H
  H238     1.0000 0.25354  0.98922  0.88804  Biso   1.000  H
  H239     1.0000 0.35712  0.27728  0.03169  Biso   1.000  H
  H240     1.0000 0.52579  0.13772  0.75033  Biso   1.000  H
  H241     1.0000 0.74435  0.51146  0.88105  Biso   1.000  H
  H242     1.0000 0.87918  0.72260  0.52352  Biso   1.000  H
  H243     1.0000 0.50824  0.85008  0.75394  Biso   1.000  H
  H244     1.0000 0.24168  0.47526  0.66922  Biso   1.000  H
  H245     1.0000 0.38407  0.73549  0.02662  Biso   1.000  H
  H246     1.0000 0.04664  0.85189  0.78823  Biso   1.000  H
  H247     1.0000 0.79625  0.95778  0.86030  Biso   1.000  H
  H248     1.0000 0.65666  0.22328  0.51643  Biso   1.000  H
  H249     1.0000 0.00272  0.35069  0.75021  Biso   1.000  H
  H250     1.0000 0.29748  0.97834  0.67730  Biso   1.000  H
  H251     1.0000 0.14691  0.23164  0.02206  Biso   1.000  H
  H252     1.0000 0.52446  0.34773  0.78510  Biso   1.000  H
  H253     1.0000 0.29041  0.52045  0.16399  Biso   1.000  H
  H254     1.0000 0.15900  0.26682  0.50401  Biso   1.000  H
  H255     1.0000 0.50330  0.14438  0.29006  Biso   1.000  H
  H256     1.0000 0.79118  0.49209  0.37767  Biso   1.000  H
  H257     1.0000 0.64584  0.25711  0.02199  Biso   1.000  H
  H258     1.0000 0.99462  0.14151  0.25082  Biso   1.000  H
  H259     1.0000 0.22834  0.01296  0.17913  Biso   1.000  H
  H260     1.0000 0.37490  0.76994  0.52213  Biso   1.000  H
  H261     1.0000 0.02133  0.63953  0.28754  Biso   1.000  H
  H262     1.0000 0.73525  0.98329  0.35938  Biso   1.000  H
  H263     1.0000 0.88745  0.75609  0.99097  Biso   1.000  H
  H264     1.0000 0.53187  0.64077  0.25454  Biso   1.000  H
  H265     1.0000 0.01837  0.22828  0.87197  Biso   1.000  H
  H266     1.0000 0.85235  0.98987  0.24308  Biso   1.000  H
  H267     1.0000 0.25462  0.86539  0.03444  Biso   1.000  H
  H268     1.0000 0.49792  0.21462  0.66329  Biso   1.000  H
  H269     1.0000 0.35358  0.00734  0.30103  Biso   1.000  H
  H270     1.0000 0.75055  0.85004  0.51457  Biso   1.000  H
  H271     1.0000 0.52530  0.72377  0.87505  Biso   1.000  H
  H272     1.0000 0.66190  0.49923  0.25104  Biso   1.000  H
  H273     1.0000 0.27754  0.36962  0.02932  Biso   1.000  H
  H274     1.0000 0.06309  0.72018  0.66403  Biso   1.000  H
  H275     1.0000 0.16242  0.50605  0.28851  Biso   1.000  H
  H276     1.0000 0.78926  0.34425  0.51547  Biso   1.000  H
  H277     1.0000 0.02356  0.76676  0.15847  Biso   1.000  H
  H278     1.0000 0.17381  0.98797  0.79509  Biso   1.000  H
  H279     1.0000 0.78242  0.12584  0.99499  Biso   1.000  H
  H280     1.0000 0.53055  0.77605  0.37746  Biso   1.000  H
  H281     1.0000 0.67048  0.96320  0.73933  Biso   1.000  H
  H282     1.0000 0.28614  0.14411  0.52886  Biso   1.000  H
  H283     1.0000 0.52016  0.26744  0.16355  Biso   1.000  H
  H284     1.0000 0.37292  0.46962  0.79246  Biso   1.000  H
  H285     1.0000 0.75519  0.62317  0.01038  Biso   1.000  H
  H286     1.0000 0.01303  0.26841  0.37668  Biso   1.000  H
  H287     1.0000 0.87005  0.51186  0.75568  Biso   1.000  H
  H288     1.0000 0.24531  0.63867  0.54637  Biso   1.000  H
  H289     1.0000 0.09562  0.22704  0.01359  Biso   1.000  H
  H290     1.0000 0.98584  0.08847  0.25180  Biso   1.000  H
  H291     1.0000 0.22816  0.00835  0.12615  Biso   1.000  H
  H292     1.0000 0.60463  0.21681  0.53081  Biso   1.000  H
  H293     1.0000 0.49217  0.09104  0.29351  Biso   1.000  H
  H294     1.0000 0.73890  0.97856  0.41369  Biso   1.000  H
  H295     1.0000 0.43972  0.73544  0.03260  Biso   1.000  H
  H296     1.0000 0.52462  0.58487  0.25460  Biso   1.000  H
  H297     1.0000 0.29189  0.52037  0.10814  Biso   1.000  H
  H298     1.0000 0.93000  0.72293  0.51456  Biso   1.000  H
  H299     1.0000 0.01074  0.58833  0.28901  Biso   1.000  H
  H300     1.0000 0.79108  0.48496  0.43210  Biso   1.000  H
  H301     1.0000 0.93949  0.76162  0.98921  Biso   1.000  H
  H302     1.0000 0.03971  0.90752  0.78589  Biso   1.000  H
  H303     1.0000 0.79441  0.96442  0.91478  Biso   1.000  H
  H304     1.0000 0.42575  0.77221  0.51859  Biso   1.000  H
  H305     1.0000 0.51145  0.90334  0.75391  Biso   1.000  H
  H306     1.0000 0.29483  0.97166  0.62231  Biso   1.000  H
  H307     1.0000 0.59139  0.26449  0.02449  Biso   1.000  H
  H308     1.0000 0.52735  0.40226  0.78366  Biso   1.000  H
  H309     1.0000 0.74743  0.51050  0.93422  Biso   1.000  H
  H310     1.0000 0.10861  0.26943  0.50649  Biso   1.000  H
  H311     1.0000 0.00069  0.40555  0.75161  Biso   1.000  H
  H312     1.0000 0.24450  0.48236  0.61454  Biso   1.000  H
  H313     1.0000 0.24885  0.99572  0.94567  Biso   1.000  H
  H314     1.0000 0.91221  0.21955  0.00947  Biso   1.000  H
  H315     1.0000 0.98957  0.90576  0.24188  Biso   1.000  H
  H316     1.0000 0.75293  0.99030  0.60312  Biso   1.000  H
  H317     1.0000 0.43049  0.21863  0.49404  Biso   1.000  H
  H318     1.0000 0.48959  0.90744  0.29351  Biso   1.000  H
  H319     1.0000 0.28917  0.50751  0.92904  Biso   1.000  H
  H320     1.0000 0.62256  0.71448  0.00642  Biso   1.000  H
  H321     1.0000 0.50104  0.40855  0.24711  Biso   1.000  H
  H322     1.0000 0.78530  0.51092  0.61112  Biso   1.000  H
  H323     1.0000 0.10945  0.72339  0.50487  Biso   1.000  H
  H324     1.0000 0.02456  0.40591  0.29121  Biso   1.000  H
  H325     1.0000 0.78001  0.00327  0.09282  Biso   1.000  H
  H326     1.0000 0.11478  0.77536  0.03598  Biso   1.000  H
  H327     1.0000 0.01615  0.08138  0.79022  Biso   1.000  H
  H328     1.0000 0.28729  0.00925  0.45090  Biso   1.000  H
  H329     1.0000 0.60438  0.77025  0.53767  Biso   1.000  H
  H330     1.0000 0.54600  0.08648  0.74937  Biso   1.000  H
  H331     1.0000 0.74138  0.46386  0.11074  Biso   1.000  H
  H332     1.0000 0.41257  0.27191  0.02548  Biso   1.000  H
  H333     1.0000 0.51202  0.58281  0.79441  Biso   1.000  H
  H334     1.0000 0.25256  0.50519  0.43031  Biso   1.000  H
  H335     1.0000 0.93149  0.26667  0.53267  Biso   1.000  H
  H336     1.0000 0.03045  0.58548  0.74999  Biso   1.000  H
  H337     1.0000 0.01679  0.22805  0.92623  Biso   1.000  H
  H338     1.0000 0.90738  0.99278  0.24665  Biso   1.000  H
  H339     1.0000 0.24930  0.91891  0.03102  Biso   1.000  H
  H340     1.0000 0.48946  0.21059  0.61115  Biso   1.000  H
  H341     1.0000 0.40889  0.00515  0.29620  Biso   1.000  H
  H342     1.0000 0.74650  0.90290  0.51031  Biso   1.000  H
  H343     1.0000 0.52063  0.72645  0.93183  Biso   1.000  H
  H344     1.0000 0.60542  0.50441  0.25127  Biso   1.000  H
  H345     1.0000 0.28315  0.42236  0.03189  Biso   1.000  H
  H346     1.0000 0.05031  0.71878  0.61130  Biso   1.000  H
  H347     1.0000 0.11080  0.50721  0.28763  Biso   1.000  H
  H348     1.0000 0.78643  0.39925  0.51556  Biso   1.000  H
  H349     1.0000 0.02098  0.76500  0.10471  Biso   1.000  H
  H350     1.0000 0.11991  0.98967  0.79061  Biso   1.000  H
  H351     1.0000 0.78570  0.07066  0.99767  Biso   1.000  H
  H352     1.0000 0.52831  0.77301  0.42974  Biso   1.000  H
  H353     1.0000 0.61792  0.97214  0.74191  Biso   1.000  H
  H354     1.0000 0.28549  0.09132  0.53652  Biso   1.000  H
  H355     1.0000 0.52925  0.26820  0.10984  Biso   1.000  H
  H356     1.0000 0.42853  0.47296  0.79373  Biso   1.000  H
  H357     1.0000 0.75048  0.56842  0.02547  Biso   1.000  H
  H358     1.0000 0.01366  0.27135  0.42964  Biso   1.000  H
  H359     1.0000 0.92312  0.50320  0.75305  Biso   1.000  H
  H360     1.0000 0.24677  0.58542  0.53689  Biso   1.000  H
  H361     1.0000 0.03094  0.72955  0.42805  Biso   1.000  H
  H362     1.0000 0.43789  0.99279  0.75953  Biso   1.000  H
  H363     1.0000 0.74155  0.39002  0.00844  Biso   1.000  H
  H364     1.0000 0.52748  0.72146  0.11026  Biso   1.000  H
  H365     1.0000 0.93486  0.99864  0.78209  Biso   1.000  H
  H366     1.0000 0.24925  0.40774  0.51821  Biso   1.000  H
  H367     1.0000 0.54826  0.21883  0.43160  Biso   1.000  H
  H368     1.0000 0.10218  0.48401  0.75304  Biso   1.000  H
  H369     1.0000 0.79226  0.88754  0.01019  Biso   1.000  H
  H370     1.0000 0.02022  0.22164  0.11283  Biso   1.000  H
  H371     1.0000 0.60400  0.49501  0.79372  Biso   1.000  H
  H372     1.0000 0.28972  0.90726  0.53094  Biso   1.000  H
  H373     1.0000 0.03379  0.27085  0.60735  Biso   1.000  H
  H374     1.0000 0.58718  0.99546  0.28612  Biso   1.000  H
  H375     1.0000 0.29584  0.60267  0.02362  Biso   1.000  H
  H376     1.0000 0.49434  0.26883  0.92352  Biso   1.000  H
  H377     1.0000 0.08279  0.00672  0.25444  Biso   1.000  H
  H378     1.0000 0.79492  0.58267  0.51900  Biso   1.000  H
  H379     1.0000 0.51409  0.76495  0.61080  Biso   1.000  H
  H380     1.0000 0.92885  0.50600  0.29300  Biso   1.000  H
  H381     1.0000 0.24058  0.09912  0.03913  Biso   1.000  H
  H382     1.0000 0.04384  0.76970  0.92101  Biso   1.000  H
  H383     1.0000 0.42780  0.50932  0.25424  Biso   1.000  H
  H384     1.0000 0.74729  0.08648  0.49729  Biso   1.000  H
  H385     1.0000 0.24798  0.48270  0.34018  Biso   1.000  H
  H386     1.0000 0.28568  0.16499  0.48979  Biso   1.000  H
  H387     1.0000 0.47605  0.31621  0.24366  Biso   1.000  H
  H388     1.0000 0.68432  0.46578  0.25792  Biso   1.000  H
  H389     1.0000 0.83090  0.20309  0.04571  Biso   1.000  H
  H390     1.0000 0.97392  0.32262  0.29558  Biso   1.000  H
  H391     1.0000 0.28194  0.98591  0.36168  Biso   1.000  H
  H392     1.0000 0.18969  0.72799  0.55236  Biso   1.000  H
  H393     1.0000 0.98918  0.76474  0.18548  Biso   1.000  H
  H394     1.0000 0.77148  0.96538  0.17673  Biso   1.000  H
  H395     1.0000 0.75167  0.65779  0.04137  Biso   1.000  H
  H396     1.0000 0.53478  0.83023  0.29481  Biso   1.000  H
  H397     1.0000 0.78546  0.54510  0.70025  Biso   1.000  H
  H398     1.0000 0.74667  0.82053  0.55211  Biso   1.000  H
  H399     1.0000 0.53611  0.66645  0.79558  Biso   1.000  H
  H400     1.0000 0.34037  0.50367  0.79192  Biso   1.000  H
  H401     1.0000 0.24047  0.82866  0.99370  Biso   1.000  H
  H402     1.0000 0.07697  0.66604  0.75107  Biso   1.000  H
  H403     1.0000 0.74508  0.93748  0.67596  Biso   1.000  H
  H404     1.0000 0.78786  0.31597  0.55195  Biso   1.000  H
  H405     1.0000 0.98283  0.22109  0.83939  Biso   1.000  H
  H406     1.0000 0.25254  0.02470  0.85181  Biso   1.000  H
  H407     1.0000 0.27590  0.33421  0.00341  Biso   1.000  H
  H408     1.0000 0.49441  0.16559  0.75660  Biso   1.000  H
  H409     1.0000 0.29189  0.49051  0.19729  Biso   1.000  H
  H410     1.0000 0.19839  0.28190  0.47036  Biso   1.000  H
  H411     1.0000 0.50441  0.23031  0.35598  Biso   1.000  H
  H412     1.0000 0.83577  0.53214  0.30145  Biso   1.000  H
  H413     1.0000 0.67787  0.26321  0.98020  Biso   1.000  H
  H414     1.0000 0.97839  0.21661  0.18998  Biso   1.000  H
  H415     1.0000 0.16793  0.98333  0.25748  Biso   1.000  H
  H416     1.0000 0.34568  0.77571  0.55489  Biso   1.000  H
  H417     1.0000 0.98228  0.67739  0.29860  Biso   1.000  H
  H418     1.0000 0.72387  0.95644  0.32779  Biso   1.000  H
  H419     1.0000 0.85714  0.75383  0.03010  Biso   1.000  H
  H420     1.0000 0.49074  0.67144  0.24922  Biso   1.000  H
  H421     1.0000 0.74168  0.47647  0.85023  Biso   1.000  H
  H422     1.0000 0.79894  0.66678  0.55192  Biso   1.000  H
  H423     1.0000 0.54124  0.76888  0.69760  Biso   1.000  H
  H424     1.0000 0.18801  0.50506  0.74951  Biso   1.000  H
  H425     1.0000 0.35162  0.73082  0.99191  Biso   1.000  H
  H426     1.0000 0.08625  0.77974  0.84132  Biso   1.000  H
  H427     1.0000 0.84549  0.00767  0.78262  Biso   1.000  H
  H428     1.0000 0.74528  0.16202  0.53744  Biso   1.000  H
  H429     1.0000 0.03819  0.32516  0.75146  Biso   1.000  H
  H430     1.0000 0.35617  0.95997  0.75799  Biso   1.000  H
  H431     1.0000 0.18476  0.22453  0.98990  Biso   1.000  H
  H432     1.0000 0.49166  0.32234  0.78061  Biso   1.000  H
  H433     1.0000 0.29563  0.01503  0.70501  Biso   1.000  H
  H434     1.0000 0.73122  0.30974  0.04469  Biso   1.000  H
  H435     1.0000 0.06464  0.71525  0.33272  Biso   1.000  H
  H436     1.0000 0.80800  0.93184  0.82600  Biso   1.000  H
  H437     1.0000 0.23919  0.31329  0.55381  Biso   1.000  H
  H438     1.0000 0.56149  0.71888  0.20683  Biso   1.000  H
  H439     1.0000 0.23081  0.43438  0.69739  Biso   1.000  H
  H440     1.0000 0.80014  0.80527  0.97412  Biso   1.000  H
  H441     1.0000 0.54145  0.16909  0.29052  Biso   1.000  H
  H442     1.0000 0.68266  0.53297  0.79828  Biso   1.000  H
  H443     1.0000 0.28920  0.82537  0.49621  Biso   1.000  H
  H444     1.0000 0.03233  0.16782  0.24935  Biso   1.000  H
  H445     1.0000 0.67988  0.03322  0.28803  Biso   1.000  H
  H446     1.0000 0.30569  0.68268  0.05727  Biso   1.000  H
  H447     1.0000 0.99963  0.26437  0.68481  Biso   1.000  H
  H448     1.0000 0.21832  0.04830  0.21124  Biso   1.000  H
  H449     1.0000 0.84849  0.72417  0.49616  Biso   1.000  H
  H450     1.0000 0.53761  0.26733  0.84915  Biso   1.000  H
  H451     1.0000 0.80083  0.45622  0.34677  Biso   1.000  H
  H452     1.0000 0.22698  0.18742  0.06838  Biso   1.000  H
  H453     1.0000 0.48106  0.81924  0.75316  Biso   1.000  H
  H454     1.0000 0.34766  0.55108  0.24566  Biso   1.000  H
  H455     1.0000 0.68747  0.22236  0.48635  Biso   1.000  H
  H456     1.0000 0.01730  0.81965  0.78892  Biso   1.000  H
  H457     1.0000 0.68641  0.75833  0.51307  Biso   1.000  H
  H458     1.0000 0.48699  0.72208  0.85142  Biso   1.000  H
  H459     1.0000 0.83711  0.48079  0.74650  Biso   1.000  H
  H460     1.0000 0.20632  0.78468  0.06724  Biso   1.000  H
  H461     1.0000 0.02565  0.71903  0.68925  Biso   1.000  H
  H462     1.0000 0.28971  0.45734  0.85724  Biso   1.000  H
  H463     1.0000 0.84677  0.26727  0.49349  Biso   1.000  H
  H464     1.0000 0.04882  0.16974  0.79675  Biso   1.000  H
  H465     1.0000 0.70444  0.00125  0.73222  Biso   1.000  H
  H466     1.0000 0.33296  0.28523  0.06476  Biso   1.000  H
  H467     1.0000 0.53935  0.21742  0.68919  Biso   1.000  H
  H468     1.0000 0.20200  0.95437  0.80865  Biso   1.000  H
  H469     1.0000 0.35055  0.22967  0.52555  Biso   1.000  H
  H470     1.0000 0.55216  0.28000  0.19760  Biso   1.000  H
  H471     1.0000 0.18817  0.54280  0.29535  Biso   1.000  H
  H472     1.0000 0.78863  0.16095  0.96747  Biso   1.000  H
  H473     1.0000 0.04508  0.27892  0.34301  Biso   1.000  H
  H474     1.0000 0.74206  0.50381  0.19155  Biso   1.000  H
  H475     1.0000 0.24892  0.66451  0.51104  Biso   1.000  H
  H476     1.0000 0.03627  0.82635  0.24360  Biso   1.000  H
  H477     1.0000 0.33000  0.04126  0.30483  Biso   1.000  H
  H478     1.0000 0.70322  0.69686  0.96945  Biso   1.000  H
  H479     1.0000 0.48632  0.77275  0.34975  Biso   1.000  H
  H480     1.0000 0.82133  0.02924  0.23462  Biso   1.000  H
  N1       1.0000 0.69215  0.16922  0.51101  Biso   1.000  N
  N2       1.0000 0.52469  0.67309  0.20131  Biso   1.000  N
  N3       1.0000 0.18863  0.47556  0.70063  Biso   1.000  N
  N4       1.0000 0.18350  0.18192  0.03141  Biso   1.000  N
  N5       1.0000 0.02536  0.67453  0.34168  Biso   1.000  N
  N6       1.0000 0.69026  0.50618  0.84993  Biso   1.000  N
  N7       1.0000 0.84567  0.67081  0.52302  Biso   1.000  N
  N8       1.0000 0.00503  0.17038  0.19718  Biso   1.000  N
  N9       1.0000 0.35181  0.98470  0.70773  Biso   1.000  N
  N10      1.0000 0.35159  0.68520  0.02462  Biso   1.000  N
  N11      1.0000 0.52194  0.17533  0.34460  Biso   1.000  N
  N12      1.0000 0.84967  0.97213  0.83071  Biso   1.000  N
  N13      1.0000 0.34202  0.82393  0.52244  Biso   1.000  N
  N14      1.0000 0.51008  0.31835  0.83807  Biso   1.000  N
  N15      1.0000 0.84259  0.49708  0.34619  Biso   1.000  N
  N16      1.0000 0.84982  0.80661  0.00245  Biso   1.000  N
  N17      1.0000 0.01386  0.31903  0.69719  Biso   1.000  N
  N18      1.0000 0.34341  0.51603  0.19900  Biso   1.000  N
  N19      1.0000 0.19677  0.31985  0.51343  Biso   1.000  N
  N20      1.0000 0.04843  0.82335  0.83875  Biso   1.000  N
  N21      1.0000 0.67852  0.99349  0.33209  Biso   1.000  N
  N22      1.0000 0.68248  0.30828  0.01332  Biso   1.000  N
  N23      1.0000 0.51133  0.81857  0.69979  Biso   1.000  N
  N24      1.0000 0.17232  0.01249  0.20932  Biso   1.000  N
  N25      1.0000 0.83726  0.51531  0.70015  Biso   1.000  N
  N26      1.0000 0.69446  0.81502  0.52705  Biso   1.000  N
  N27      1.0000 0.51319  0.67007  0.84536  Biso   1.000  N
  N28      1.0000 0.34028  0.48122  0.84651  Biso   1.000  N
  N29      1.0000 0.20108  0.83086  0.03225  Biso   1.000  N
  N30      1.0000 0.04871  0.66785  0.69963  Biso   1.000  N
  N31      1.0000 0.69956  0.96993  0.68520  Biso   1.000  N
  N32      1.0000 0.84088  0.31534  0.52605  Biso   1.000  N
  N33      1.0000 0.01389  0.17286  0.84117  Biso   1.000  N
  N34      1.0000 0.20281  0.99063  0.85312  Biso   1.000  N
  N35      1.0000 0.33022  0.33242  0.02889  Biso   1.000  N
  N36      1.0000 0.51750  0.16639  0.69719  Biso   1.000  N
  N37      1.0000 0.19635  0.51448  0.34224  Biso   1.000  N
  N38      1.0000 0.34024  0.17310  0.50997  Biso   1.000  N
  N39      1.0000 0.51354  0.32190  0.19566  Biso   1.000  N
  N40      1.0000 0.68972  0.48199  0.19818  Biso   1.000  N
  N41      1.0000 0.83271  0.15869  0.00676  Biso   1.000  N
  N42      1.0000 0.01031  0.32270  0.34193  Biso   1.000  N
  N43      1.0000 0.32949  0.01133  0.35630  Biso   1.000  N
  N44      1.0000 0.19695  0.67260  0.53103  Biso   1.000  N
  N45      1.0000 0.01093  0.81915  0.18914  Biso   1.000  N
  N46      1.0000 0.82354  0.99554  0.18456  Biso   1.000  N
  N47      1.0000 0.70280  0.65553  0.00648  Biso   1.000  N
  N48      1.0000 0.50897  0.82488  0.34737  Biso   1.000  N
  O1       1.0000 0.36602  0.55034  0.02698  Biso   1.000  O
  O2       1.0000 0.01938  0.34285  0.56047  Biso   1.000  O
  O3       1.0000 0.54760  0.99859  0.36473  Biso   1.000  O
  O4       1.0000 0.86478  0.53517  0.52048  Biso   1.000  O
  O5       1.0000 0.50106  0.34137  0.97595  Biso   1.000  O
  O6       1.0000 0.03991  0.00647  0.17792  Biso   1.000  O
  O7       1.0000 0.17149  0.04576  0.03627  Biso   1.000  O
  O8       1.0000 0.51773  0.83789  0.56676  Biso   1.000  O
  O9       1.0000 0.97542  0.50104  0.36317  Biso   1.000  O
  O10      1.0000 0.67322  0.03614  0.50942  Biso   1.000  O
  O11      1.0000 0.03104  0.83909  0.97246  Biso   1.000  O
  O12      1.0000 0.47679  0.49915  0.17884  Biso   1.000  O
  O13      1.0000 0.67390  0.44280  0.01850  Biso   1.000  O
  O14      1.0000 0.01889  0.65381  0.47280  Biso   1.000  O
  O15      1.0000 0.48297  0.99803  0.68336  Biso   1.000  O
  O16      1.0000 0.17617  0.45350  0.51494  Biso   1.000  O
  O17      1.0000 0.52978  0.64728  0.06427  Biso   1.000  O
  O18      1.0000 0.98148  0.99219  0.85779  Biso   1.000  O
  O19      1.0000 0.86021  0.94303  0.01395  Biso   1.000  O
  O20      1.0000 0.52002  0.14474  0.47702  Biso   1.000  O
  O21      1.0000 0.05105  0.49116  0.67946  Biso   1.000  O
  O22      1.0000 0.36301  0.95755  0.52392  Biso   1.000  O
  O23      1.0000 0.00812  0.14828  0.05926  Biso   1.000  O
  O24      1.0000 0.55678  0.49868  0.86506  Biso   1.000  O
  O25      1.0000 0.95864  0.99132  0.17631  Biso   1.000  O
  O26      1.0000 0.17445  0.96246  0.02702  Biso   1.000  O
  O27      1.0000 0.01113  0.15689  0.97662  Biso   1.000  O
  O28      1.0000 0.46345  0.00417  0.36689  Biso   1.000  O
  O29      1.0000 0.67446  0.95063  0.51028  Biso   1.000  O
  O30      1.0000 0.50781  0.14186  0.56009  Biso   1.000  O
  O31      1.0000 0.56098  0.49367  0.17827  Biso   1.000  O
  O32      1.0000 0.35871  0.46500  0.01611  Biso   1.000  O
  O33      1.0000 0.51693  0.65454  0.98010  Biso   1.000  O
  O34      1.0000 0.05995  0.49755  0.36186  Biso   1.000  O
  O35      1.0000 0.85823  0.44994  0.52594  Biso   1.000  O
  O36      1.0000 0.02236  0.65141  0.56067  Biso   1.000  O
  O37      1.0000 0.06613  0.00016  0.86280  Biso   1.000  O
  O38      1.0000 0.85881  0.02424  0.00469  Biso   1.000  O
  O39      1.0000 0.01364  0.83620  0.05473  Biso   1.000  O
  O40      1.0000 0.56399  0.99046  0.67648  Biso   1.000  O
  O41      1.0000 0.35605  0.03933  0.53716  Biso   1.000  O
  O42      1.0000 0.51987  0.84228  0.48438  Biso   1.000  O
  O43      1.0000 0.47415  0.49048  0.86528  Biso   1.000  O
  O44      1.0000 0.67439  0.52627  0.03047  Biso   1.000  O
  O45      1.0000 0.51326  0.33937  0.06023  Biso   1.000  O
  O46      1.0000 0.97280  0.50018  0.68382  Biso   1.000  O
  O47      1.0000 0.17526  0.53537  0.52767  Biso   1.000  O
  O48      1.0000 0.01263  0.34133  0.47873  Biso   1.000  O
  O49      1.0000 0.00433  0.95720  0.17631  Biso   1.000  O
  O50      1.0000 0.17301  0.00641  0.98533  Biso   1.000  O
  O51      1.0000 0.96681  0.15236  0.01546  Biso   1.000  O
  O52      1.0000 0.50501  0.95862  0.36568  Biso   1.000  O
  O53      1.0000 0.67685  0.99367  0.55288  Biso   1.000  O
  O54      1.0000 0.47425  0.14416  0.51494  Biso   1.000  O
  O55      1.0000 0.51653  0.45308  0.17547  Biso   1.000  O
  O56      1.0000 0.35828  0.51052  0.97945  Biso   1.000  O
  O57      1.0000 0.56635  0.64785  0.01432  Biso   1.000  O
  O58      1.0000 0.01635  0.45581  0.36472  Biso   1.000  O
  O59      1.0000 0.85879  0.50066  0.56726  Biso   1.000  O
  O60      1.0000 0.06235  0.65291  0.51278  Biso   1.000  O
  O61      1.0000 0.02201  0.03754  0.86064  Biso   1.000  O
  O62      1.0000 0.85615  0.98598  0.05123  Biso   1.000  O
  O63      1.0000 0.06498  0.84171  0.02226  Biso   1.000  O
  O64      1.0000 0.52825  0.03311  0.67818  Biso   1.000  O
  O65      1.0000 0.36002  0.00449  0.49057  Biso   1.000  O
  O66      1.0000 0.55900  0.84017  0.52889  Biso   1.000  O
  O67      1.0000 0.51156  0.53672  0.86366  Biso   1.000  O
  O68      1.0000 0.67203  0.48330  0.06590  Biso   1.000  O
  O69      1.0000 0.46670  0.33913  0.02539  Biso   1.000  O
  O70      1.0000 0.01560  0.53614  0.67818  Biso   1.000  O
  O71      1.0000 0.17731  0.49605  0.47790  Biso   1.000  O
  O72      1.0000 0.97588  0.33877  0.52523  Biso   1.000  O
  O73      1.0000 0.00415  0.45314  0.67846  Biso   1.000  O
  O74      1.0000 0.67310  0.98908  0.46831  Biso   1.000  O
  O75      1.0000 0.48380  0.65951  0.02672  Biso   1.000  O
  O76      1.0000 0.51818  0.45033  0.85784  Biso   1.000  O
  O77      1.0000 0.16481  0.00229  0.06994  Biso   1.000  O
  O78      1.0000 0.98078  0.65298  0.51603  Biso   1.000  O
  O79      1.0000 0.52031  0.95108  0.68120  Biso   1.000  O
  O80      1.0000 0.86310  0.48599  0.48228  Biso   1.000  O
  O81      1.0000 0.05008  0.15462  0.02316  Biso   1.000  O
  O82      1.0000 0.02342  0.95457  0.85807  Biso   1.000  O
  O83      1.0000 0.36394  0.50383  0.06318  Biso   1.000  O
  O84      1.0000 0.55673  0.14770  0.52114  Biso   1.000  O
  O85      1.0000 0.01677  0.54141  0.36284  Biso   1.000  O
  O86      1.0000 0.36598  0.99006  0.57279  Biso   1.000  O
  O87      1.0000 0.55005  0.33822  0.01499  Biso   1.000  O
  O88      1.0000 0.51783  0.53766  0.17946  Biso   1.000  O
  O89      1.0000 0.86352  0.98192  0.96872  Biso   1.000  O
  O90      1.0000 0.05945  0.34136  0.51692  Biso   1.000  O
  O91      1.0000 0.50613  0.04211  0.36521  Biso   1.000  O
  O92      1.0000 0.17209  0.48852  0.56445  Biso   1.000  O
  O93      1.0000 0.98318  0.83654  0.00531  Biso   1.000  O
  O94      1.0000 0.98828  0.03587  0.17851  Biso   1.000  O
  O95      1.0000 0.67716  0.49674  0.98276  Biso   1.000  O
  O96      1.0000 0.47643  0.84271  0.52223  Biso   1.000  O
  O97      1.0000 0.47696  0.19249  0.51341  Biso   1.000  O
  O98      1.0000 0.51589  0.45357  0.22514  Biso   1.000  O
  O99      1.0000 0.22413  0.50421  0.47991  Biso   1.000  O
  O100     1.0000 0.96454  0.20030  0.02020  Biso   1.000  O
  O101     1.0000 0.01656  0.45612  0.31458  Biso   1.000  O
  O102     1.0000 0.72091  0.47536  0.06438  Biso   1.000  O
  O103     1.0000 0.06439  0.70146  0.51778  Biso   1.000  O
  O104     1.0000 0.00334  0.95346  0.22569  Biso   1.000  O
  O105     1.0000 0.31199  0.00090  0.49231  Biso   1.000  O
  O106     1.0000 0.57297  0.69531  0.02018  Biso   1.000  O
  O107     1.0000 0.49549  0.95784  0.31760  Biso   1.000  O
  O108     1.0000 0.80851  0.98775  0.04632  Biso   1.000  O
  O109     1.0000 0.55942  0.79205  0.52807  Biso   1.000  O
  O110     1.0000 0.50730  0.53582  0.81537  Biso   1.000  O
  O111     1.0000 0.81088  0.50217  0.56110  Biso   1.000  O
  O112     1.0000 0.06911  0.79363  0.02437  Biso   1.000  O
  O113     1.0000 0.01351  0.53984  0.72777  Biso   1.000  O
  O114     1.0000 0.30931  0.50822  0.97854  Biso   1.000  O
  O115     1.0000 0.97826  0.29030  0.51959  Biso   1.000  O
  O116     1.0000 0.01726  0.03675  0.81228  Biso   1.000  O
  O117     1.0000 0.72539  0.99914  0.54977  Biso   1.000  O
  O118     1.0000 0.46274  0.29097  0.02649  Biso   1.000  O
  O119     1.0000 0.53308  0.03309  0.72772  Biso   1.000  O
  O120     1.0000 0.22161  0.01047  0.99248  Biso   1.000  O
  O121     1.0000 0.05349  0.49234  0.72767  Biso   1.000  O
  O122     1.0000 0.72209  0.03578  0.50638  Biso   1.000  O
  O123     1.0000 0.53603  0.69613  0.06390  Biso   1.000  O
  O124     1.0000 0.55677  0.49907  0.81543  Biso   1.000  O
  O125     1.0000 0.21937  0.05108  0.03975  Biso   1.000  O
  O126     1.0000 0.02236  0.70330  0.47966  Biso   1.000  O
  O127     1.0000 0.48739  0.99659  0.73234  Biso   1.000  O
  O128     1.0000 0.81625  0.53556  0.51396  Biso   1.000  O
  O129     1.0000 0.00806  0.19663  0.06113  Biso   1.000  O
  O130     1.0000 0.98325  0.99128  0.80757  Biso   1.000  O
  O131     1.0000 0.31774  0.55129  0.02339  Biso   1.000  O
  O132     1.0000 0.52533  0.19313  0.48108  Biso   1.000  O
  O133     1.0000 0.97566  0.50407  0.31385  Biso   1.000  O
  O134     1.0000 0.31344  0.95800  0.52674  Biso   1.000  O
  O135     1.0000 0.49925  0.29227  0.97561  Biso   1.000  O
  O136     1.0000 0.47684  0.49700  0.22916  Biso   1.000  O
  O137     1.0000 0.81199  0.94028  0.00816  Biso   1.000  O
  O138     1.0000 0.02242  0.29379  0.55946  Biso   1.000  O
  O139     1.0000 0.54237  0.99446  0.31504  Biso   1.000  O
  O140     1.0000 0.22488  0.45725  0.52023  Biso   1.000  O
  O141     1.0000 0.03585  0.79054  0.97005  Biso   1.000  O
  O142     1.0000 0.03729  0.00366  0.22796  Biso   1.000  O
  O143     1.0000 0.72387  0.43856  0.01877  Biso   1.000  O
  O144     1.0000 0.51309  0.79036  0.56684  Biso   1.000  O
  O145     1.0000 0.55850  0.48964  0.22638  Biso   1.000  O
  O146     1.0000 0.22387  0.53900  0.52882  Biso   1.000  O
  O147     1.0000 0.50508  0.18916  0.56407  Biso   1.000  O
  O148     1.0000 0.05969  0.49542  0.31337  Biso   1.000  O
  O149     1.0000 0.72416  0.52281  0.02942  Biso   1.000  O
  O150     1.0000 0.00680  0.20537  0.97860  Biso   1.000  O
  O151     1.0000 0.95655  0.98932  0.22506  Biso   1.000  O
  O152     1.0000 0.30908  0.03896  0.53590  Biso   1.000  O
  O153     1.0000 0.02826  0.70040  0.56166  Biso   1.000  O
  O154     1.0000 0.45909  0.00445  0.31609  Biso   1.000  O
  O155     1.0000 0.81158  0.02518  0.00034  Biso   1.000  O
  O156     1.0000 0.52879  0.70123  0.97919  Biso   1.000  O
  O157     1.0000 0.47151  0.49255  0.81465  Biso   1.000  O
  O158     1.0000 0.80980  0.45030  0.52680  Biso   1.000  O
  O159     1.0000 0.52236  0.79355  0.48138  Biso   1.000  O
  O160     1.0000 0.97052  0.49864  0.73230  Biso   1.000  O
  O161     1.0000 0.30968  0.46857  0.02177  Biso   1.000  O
  O162     1.0000 0.02004  0.78781  0.05366  Biso   1.000  O
  O163     1.0000 0.07077  0.99900  0.81384  Biso   1.000  O
  O164     1.0000 0.72373  0.95212  0.50876  Biso   1.000  O
  O165     1.0000 0.01124  0.29288  0.47564  Biso   1.000  O
  O166     1.0000 0.57054  0.98821  0.72517  Biso   1.000  O
  O167     1.0000 0.22280  0.96559  0.03177  Biso   1.000  O
  O168     1.0000 0.51536  0.29052  0.06153  Biso   1.000  O
  O169     1.0000 0.98881  0.03662  0.22946  Biso   1.000  O
  O170     1.0000 0.21234  0.00517  0.07914  Biso   1.000  O
  O171     1.0000 0.04827  0.20370  0.02115  Biso   1.000  O
  O172     1.0000 0.50676  0.04032  0.31544  Biso   1.000  O
  O173     1.0000 0.72014  0.99297  0.46496  Biso   1.000  O
  O174     1.0000 0.55833  0.19550  0.53121  Biso   1.000  O
  O175     1.0000 0.51942  0.53628  0.22870  Biso   1.000  O
  O176     1.0000 0.31427  0.50761  0.06379  Biso   1.000  O
  O177     1.0000 0.48963  0.70672  0.02818  Biso   1.000  O
  O178     1.0000 0.01965  0.53986  0.31497  Biso   1.000  O
  O179     1.0000 0.81431  0.48530  0.47981  Biso   1.000  O
  O180     1.0000 0.97938  0.70159  0.51590  Biso   1.000  O
  O181     1.0000 0.03089  0.95367  0.80869  Biso   1.000  O
  O182     1.0000 0.81414  0.97740  0.96247  Biso   1.000  O
  O183     1.0000 0.98332  0.78802  0.00455  Biso   1.000  O
  O184     1.0000 0.52172  0.95116  0.72921  Biso   1.000  O
  O185     1.0000 0.31751  0.99109  0.57361  Biso   1.000  O
  O186     1.0000 0.47723  0.79468  0.52145  Biso   1.000  O
  O187     1.0000 0.51871  0.45284  0.80885  Biso   1.000  O
  O188     1.0000 0.72561  0.48999  0.98124  Biso   1.000  O
  O189     1.0000 0.54654  0.29088  0.01022  Biso   1.000  O
  O190     1.0000 0.00967  0.45371  0.72732  Biso   1.000  O
  O191     1.0000 0.22140  0.49262  0.56861  Biso   1.000  O
  O192     1.0000 0.06019  0.29255  0.51461  Biso   1.000  O
