data_image0
_cell_length_a       46.6846
_cell_length_b       46.817
_cell_length_c       46.573
_cell_angle_alpha    90
_cell_angle_beta     90
_cell_angle_gamma    90

_symmetry_space_group_name_H-M    "P 1"
_symmetry_int_tables_number       1

loop_
  _symmetry_equiv_pos_as_xyz
  'x, y, z'

loop_
  _atom_site_label
  _atom_site_occupancy
  _atom_site_fract_x
  _atom_site_fract_y
  _atom_site_fract_z
  _atom_site_thermal_displace_type
  _atom_site_B_iso_or_equiv
  _atom_site_type_symbol
  C1       1.0000 0.57971  0.01205  0.33373  Biso   1.000  C
  C2       1.0000 0.33746  0.55952  0.01116  Biso   1.000  C
  C3       1.0000 0.02319  0.32022  0.56340  Biso   1.000  C
  C4       1.0000 0.08331  0.00816  0.18171  Biso   1.000  C
  C5       1.0000 0.83053  0.54866  0.49894  Biso   1.000  C
  C6       1.0000 0.50801  0.32137  0.94829  Biso   1.000  C
  C7       1.0000 0.96687  0.51008  0.32453  Biso   1.000  C
  C8       1.0000 0.19215  0.05176  0.00547  Biso   1.000  C
  C9       1.0000 0.50479  0.82591  0.56670  Biso   1.000  C
  C10      1.0000 0.46721  0.49759  0.18081  Biso   1.000  C
  C11      1.0000 0.69684  0.05097  0.52592  Biso   1.000  C
  C12      1.0000 0.01956  0.82523  0.94906  Biso   1.000  C
  C13      1.0000 0.44402  0.00867  0.68289  Biso   1.000  C
  C14      1.0000 0.70304  0.44843  0.99624  Biso   1.000  C
  C15      1.0000 0.00612  0.67883  0.44909  Biso   1.000  C
  C16      1.0000 0.94806  0.99360  0.83237  Biso   1.000  C
  C17      1.0000 0.20066  0.45536  0.50882  Biso   1.000  C
  C18      1.0000 0.51682  0.68551  0.06337  Biso   1.000  C
  C19      1.0000 0.07086  0.49342  0.68767  Biso   1.000  C
  C20      1.0000 0.83725  0.94935  0.03205  Biso   1.000  C
  C21      1.0000 0.52080  0.18951  0.45231  Biso   1.000  C
  C22      1.0000 0.57283  0.51176  0.82533  Biso   1.000  C
  C23      1.0000 0.33129  0.95938  0.48814  Biso   1.000  C
  C24      1.0000 0.02019  0.19182  0.05897  Biso   1.000  C
  C25      1.0000 0.33407  0.06867  0.50113  Biso   1.000  C
  C26      1.0000 0.51608  0.32323  0.05661  Biso   1.000  C
  C27      1.0000 0.07801  0.50552  0.32320  Biso   1.000  C
  C28      1.0000 0.83253  0.05615  0.01250  Biso   1.000  C
  C29      1.0000 0.02884  0.32261  0.45432  Biso   1.000  C
  C30      1.0000 0.57769  0.50429  0.18795  Biso   1.000  C
  C31      1.0000 0.19529  0.56489  0.50010  Biso   1.000  C
  C32      1.0000 0.01983  0.82974  0.05865  Biso   1.000  C
  C33      1.0000 0.47103  0.99454  0.32681  Biso   1.000  C
  C34      1.0000 0.70735  0.55465  0.01302  Biso   1.000  C
  C35      1.0000 0.51191  0.82301  0.45671  Biso   1.000  C
  C36      1.0000 0.97560  0.01808  0.19228  Biso   1.000  C
  C37      1.0000 0.69227  0.94176  0.51648  Biso   1.000  C
  C38      1.0000 0.52477  0.68667  0.95361  Biso   1.000  C
  C39      1.0000 0.96312  0.50452  0.69132  Biso   1.000  C
  C40      1.0000 0.19748  0.94735  0.98556  Biso   1.000  C
  C41      1.0000 0.01486  0.67954  0.55815  Biso   1.000  C
  C42      1.0000 0.46310  0.50395  0.82292  Biso   1.000  C
  C43      1.0000 0.83943  0.44063  0.50980  Biso   1.000  C
  C44      1.0000 0.01034  0.18549  0.95314  Biso   1.000  C
  C45      1.0000 0.54976  0.99927  0.69664  Biso   1.000  C
  C46      1.0000 0.33260  0.45064  0.99827  Biso   1.000  C
  C47      1.0000 0.52433  0.18913  0.56135  Biso   1.000  C
  C48      1.0000 0.05796  0.01064  0.82696  Biso   1.000  C
  C49      1.0000 0.99673  0.05292  0.82856  Biso   1.000  C
  C50      1.0000 0.83572  0.01222  0.07439  Biso   1.000  C
  C51      1.0000 0.07330  0.82591  0.99787  Biso   1.000  C
  C52      1.0000 0.50070  0.06209  0.68538  Biso   1.000  C
  C53      1.0000 0.33826  0.01926  0.44249  Biso   1.000  C
  C54      1.0000 0.56220  0.81899  0.51725  Biso   1.000  C
  C55      1.0000 0.52085  0.56045  0.82555  Biso   1.000  C
  C56      1.0000 0.70444  0.49322  0.05912  Biso   1.000  C
  C57      1.0000 0.45777  0.32443  0.00138  Biso   1.000  C
  C58      1.0000 0.02222  0.55400  0.68608  Biso   1.000  C
  C59      1.0000 0.20130  0.50599  0.45292  Biso   1.000  C
  C60      1.0000 0.96745  0.31842  0.50365  Biso   1.000  C
  C61      1.0000 0.02453  0.95758  0.18655  Biso   1.000  C
  C62      1.0000 0.19227  0.00438  0.94356  Biso   1.000  C
  C63      1.0000 0.95801  0.18791  0.00939  Biso   1.000  C
  C64      1.0000 0.53483  0.95071  0.32850  Biso   1.000  C
  C65      1.0000 0.68821  0.99061  0.57635  Biso   1.000  C
  C66      1.0000 0.46565  0.18920  0.51162  Biso   1.000  C
  C67      1.0000 0.52583  0.44567  0.18314  Biso   1.000  C
  C68      1.0000 0.33526  0.51063  0.95222  Biso   1.000  C
  C69      1.0000 0.57692  0.68018  0.01137  Biso   1.000  C
  C70      1.0000 0.02180  0.45117  0.32393  Biso   1.000  C
  C71      1.0000 0.83164  0.50041  0.55863  Biso   1.000  C
  C72      1.0000 0.06132  0.68358  0.50067  Biso   1.000  C
  C73      1.0000 0.02555  0.55758  0.32060  Biso   1.000  C
  C74      1.0000 0.33123  0.00920  0.55015  Biso   1.000  C
  C75      1.0000 0.56798  0.32321  0.00067  Biso   1.000  C
  C76      1.0000 0.52110  0.55557  0.18609  Biso   1.000  C
  C77      1.0000 0.83297  0.99251  0.96796  Biso   1.000  C
  C78      1.0000 0.07847  0.32463  0.51242  Biso   1.000  C
  C79      1.0000 0.51967  0.05892  0.32966  Biso   1.000  C
  C80      1.0000 0.19791  0.51479  0.56218  Biso   1.000  C
  C81      1.0000 0.96672  0.82569  0.00497  Biso   1.000  C
  C82      1.0000 0.03068  0.06567  0.18441  Biso   1.000  C
  C83      1.0000 0.70387  0.51060  0.95074  Biso   1.000  C
  C84      1.0000 0.45337  0.82469  0.50638  Biso   1.000  C
  C85      1.0000 0.01471  0.44441  0.69056  Biso   1.000  C
  C86      1.0000 0.70038  0.99759  0.46819  Biso   1.000  C
  C87      1.0000 0.47019  0.68642  0.00581  Biso   1.000  C
  C88      1.0000 0.51448  0.45213  0.82437  Biso   1.000  C
  C89      1.0000 0.19820  0.98679  0.04935  Biso   1.000  C
  C90      1.0000 0.95358  0.68151  0.50926  Biso   1.000  C
  C91      1.0000 0.49308  0.95431  0.68976  Biso   1.000  C
  C92      1.0000 0.83571  0.49361  0.44661  Biso   1.000  C
  C93      1.0000 0.06728  0.17912  0.99979  Biso   1.000  C
  C94      1.0000 0.01125  0.94771  0.82577  Biso   1.000  C
  C95      1.0000 0.33484  0.49857  0.05978  Biso   1.000  C
  C96      1.0000 0.57747  0.18573  0.50482  Biso   1.000  C
  C97      1.0000 0.69948  0.08429  0.52521  Biso   1.000  C
  C98      1.0000 0.51733  0.68580  0.09641  Biso   1.000  C
  C99      1.0000 0.10307  0.48943  0.68667  Biso   1.000  C
  C100     1.0000 0.19031  0.08344  0.00830  Biso   1.000  C
  C101     1.0000 0.01143  0.68150  0.41631  Biso   1.000  C
  C102     1.0000 0.60470  0.51284  0.82547  Biso   1.000  C
  C103     1.0000 0.82989  0.58046  0.49684  Biso   1.000  C
  C104     1.0000 0.02704  0.19250  0.09037  Biso   1.000  C
  C105     1.0000 0.41202  0.00748  0.68062  Biso   1.000  C
  C106     1.0000 0.34004  0.59255  0.01485  Biso   1.000  C
  C107     1.0000 0.52177  0.18837  0.42063  Biso   1.000  C
  C108     1.0000 0.91610  0.98691  0.83352  Biso   1.000  C
  C109     1.0000 0.33149  0.92721  0.48765  Biso   1.000  C
  C110     1.0000 0.50364  0.32129  0.91563  Biso   1.000  C
  C111     1.0000 0.93378  0.50798  0.32366  Biso   1.000  C
  C112     1.0000 0.84002  0.91741  0.03391  Biso   1.000  C
  C113     1.0000 0.02880  0.32099  0.59414  Biso   1.000  C
  C114     1.0000 0.43493  0.49879  0.18035  Biso   1.000  C
  C115     1.0000 0.20229  0.42438  0.50880  Biso   1.000  C
  C116     1.0000 0.01861  0.82389  0.91756  Biso   1.000  C
  C117     1.0000 0.61276  0.01113  0.33565  Biso   1.000  C
  C118     1.0000 0.70181  0.41638  0.99679  Biso   1.000  C
  C119     1.0000 0.50708  0.82728  0.59887  Biso   1.000  C
  C120     1.0000 0.11499  0.01117  0.18034  Biso   1.000  C
  C121     1.0000 0.83738  0.01528  0.10677  Biso   1.000  C
  C122     1.0000 0.10384  0.82298  0.99260  Biso   1.000  C
  C123     1.0000 0.00045  0.08419  0.82958  Biso   1.000  C
  C124     1.0000 0.34142  0.02006  0.41074  Biso   1.000  C
  C125     1.0000 0.59513  0.81617  0.52192  Biso   1.000  C
  C126     1.0000 0.50070  0.09421  0.68588  Biso   1.000  C
  C127     1.0000 0.70421  0.49223  0.09155  Biso   1.000  C
  C128     1.0000 0.42612  0.32464  0.99561  Biso   1.000  C
  C129     1.0000 0.52184  0.59312  0.82568  Biso   1.000  C
  C130     1.0000 0.20114  0.50324  0.42158  Biso   1.000  C
  C131     1.0000 0.93597  0.31803  0.50514  Biso   1.000  C
  C132     1.0000 0.02094  0.58537  0.68722  Biso   1.000  C
  C133     1.0000 0.18918  0.00072  0.91164  Biso   1.000  C
  C134     1.0000 0.92483  0.18763  0.00813  Biso   1.000  C
  C135     1.0000 0.02073  0.92515  0.18794  Biso   1.000  C
  C136     1.0000 0.68483  0.98773  0.60927  Biso   1.000  C
  C137     1.0000 0.43502  0.19051  0.51804  Biso   1.000  C
  C138     1.0000 0.53607  0.91790  0.32744  Biso   1.000  C
  C139     1.0000 0.33579  0.51144  0.91916  Biso   1.000  C
  C140     1.0000 0.60865  0.68107  0.01311  Biso   1.000  C
  C141     1.0000 0.53398  0.41502  0.18149  Biso   1.000  C
  C142     1.0000 0.83068  0.50275  0.59106  Biso   1.000  C
  C143     1.0000 0.09471  0.68303  0.50203  Biso   1.000  C
  C144     1.0000 0.02508  0.41999  0.32345  Biso   1.000  C
  C145     1.0000 0.33594  0.48917  0.08971  Biso   1.000  C
  C146     1.0000 0.10975  0.32444  0.51368  Biso   1.000  C
  C147     1.0000 0.52613  0.09118  0.32766  Biso   1.000  C
  C148     1.0000 0.83641  0.49282  0.41401  Biso   1.000  C
  C149     1.0000 0.59930  0.32241  0.00758  Biso   1.000  C
  C150     1.0000 0.02902  0.09750  0.18489  Biso   1.000  C
  C151     1.0000 0.20126  0.98759  0.08104  Biso   1.000  C
  C152     1.0000 0.42128  0.82755  0.50211  Biso   1.000  C
  C153     1.0000 0.02425  0.59051  0.32128  Biso   1.000  C
  C154     1.0000 0.70217  0.99667  0.43656  Biso   1.000  C
  C155     1.0000 0.93409  0.82670  0.00844  Biso   1.000  C
  C156     1.0000 0.52314  0.58785  0.18819  Biso   1.000  C
  C157     1.0000 0.70096  0.51036  0.91910  Biso   1.000  C
  C158     1.0000 0.92190  0.67987  0.50938  Biso   1.000  C
  C159     1.0000 0.49178  0.92245  0.69210  Biso   1.000  C
  C160     1.0000 0.19930  0.51185  0.59567  Biso   1.000  C
  C161     1.0000 0.43735  0.68641  0.00588  Biso   1.000  C
  C162     1.0000 0.01460  0.91591  0.82501  Biso   1.000  C
  C163     1.0000 0.83008  0.98858  0.93593  Biso   1.000  C
  C164     1.0000 0.60896  0.18218  0.50441  Biso   1.000  C
  C165     1.0000 0.01152  0.41226  0.68993  Biso   1.000  C
  C166     1.0000 0.32743  0.00531  0.58132  Biso   1.000  C
  C167     1.0000 0.09840  0.17833  0.99625  Biso   1.000  C
  C168     1.0000 0.51257  0.42009  0.82330  Biso   1.000  C
  C169     1.0000 0.01883  0.83078  0.09127  Biso   1.000  C
  C170     1.0000 0.09011  0.01355  0.82381  Biso   1.000  C
  C171     1.0000 0.83088  0.08923  0.01135  Biso   1.000  C
  C172     1.0000 0.51427  0.82222  0.42526  Biso   1.000  C
  C173     1.0000 0.58096  0.99484  0.69921  Biso   1.000  C
  C174     1.0000 0.33566  0.10051  0.50539  Biso   1.000  C
  C175     1.0000 0.51751  0.32272  0.08912  Biso   1.000  C
  C176     1.0000 0.43116  0.50352  0.82379  Biso   1.000  C
  C177     1.0000 0.70630  0.58681  0.01287  Biso   1.000  C
  C178     1.0000 0.03463  0.32357  0.42153  Biso   1.000  C
  C179     1.0000 0.92996  0.50770  0.68695  Biso   1.000  C
  C180     1.0000 0.19499  0.59707  0.49620  Biso   1.000  C
  C181     1.0000 0.01388  0.18385  0.92099  Biso   1.000  C
  C182     1.0000 0.94295  0.02073  0.19380  Biso   1.000  C
  C183     1.0000 0.19958  0.91553  0.98506  Biso   1.000  C
  C184     1.0000 0.52400  0.18768  0.59234  Biso   1.000  C
  C185     1.0000 0.43956  0.99390  0.32494  Biso   1.000  C
  C186     1.0000 0.69113  0.91014  0.51181  Biso   1.000  C
  C187     1.0000 0.52005  0.68869  0.92140  Biso   1.000  C
  C188     1.0000 0.61022  0.50348  0.18678  Biso   1.000  C
  C189     1.0000 0.33176  0.41794  0.99231  Biso   1.000  C
  C190     1.0000 0.01903  0.67998  0.58988  Biso   1.000  C
  C191     1.0000 0.11009  0.50638  0.32246  Biso   1.000  C
  C192     1.0000 0.84039  0.40895  0.50813  Biso   1.000  C
  C193     1.0000 0.85408  0.98594  0.91679  Biso   1.000  C
  C194     1.0000 0.91822  0.85347  0.01491  Biso   1.000  C
  C195     1.0000 0.01619  0.89989  0.85152  Biso   1.000  C
  C196     1.0000 0.35308  0.00408  0.59988  Biso   1.000  C
  C197     1.0000 0.40769  0.85635  0.50091  Biso   1.000  C
  C198     1.0000 0.49561  0.90549  0.66612  Biso   1.000  C
  C199     1.0000 0.67381  0.51432  0.90346  Biso   1.000  C
  C200     1.0000 0.61589  0.35116  0.00633  Biso   1.000  C
  C201     1.0000 0.50995  0.40372  0.85000  Biso   1.000  C
  C202     1.0000 0.17151  0.50508  0.61046  Biso   1.000  C
  C203     1.0000 0.12420  0.35259  0.51201  Biso   1.000  C
  C204     1.0000 0.01392  0.39726  0.66212  Biso   1.000  C
  C205     1.0000 0.17561  0.99280  0.09982  Biso   1.000  C
  C206     1.0000 0.11134  0.14957  0.99918  Biso   1.000  C
  C207     1.0000 0.02692  0.11332  0.15799  Biso   1.000  C
  C208     1.0000 0.67521  0.99619  0.41768  Biso   1.000  C
  C209     1.0000 0.62395  0.15532  0.50680  Biso   1.000  C
  C210     1.0000 0.52501  0.10773  0.35491  Biso   1.000  C
  C211     1.0000 0.36371  0.48794  0.10400  Biso   1.000  C
  C212     1.0000 0.42107  0.65975  0.00954  Biso   1.000  C
  C213     1.0000 0.51899  0.60333  0.16168  Biso   1.000  C
  C214     1.0000 0.86310  0.49955  0.39952  Biso   1.000  C
  C215     1.0000 0.90689  0.65398  0.50107  Biso   1.000  C
  C216     1.0000 0.02183  0.60628  0.34844  Biso   1.000  C
  C217     1.0000 0.10912  0.01256  0.84908  Biso   1.000  C
  C218     1.0000 0.85755  0.10680  0.01022  Biso   1.000  C
  C219     1.0000 0.01844  0.85786  0.10846  Biso   1.000  C
  C220     1.0000 0.59840  0.99509  0.67171  Biso   1.000  C
  C221     1.0000 0.36361  0.11417  0.51081  Biso   1.000  C
  C222     1.0000 0.51574  0.84918  0.40787  Biso   1.000  C
  C223     1.0000 0.41594  0.50686  0.85097  Biso   1.000  C
  C224     1.0000 0.67775  0.60212  0.01033  Biso   1.000  C
  C225     1.0000 0.52054  0.34844  0.10526  Biso   1.000  C
  C226     1.0000 0.91419  0.51067  0.65992  Biso   1.000  C
  C227     1.0000 0.16648  0.61135  0.49514  Biso   1.000  C
  C228     1.0000 0.03296  0.35257  0.40529  Biso   1.000  C
  C229     1.0000 0.92415  0.02222  0.16873  Biso   1.000  C
  C230     1.0000 0.17342  0.89795  0.97919  Biso   1.000  C
  C231     1.0000 0.01036  0.15455  0.90755  Biso   1.000  C
  C232     1.0000 0.42213  0.00089  0.34973  Biso   1.000  C
  C233     1.0000 0.66412  0.89263  0.51341  Biso   1.000  C
  C234     1.0000 0.52232  0.16032  0.60820  Biso   1.000  C
  C235     1.0000 0.62540  0.49912  0.15933  Biso   1.000  C
  C236     1.0000 0.35791  0.40150  0.99176  Biso   1.000  C
  C237     1.0000 0.51826  0.66156  0.90497  Biso   1.000  C
  C238     1.0000 0.12466  0.50929  0.34963  Biso   1.000  C
  C239     1.0000 0.86786  0.39525  0.50341  Biso   1.000  C
  C240     1.0000 0.02423  0.65313  0.60625  Biso   1.000  C
  C241     1.0000 0.61996  0.51535  0.85271  Biso   1.000  C
  C242     1.0000 0.85557  0.59903  0.49651  Biso   1.000  C
  C243     1.0000 0.50331  0.85403  0.61589  Biso   1.000  C
  C244     1.0000 0.11869  0.49798  0.65962  Biso   1.000  C
  C245     1.0000 0.36814  0.60858  0.01644  Biso   1.000  C
  C246     1.0000 0.02108  0.85179  0.90099  Biso   1.000  C
  C247     1.0000 0.90135  0.98473  0.86147  Biso   1.000  C
  C248     1.0000 0.67381  0.10004  0.51949  Biso   1.000  C
  C249     1.0000 0.02494  0.34791  0.61140  Biso   1.000  C
  C250     1.0000 0.39863  0.00486  0.65274  Biso   1.000  C
  C251     1.0000 0.16178  0.09744  0.00668  Biso   1.000  C
  C252     1.0000 0.50448  0.35018  0.90103  Biso   1.000  C
  C253     1.0000 0.41708  0.49687  0.15377  Biso   1.000  C
  C254     1.0000 0.17466  0.40771  0.51024  Biso   1.000  C
  C255     1.0000 0.52031  0.16047  0.40506  Biso   1.000  C
  C256     1.0000 0.91731  0.50492  0.34998  Biso   1.000  C
  C257     1.0000 0.67462  0.40250  0.00164  Biso   1.000  C
  C258     1.0000 0.02534  0.16497  0.10541  Biso   1.000  C
  C259     1.0000 0.12912  0.00447  0.15296  Biso   1.000  C
  C260     1.0000 0.35738  0.91084  0.49094  Biso   1.000  C
  C261     1.0000 0.01653  0.65614  0.39990  Biso   1.000  C
  C262     1.0000 0.62814  0.00441  0.36302  Biso   1.000  C
  C263     1.0000 0.86566  0.90189  0.02665  Biso   1.000  C
  C264     1.0000 0.52129  0.65849  0.11288  Biso   1.000  C
  C265     1.0000 0.00153  0.09999  0.85729  Biso   1.000  C
  C266     1.0000 0.86488  0.01849  0.12126  Biso   1.000  C
  C267     1.0000 0.12071  0.84924  0.98915  Biso   1.000  C
  C268     1.0000 0.50867  0.10972  0.65968  Biso   1.000  C
  C269     1.0000 0.36948  0.01588  0.39658  Biso   1.000  C
  C270     1.0000 0.61214  0.84191  0.52127  Biso   1.000  C
  C271     1.0000 0.52038  0.60940  0.85210  Biso   1.000  C
  C272     1.0000 0.67625  0.49419  0.10653  Biso   1.000  C
  C273     1.0000 0.40956  0.35047  0.99490  Biso   1.000  C
  C274     1.0000 0.01992  0.60224  0.65983  Biso   1.000  C
  C275     1.0000 0.17460  0.50873  0.40477  Biso   1.000  C
  C276     1.0000 0.91996  0.34475  0.50308  Biso   1.000  C
  C277     1.0000 0.02090  0.90876  0.16041  Biso   1.000  C
  C278     1.0000 0.16278  0.00573  0.89697  Biso   1.000  C
  C279     1.0000 0.90905  0.16055  0.01027  Biso   1.000  C
  C280     1.0000 0.52938  0.90126  0.35441  Biso   1.000  C
  C281     1.0000 0.65578  0.98789  0.62424  Biso   1.000  C
  C282     1.0000 0.41748  0.16434  0.51724  Biso   1.000  C
  C283     1.0000 0.52869  0.39969  0.15472  Biso   1.000  C
  C284     1.0000 0.36306  0.51189  0.90276  Biso   1.000  C
  C285     1.0000 0.62409  0.65490  0.01325  Biso   1.000  C
  C286     1.0000 0.03164  0.40502  0.34988  Biso   1.000  C
  C287     1.0000 0.85822  0.50894  0.60584  Biso   1.000  C
  C288     1.0000 0.11074  0.65700  0.49769  Biso   1.000  C
  C289     1.0000 0.35662  0.87878  0.49296  Biso   1.000  C
  C290     1.0000 0.50591  0.35150  0.86859  Biso   1.000  C
  C291     1.0000 0.88678  0.50011  0.34726  Biso   1.000  C
  C292     1.0000 0.86426  0.87089  0.02262  Biso   1.000  C
  C293     1.0000 0.02454  0.34631  0.64188  Biso   1.000  C
  C294     1.0000 0.38576  0.49620  0.15675  Biso   1.000  C
  C295     1.0000 0.17622  0.37654  0.51026  Biso   1.000  C
  C296     1.0000 0.01896  0.84791  0.86984  Biso   1.000  C
  C297     1.0000 0.65948  0.00481  0.36269  Biso   1.000  C
  C298     1.0000 0.67157  0.37022  0.00300  Biso   1.000  C
  C299     1.0000 0.50082  0.85305  0.64749  Biso   1.000  C
  C300     1.0000 0.16072  0.00294  0.15158  Biso   1.000  C
  C301     1.0000 0.67600  0.13179  0.51589  Biso   1.000  C
  C302     1.0000 0.52026  0.65776  0.14372  Biso   1.000  C
  C303     1.0000 0.15046  0.49767  0.66117  Biso   1.000  C
  C304     1.0000 0.16346  0.12798  0.00133  Biso   1.000  C
  C305     1.0000 0.01701  0.65879  0.36823  Biso   1.000  C
  C306     1.0000 0.65116  0.51041  0.85174  Biso   1.000  C
  C307     1.0000 0.85381  0.63049  0.50044  Biso   1.000  C
  C308     1.0000 0.02601  0.16581  0.13590  Biso   1.000  C
  C309     1.0000 0.36732  0.00142  0.65262  Biso   1.000  C
  C310     1.0000 0.36823  0.64015  0.01416  Biso   1.000  C
  C311     1.0000 0.52461  0.16080  0.37446  Biso   1.000  C
  C312     1.0000 0.87012  0.98423  0.86263  Biso   1.000  C
  C313     1.0000 0.17775  0.50908  0.37300  Biso   1.000  C
  C314     1.0000 0.38702  0.16666  0.51385  Biso   1.000  C
  C315     1.0000 0.53092  0.36771  0.15660  Biso   1.000  C
  C316     1.0000 0.67657  0.49444  0.13876  Biso   1.000  C
  C317     1.0000 0.87748  0.16088  0.01056  Biso   1.000  C
  C318     1.0000 0.02917  0.37349  0.35136  Biso   1.000  C
  C319     1.0000 0.36998  0.01033  0.36493  Biso   1.000  C
  C320     1.0000 0.14209  0.66163  0.49542  Biso   1.000  C
  C321     1.0000 0.01779  0.87678  0.16097  Biso   1.000  C
  C322     1.0000 0.86905  0.01766  0.15163  Biso   1.000  C
  C323     1.0000 0.65474  0.65519  0.01250  Biso   1.000  C
  C324     1.0000 0.52625  0.86903  0.35499  Biso   1.000  C
  C325     1.0000 0.85916  0.50927  0.63779  Biso   1.000  C
  C326     1.0000 0.64369  0.83944  0.51926  Biso   1.000  C
  C327     1.0000 0.51934  0.64068  0.85131  Biso   1.000  C
  C328     1.0000 0.36308  0.50371  0.87279  Biso   1.000  C
  C329     1.0000 0.15181  0.84617  0.98787  Biso   1.000  C
  C330     1.0000 0.02196  0.63409  0.66088  Biso   1.000  C
  C331     1.0000 0.65369  0.98723  0.65536  Biso   1.000  C
  C332     1.0000 0.88897  0.34307  0.49974  Biso   1.000  C
  C333     1.0000 0.00622  0.13280  0.85667  Biso   1.000  C
  C334     1.0000 0.16156  0.00582  0.86496  Biso   1.000  C
  C335     1.0000 0.37725  0.34910  0.99249  Biso   1.000  C
  C336     1.0000 0.50974  0.14114  0.66093  Biso   1.000  C
  C337     1.0000 0.67366  0.51099  0.87296  Biso   1.000  C
  C338     1.0000 0.87544  0.65405  0.50004  Biso   1.000  C
  C339     1.0000 0.49784  0.87495  0.66931  Biso   1.000  C
  C340     1.0000 0.17322  0.50037  0.64050  Biso   1.000  C
  C341     1.0000 0.38976  0.66074  0.01021  Biso   1.000  C
  C342     1.0000 0.01712  0.86899  0.84971  Biso   1.000  C
  C343     1.0000 0.84949  0.98423  0.88543  Biso   1.000  C
  C344     1.0000 0.65522  0.15378  0.51105  Biso   1.000  C
  C345     1.0000 0.02016  0.36621  0.66377  Biso   1.000  C
  C346     1.0000 0.34795  0.00049  0.63006  Biso   1.000  C
  C347     1.0000 0.14271  0.14944  0.99676  Biso   1.000  C
  C348     1.0000 0.50752  0.37280  0.84855  Biso   1.000  C
  C349     1.0000 0.36412  0.49331  0.13443  Biso   1.000  C
  C350     1.0000 0.15550  0.35350  0.51152  Biso   1.000  C
  C351     1.0000 0.52775  0.13904  0.35374  Biso   1.000  C
  C352     1.0000 0.86407  0.49675  0.36792  Biso   1.000  C
  C353     1.0000 0.64681  0.34991  0.00598  Biso   1.000  C
  C354     1.0000 0.02620  0.14448  0.15798  Biso   1.000  C
  C355     1.0000 0.18045  0.99766  0.12988  Biso   1.000  C
  C356     1.0000 0.37660  0.85637  0.49552  Biso   1.000  C
  C357     1.0000 0.02000  0.63673  0.34679  Biso   1.000  C
  C358     1.0000 0.67895  0.00284  0.38624  Biso   1.000  C
  C359     1.0000 0.88671  0.84942  0.01849  Biso   1.000  C
  C360     1.0000 0.52046  0.63455  0.16427  Biso   1.000  C
  C361     1.0000 0.00859  0.15536  0.87738  Biso   1.000  C
  C362     1.0000 0.89235  0.01903  0.17263  Biso   1.000  C
  C363     1.0000 0.17478  0.86741  0.98467  Biso   1.000  C
  C364     1.0000 0.51468  0.16123  0.63878  Biso   1.000  C
  C365     1.0000 0.39153  0.00515  0.34526  Biso   1.000  C
  C366     1.0000 0.66501  0.86108  0.51543  Biso   1.000  C
  C367     1.0000 0.51819  0.66226  0.87324  Biso   1.000  C
  C368     1.0000 0.65592  0.49506  0.16140  Biso   1.000  C
  C369     1.0000 0.35627  0.37064  0.99050  Biso   1.000  C
  C370     1.0000 0.02318  0.65494  0.63803  Biso   1.000  C
  C371     1.0000 0.15606  0.50932  0.35146  Biso   1.000  C
  C372     1.0000 0.86703  0.36417  0.49988  Biso   1.000  C
  C373     1.0000 0.01690  0.85610  0.13941  Biso   1.000  C
  C374     1.0000 0.13900  0.00881  0.84550  Biso   1.000  C
  C375     1.0000 0.85619  0.13794  0.01206  Biso   1.000  C
  C376     1.0000 0.52068  0.84742  0.37628  Biso   1.000  C
  C377     1.0000 0.63055  0.99096  0.67470  Biso   1.000  C
  C378     1.0000 0.36385  0.14553  0.50962  Biso   1.000  C
  C379     1.0000 0.52736  0.34715  0.13550  Biso   1.000  C
  C380     1.0000 0.38505  0.50255  0.85127  Biso   1.000  C
  C381     1.0000 0.67642  0.63332  0.01386  Biso   1.000  C
  C382     1.0000 0.03223  0.35253  0.37328  Biso   1.000  C
  C383     1.0000 0.88247  0.50920  0.65895  Biso   1.000  C
  C384     1.0000 0.16475  0.64216  0.49466  Biso   1.000  C
  C385     1.0000 0.19051  0.14425  0.00119  Biso   1.000  C
  C386     1.0000 0.02496  0.19293  0.15239  Biso   1.000  C
  C387     1.0000 0.17883  0.00695  0.17737  Biso   1.000  C
  C388     1.0000 0.70249  0.14751  0.51985  Biso   1.000  C
  C389     1.0000 0.52745  0.18750  0.35831  Biso   1.000  C
  C390     1.0000 0.67652  0.00988  0.33678  Biso   1.000  C
  C391     1.0000 0.34093  0.65607  0.01125  Biso   1.000  C
  C392     1.0000 0.51993  0.68376  0.16119  Biso   1.000  C
  C393     1.0000 0.37012  0.49863  0.18365  Biso   1.000  C
  C394     1.0000 0.82689  0.64475  0.50393  Biso   1.000  C
  C395     1.0000 0.01491  0.68585  0.35385  Biso   1.000  C
  C396     1.0000 0.87176  0.49652  0.31953  Biso   1.000  C
  C397     1.0000 0.83934  0.85283  0.02888  Biso   1.000  C
  C398     1.0000 0.01993  0.82102  0.85446  Biso   1.000  C
  C399     1.0000 0.85224  0.98403  0.83602  Biso   1.000  C
  C400     1.0000 0.32915  0.86370  0.49141  Biso   1.000  C
  C401     1.0000 0.50184  0.82597  0.66327  Biso   1.000  C
  C402     1.0000 0.34900  0.00013  0.67815  Biso   1.000  C
  C403     1.0000 0.69683  0.35432  0.00130  Biso   1.000  C
  C404     1.0000 0.50647  0.32399  0.85214  Biso   1.000  C
  C405     1.0000 0.66621  0.50627  0.82429  Biso   1.000  C
  C406     1.0000 0.20389  0.36207  0.50972  Biso   1.000  C
  C407     1.0000 0.02856  0.31908  0.65757  Biso   1.000  C
  C408     1.0000 0.16626  0.49081  0.68849  Biso   1.000  C
  C409     1.0000 0.15235  0.00336  0.81778  Biso   1.000  C
  C410     1.0000 0.82844  0.15228  0.01554  Biso   1.000  C
  C411     1.0000 0.01481  0.82947  0.15518  Biso   1.000  C
  C412     1.0000 0.64462  0.98914  0.70351  Biso   1.000  C
  C413     1.0000 0.33744  0.16287  0.50752  Biso   1.000  C
  C414     1.0000 0.52091  0.82051  0.36154  Biso   1.000  C
  C415     1.0000 0.36965  0.49404  0.82574  Biso   1.000  C
  C416     1.0000 0.70354  0.64974  0.01553  Biso   1.000  C
  C417     1.0000 0.53146  0.31996  0.15126  Biso   1.000  C
  C418     1.0000 0.86616  0.50655  0.68586  Biso   1.000  C
  C419     1.0000 0.19063  0.66046  0.49387  Biso   1.000  C
  C420     1.0000 0.03026  0.32524  0.35973  Biso   1.000  C
  C421     1.0000 0.87949  0.01817  0.20068  Biso   1.000  C
  C422     1.0000 0.20096  0.85125  0.98706  Biso   1.000  C
  C423     1.0000 0.01109  0.18176  0.86139  Biso   1.000  C
  C424     1.0000 0.37799  0.00277  0.31660  Biso   1.000  C
  C425     1.0000 0.69136  0.84626  0.51452  Biso   1.000  C
  C426     1.0000 0.51056  0.18869  0.65345  Biso   1.000  C
  C427     1.0000 0.67135  0.49515  0.18717  Biso   1.000  C
  C428     1.0000 0.33024  0.35494  0.98947  Biso   1.000  C
  C429     1.0000 0.51577  0.68941  0.85732  Biso   1.000  C
  C430     1.0000 0.17237  0.50833  0.32516  Biso   1.000  C
  C431     1.0000 0.84129  0.34706  0.49859  Biso   1.000  C
  C432     1.0000 0.02273  0.68100  0.65314  Biso   1.000  C
  C433     1.0000 0.00829  0.14762  0.83036  Biso   1.000  C
  C434     1.0000 0.84302  0.01666  0.17000  Biso   1.000  C
  C435     1.0000 0.16684  0.81938  0.98884  Biso   1.000  C
  C436     1.0000 0.50199  0.15692  0.68602  Biso   1.000  C
  C437     1.0000 0.34419  0.01044  0.34790  Biso   1.000  C
  C438     1.0000 0.65751  0.81162  0.51953  Biso   1.000  C
  C439     1.0000 0.51551  0.65554  0.82508  Biso   1.000  C
  C440     1.0000 0.70310  0.49183  0.15411  Biso   1.000  C
  C441     1.0000 0.36149  0.32182  0.99253  Biso   1.000  C
  C442     1.0000 0.02228  0.64957  0.68755  Biso   1.000  C
  C443     1.0000 0.20545  0.50728  0.35729  Biso   1.000  C
  C444     1.0000 0.87422  0.31527  0.49924  Biso   1.000  C
  C445     1.0000 0.01537  0.86176  0.18849  Biso   1.000  C
  C446     1.0000 0.18702  0.99992  0.84791  Biso   1.000  C
  C447     1.0000 0.86230  0.18696  0.01314  Biso   1.000  C
  C448     1.0000 0.52838  0.85355  0.32748  Biso   1.000  C
  C449     1.0000 0.67999  0.98551  0.67355  Biso   1.000  C
  C450     1.0000 0.37198  0.19449  0.51413  Biso   1.000  C
  C451     1.0000 0.53889  0.35268  0.18269  Biso   1.000  C
  C452     1.0000 0.33669  0.49837  0.85677  Biso   1.000  C
  C453     1.0000 0.67070  0.68221  0.01256  Biso   1.000  C
  C454     1.0000 0.02627  0.35679  0.32588  Biso   1.000  C
  C455     1.0000 0.83214  0.50623  0.65420  Biso   1.000  C
  C456     1.0000 0.15696  0.68971  0.49544  Biso   1.000  C
  C457     1.0000 0.02176  0.65395  0.32109  Biso   1.000  C
  C458     1.0000 0.31959  0.99928  0.64335  Biso   1.000  C
  C459     1.0000 0.66212  0.32253  0.00778  Biso   1.000  C
  C460     1.0000 0.52546  0.65026  0.19224  Biso   1.000  C
  C461     1.0000 0.82190  0.98396  0.87137  Biso   1.000  C
  C462     1.0000 0.17283  0.32642  0.51281  Biso   1.000  C
  C463     1.0000 0.53053  0.15410  0.32646  Biso   1.000  C
  C464     1.0000 0.19978  0.50138  0.65729  Biso   1.000  C
  C465     1.0000 0.87107  0.82193  0.01719  Biso   1.000  C
  C466     1.0000 0.02424  0.16081  0.18459  Biso   1.000  C
  C467     1.0000 0.69948  0.50501  0.85619  Biso   1.000  C
  C468     1.0000 0.36023  0.82934  0.49261  Biso   1.000  C
  C469     1.0000 0.02329  0.34930  0.69052  Biso   1.000  C
  C470     1.0000 0.70720  0.00815  0.37376  Biso   1.000  C
  C471     1.0000 0.37399  0.68685  0.00708  Biso   1.000  C
  C472     1.0000 0.50810  0.35784  0.82069  Biso   1.000  C
  C473     1.0000 0.20855  0.99868  0.14285  Biso   1.000  C
  C474     1.0000 0.85904  0.67960  0.50718  Biso   1.000  C
  C475     1.0000 0.49729  0.85928  0.69545  Biso   1.000  C
  C476     1.0000 0.83854  0.48979  0.35169  Biso   1.000  C
  C477     1.0000 0.16039  0.17602  0.99191  Biso   1.000  C
  C478     1.0000 0.01666  0.85329  0.82214  Biso   1.000  C
  C479     1.0000 0.33704  0.49611  0.15081  Biso   1.000  C
  C480     1.0000 0.67195  0.17968  0.51128  Biso   1.000  C
  C481     1.0000 0.37328  0.80117  0.49746  Biso   1.000  C
  C482     1.0000 0.50876  0.37506  0.79425  Biso   1.000  C
  C483     1.0000 0.81148  0.48368  0.36546  Biso   1.000  C
  C484     1.0000 0.88695  0.79743  0.01016  Biso   1.000  C
  C485     1.0000 0.01790  0.36513  0.71793  Biso   1.000  C
  C486     1.0000 0.30907  0.49319  0.13650  Biso   1.000  C
  C487     1.0000 0.15871  0.29850  0.51675  Biso   1.000  C
  C488     1.0000 0.01478  0.86909  0.79454  Biso   1.000  C
  C489     1.0000 0.73261  0.00615  0.39148  Biso   1.000  C
  C490     1.0000 0.64683  0.29458  0.01196  Biso   1.000  C
  C491     1.0000 0.49276  0.87636  0.72121  Biso   1.000  C
  C492     1.0000 0.23360  0.99214  0.12647  Biso   1.000  C
  C493     1.0000 0.65814  0.20816  0.50781  Biso   1.000  C
  C494     1.0000 0.53182  0.63259  0.21816  Biso   1.000  C
  C495     1.0000 0.22611  0.50983  0.64286  Biso   1.000  C
  C496     1.0000 0.14616  0.20356  0.98826  Biso   1.000  C
  C497     1.0000 0.02596  0.63788  0.29485  Biso   1.000  C
  C498     1.0000 0.72668  0.50204  0.87024  Biso   1.000  C
  C499     1.0000 0.87459  0.70569  0.51724  Biso   1.000  C
  C500     1.0000 0.02259  0.14476  0.21285  Biso   1.000  C
  C501     1.0000 0.29373  0.99508  0.62430  Biso   1.000  C
  C502     1.0000 0.39004  0.71512  0.00379  Biso   1.000  C
  C503     1.0000 0.52893  0.13823  0.29911  Biso   1.000  C
  C504     1.0000 0.79635  0.98432  0.89187  Biso   1.000  C
  C505     1.0000 0.65048  0.50767  0.79705  Biso   1.000  C
  C506     1.0000 0.79954  0.62694  0.50067  Biso   1.000  C
  C507     1.0000 0.50542  0.79946  0.64719  Biso   1.000  C
  C508     1.0000 0.15049  0.48015  0.71271  Biso   1.000  C
  C509     1.0000 0.31311  0.64065  0.01110  Biso   1.000  C
  C510     1.0000 0.02046  0.79439  0.87098  Biso   1.000  C
  C511     1.0000 0.86813  0.98437  0.80804  Biso   1.000  C
  C512     1.0000 0.72791  0.13134  0.52761  Biso   1.000  C
  C513     1.0000 0.03399  0.29289  0.64069  Biso   1.000  C
  C514     1.0000 0.36264  0.00231  0.70694  Biso   1.000  C
  C515     1.0000 0.21648  0.12885  0.00730  Biso   1.000  C
  C516     1.0000 0.50455  0.29638  0.86755  Biso   1.000  C
  C517     1.0000 0.38714  0.49961  0.21035  Biso   1.000  C
  C518     1.0000 0.23068  0.37826  0.50413  Biso   1.000  C
  C519     1.0000 0.52604  0.21560  0.37368  Biso   1.000  C
  C520     1.0000 0.88916  0.49793  0.29169  Biso   1.000  C
  C521     1.0000 0.72469  0.36706  0.99703  Biso   1.000  C
  C522     1.0000 0.02345  0.22089  0.13655  Biso   1.000  C
  C523     1.0000 0.16371  0.01749  0.20551  Biso   1.000  C
  C524     1.0000 0.30359  0.88032  0.48414  Biso   1.000  C
  C525     1.0000 0.00852  0.71076  0.36994  Biso   1.000  C
  C526     1.0000 0.66139  0.01354  0.30936  Biso   1.000  C
  C527     1.0000 0.81462  0.86962  0.03997  Biso   1.000  C
  C528     1.0000 0.51512  0.71077  0.14655  Biso   1.000  C
  C529     1.0000 0.80129  0.13603  0.01881  Biso   1.000  C
  C530     1.0000 0.01486  0.80266  0.13947  Biso   1.000  C
  C531     1.0000 0.13514  0.00665  0.79212  Biso   1.000  C
  C532     1.0000 0.30960  0.14755  0.50298  Biso   1.000  C
  C533     1.0000 0.51881  0.79422  0.37865  Biso   1.000  C
  C534     1.0000 0.62612  0.98932  0.72913  Biso   1.000  C
  C535     1.0000 0.73134  0.63511  0.01641  Biso   1.000  C
  C536     1.0000 0.52600  0.29415  0.13399  Biso   1.000  C
  C537     1.0000 0.38564  0.49162  0.79883  Biso   1.000  C
  C538     1.0000 0.21804  0.64668  0.49058  Biso   1.000  C
  C539     1.0000 0.03432  0.29829  0.37424  Biso   1.000  C
  C540     1.0000 0.88224  0.50663  0.71258  Biso   1.000  C
  C541     1.0000 0.22822  0.86809  0.98844  Biso   1.000  C
  C542     1.0000 0.01858  0.20968  0.87275  Biso   1.000  C
  C543     1.0000 0.89813  0.01620  0.22692  Biso   1.000  C
  C544     1.0000 0.71897  0.86228  0.51089  Biso   1.000  C
  C545     1.0000 0.51292  0.21546  0.63732  Biso   1.000  C
  C546     1.0000 0.39540  0.99291  0.29124  Biso   1.000  C
  C547     1.0000 0.30227  0.37153  0.99140  Biso   1.000  C
  C548     1.0000 0.51537  0.71630  0.87552  Biso   1.000  C
  C549     1.0000 0.65647  0.49737  0.21475  Biso   1.000  C
  C550     1.0000 0.81351  0.36090  0.50078  Biso   1.000  C
  C551     1.0000 0.02201  0.70855  0.63595  Biso   1.000  C
  C552     1.0000 0.15779  0.50676  0.29640  Biso   1.000  C
  C553     1.0000 0.00496  0.13204  0.80323  Biso   1.000  C
  C554     1.0000 0.81473  0.01517  0.15743  Biso   1.000  C
  C555     1.0000 0.14939  0.79312  0.99036  Biso   1.000  C
  C556     1.0000 0.49629  0.14165  0.71384  Biso   1.000  C
  C557     1.0000 0.31641  0.01642  0.36311  Biso   1.000  C
  C558     1.0000 0.63816  0.78512  0.52400  Biso   1.000  C
  C559     1.0000 0.51532  0.63829  0.79868  Biso   1.000  C
  C560     1.0000 0.73207  0.48945  0.13795  Biso   1.000  C
  C561     1.0000 0.37859  0.29545  0.99190  Biso   1.000  C
  C562     1.0000 0.02016  0.63421  0.71424  Biso   1.000  C
  C563     1.0000 0.23196  0.50183  0.37493  Biso   1.000  C
  C564     1.0000 0.88832  0.28756  0.50388  Biso   1.000  C
  C565     1.0000 0.01748  0.87780  0.21624  Biso   1.000  C
  C566     1.0000 0.21377  0.99463  0.86261  Biso   1.000  C
  C567     1.0000 0.87914  0.21519  0.01272  Biso   1.000  C
  C568     1.0000 0.53295  0.86928  0.30153  Biso   1.000  C
  C569     1.0000 0.70805  0.98596  0.65837  Biso   1.000  C
  C570     1.0000 0.39051  0.22161  0.51643  Biso   1.000  C
  C571     1.0000 0.54984  0.36861  0.20749  Biso   1.000  C
  C572     1.0000 0.30906  0.49996  0.87219  Biso   1.000  C
  C573     1.0000 0.65484  0.70950  0.01245  Biso   1.000  C
  C574     1.0000 0.02345  0.37189  0.29917  Biso   1.000  C
  C575     1.0000 0.80420  0.50128  0.63917  Biso   1.000  C
  C576     1.0000 0.14161  0.71509  0.49866  Biso   1.000  C
  C577     1.0000 0.30987  0.48730  0.10619  Biso   1.000  C
  C578     1.0000 0.12613  0.29745  0.51438  Biso   1.000  C
  C579     1.0000 0.52677  0.10693  0.29964  Biso   1.000  C
  C580     1.0000 0.81158  0.48387  0.39753  Biso   1.000  C
  C581     1.0000 0.61488  0.29528  0.01208  Biso   1.000  C
  C582     1.0000 0.02689  0.11360  0.21186  Biso   1.000  C
  C583     1.0000 0.23050  0.98704  0.09562  Biso   1.000  C
  C584     1.0000 0.40365  0.80075  0.49937  Biso   1.000  C
  C585     1.0000 0.02579  0.60584  0.29363  Biso   1.000  C
  C586     1.0000 0.73167  0.00136  0.42314  Biso   1.000  C
  C587     1.0000 0.91706  0.79968  0.00416  Biso   1.000  C
  C588     1.0000 0.53063  0.60062  0.21648  Biso   1.000  C
  C589     1.0000 0.72703  0.50493  0.90197  Biso   1.000  C
  C590     1.0000 0.90590  0.70534  0.51845  Biso   1.000  C
  C591     1.0000 0.49204  0.90821  0.72057  Biso   1.000  C
  C592     1.0000 0.22639  0.51541  0.61177  Biso   1.000  C
  C593     1.0000 0.42153  0.71350  0.00271  Biso   1.000  C
  C594     1.0000 0.01445  0.90066  0.79676  Biso   1.000  C
  C595     1.0000 0.80075  0.98773  0.92301  Biso   1.000  C
  C596     1.0000 0.62688  0.20801  0.50449  Biso   1.000  C
  C597     1.0000 0.01012  0.39538  0.71784  Biso   1.000  C
  C598     1.0000 0.29856  0.99881  0.59322  Biso   1.000  C
  C599     1.0000 0.11520  0.20444  0.99205  Biso   1.000  C
  C600     1.0000 0.51340  0.40606  0.79528  Biso   1.000  C
  C601     1.0000 0.21449  0.99620  0.89429  Biso   1.000  C
  C602     1.0000 0.91024  0.21467  0.00955  Biso   1.000  C
  C603     1.0000 0.01898  0.90965  0.21449  Biso   1.000  C
  C604     1.0000 0.71073  0.98636  0.62654  Biso   1.000  C
  C605     1.0000 0.42220  0.21908  0.51889  Biso   1.000  C
  C606     1.0000 0.53786  0.90079  0.30072  Biso   1.000  C
  C607     1.0000 0.30847  0.50552  0.90345  Biso   1.000  C
  C608     1.0000 0.62266  0.70984  0.01352  Biso   1.000  C
  C609     1.0000 0.54528  0.40019  0.20665  Biso   1.000  C
  C610     1.0000 0.80296  0.50152  0.60757  Biso   1.000  C
  C611     1.0000 0.11070  0.71116  0.50176  Biso   1.000  C
  C612     1.0000 0.02010  0.40304  0.29809  Biso   1.000  C
  C613     1.0000 0.81125  0.01386  0.12420  Biso   1.000  C
  C614     1.0000 0.11803  0.79503  0.99298  Biso   1.000  C
  C615     1.0000 0.00049  0.10106  0.80301  Biso   1.000  C
  C616     1.0000 0.31553  0.02227  0.39442  Biso   1.000  C
  C617     1.0000 0.60690  0.78711  0.52585  Biso   1.000  C
  C618     1.0000 0.49560  0.10942  0.71395  Biso   1.000  C
  C619     1.0000 0.73193  0.48850  0.10730  Biso   1.000  C
  C620     1.0000 0.40998  0.29699  0.99069  Biso   1.000  C
  C621     1.0000 0.52088  0.60782  0.79768  Biso   1.000  C
  C622     1.0000 0.23023  0.49854  0.40719  Biso   1.000  C
  C623     1.0000 0.91876  0.28954  0.50457  Biso   1.000  C
  C624     1.0000 0.02235  0.60268  0.71488  Biso   1.000  C
  C625     1.0000 0.01997  0.21034  0.90439  Biso   1.000  C
  C626     1.0000 0.92967  0.01815  0.22193  Biso   1.000  C
  C627     1.0000 0.22606  0.89950  0.98975  Biso   1.000  C
  C628     1.0000 0.52129  0.21454  0.60694  Biso   1.000  C
  C629     1.0000 0.42639  0.98987  0.29548  Biso   1.000  C
  C630     1.0000 0.71876  0.89389  0.50930  Biso   1.000  C
  C631     1.0000 0.51815  0.71589  0.90657  Biso   1.000  C
  C632     1.0000 0.62668  0.50334  0.21310  Biso   1.000  C
  C633     1.0000 0.30385  0.40242  0.99048  Biso   1.000  C
  C634     1.0000 0.02196  0.70784  0.60488  Biso   1.000  C
  C635     1.0000 0.12587  0.50431  0.29521  Biso   1.000  C
  C636     1.0000 0.81378  0.39183  0.50704  Biso   1.000  C
  C637     1.0000 0.01551  0.80331  0.10777  Biso   1.000  C
  C638     1.0000 0.10370  0.01204  0.79521  Biso   1.000  C
  C639     1.0000 0.80354  0.10432  0.01616  Biso   1.000  C
  C640     1.0000 0.51743  0.79462  0.41068  Biso   1.000  C
  C641     1.0000 0.59509  0.99183  0.72753  Biso   1.000  C
  C642     1.0000 0.30817  0.11677  0.50306  Biso   1.000  C
  C643     1.0000 0.52099  0.29469  0.10328  Biso   1.000  C
  C644     1.0000 0.41635  0.49687  0.79707  Biso   1.000  C
  C645     1.0000 0.73168  0.60398  0.01545  Biso   1.000  C
  C646     1.0000 0.03764  0.29678  0.40467  Biso   1.000  C
  C647     1.0000 0.91378  0.50694  0.71479  Biso   1.000  C
  C648     1.0000 0.22114  0.61534  0.49339  Biso   1.000  C
  C649     1.0000 0.00632  0.70943  0.40095  Biso   1.000  C
  C650     1.0000 0.39437  0.00437  0.70778  Biso   1.000  C
  C651     1.0000 0.72772  0.39787  0.99293  Biso   1.000  C
  C652     1.0000 0.51448  0.71187  0.11385  Biso   1.000  C
  C653     1.0000 0.89893  0.98585  0.80751  Biso   1.000  C
  C654     1.0000 0.22998  0.40901  0.50660  Biso   1.000  C
  C655     1.0000 0.52358  0.21596  0.40493  Biso   1.000  C
  C656     1.0000 0.11911  0.47954  0.71328  Biso   1.000  C
  C657     1.0000 0.81569  0.90043  0.04402  Biso   1.000  C
  C658     1.0000 0.02627  0.22076  0.10619  Biso   1.000  C
  C659     1.0000 0.61863  0.50861  0.79864  Biso   1.000  C
  C660     1.0000 0.30564  0.91147  0.48200  Biso   1.000  C
  C661     1.0000 0.03449  0.29357  0.60916  Biso   1.000  C
  C662     1.0000 0.63029  0.01575  0.30866  Biso   1.000  C
  C663     1.0000 0.31295  0.60906  0.01157  Biso   1.000  C
  C664     1.0000 0.50408  0.29485  0.89950  Biso   1.000  C
  C665     1.0000 0.13276  0.01876  0.20590  Biso   1.000  C
  C666     1.0000 0.80215  0.59520  0.49826  Biso   1.000  C
  C667     1.0000 0.50719  0.79934  0.61523  Biso   1.000  C
  C668     1.0000 0.91963  0.50308  0.29470  Biso   1.000  C
  C669     1.0000 0.21718  0.09838  0.00992  Biso   1.000  C
  C670     1.0000 0.01981  0.79689  0.90234  Biso   1.000  C
  C671     1.0000 0.41906  0.50046  0.20877  Biso   1.000  C
  C672     1.0000 0.72669  0.10086  0.53023  Biso   1.000  C
  C673     1.0000 0.19683  0.99890  0.80003  Biso   1.000  C
  C674     1.0000 0.81451  0.19962  0.01639  Biso   1.000  C
  C675     1.0000 0.01586  0.81494  0.20212  Biso   1.000  C
  C676     1.0000 0.69180  0.98530  0.72152  Biso   1.000  C
  C677     1.0000 0.32921  0.21085  0.50710  Biso   1.000  C
  C678     1.0000 0.52438  0.80734  0.31352  Biso   1.000  C
  C679     1.0000 0.32261  0.48658  0.81117  Biso   1.000  C
  C680     1.0000 0.71740  0.69624  0.01775  Biso   1.000  C
  C681     1.0000 0.53928  0.30769  0.19942  Biso   1.000  C
  C682     1.0000 0.82049  0.50277  0.70110  Biso   1.000  C
  C683     1.0000 0.20301  0.70735  0.49358  Biso   1.000  C
  C684     1.0000 0.02715  0.30986  0.31300  Biso   1.000  C
  C685     1.0000 0.83439  0.01367  0.21906  Biso   1.000  C
  C686     1.0000 0.21548  0.80568  0.98811  Biso   1.000  C
  C687     1.0000 0.01296  0.19445  0.81465  Biso   1.000  C
  C688     1.0000 0.33051  0.00657  0.30086  Biso   1.000  C
  C689     1.0000 0.70439  0.79866  0.51787  Biso   1.000  C
  C690     1.0000 0.50229  0.20272  0.69838  Biso   1.000  C
  C691     1.0000 0.71773  0.49330  0.20057  Biso   1.000  C
  C692     1.0000 0.31328  0.30868  0.99044  Biso   1.000  C
  C693     1.0000 0.50918  0.70245  0.81196  Biso   1.000  C
  C694     1.0000 0.21921  0.50755  0.31183  Biso   1.000  C
  C695     1.0000 0.82871  0.29984  0.50035  Biso   1.000  C
  C696     1.0000 0.01981  0.69635  0.70091  Biso   1.000  C
  C697     1.0000 0.72443  0.01251  0.32776  Biso   1.000  C
  C698     1.0000 0.32738  0.70208  0.00436  Biso   1.000  C
  C699     1.0000 0.02930  0.30114  0.70330  Biso   1.000  C
  C700     1.0000 0.22476  0.00276  0.19075  Biso   1.000  C
  C701     1.0000 0.81244  0.69120  0.50888  Biso   1.000  C
  C702     1.0000 0.50197  0.31205  0.80557  Biso   1.000  C
  C703     1.0000 0.82535  0.49113  0.30631  Biso   1.000  C
  C704     1.0000 0.20862  0.18987  0.99216  Biso   1.000  C
  C705     1.0000 0.49933  0.81348  0.70942  Biso   1.000  C
  C706     1.0000 0.32459  0.49916  0.19847  Biso   1.000  C
  C707     1.0000 0.71781  0.19371  0.51543  Biso   1.000  C
  C708     1.0000 0.01810  0.80665  0.80826  Biso   1.000  C
  C709     1.0000 0.30208  0.99690  0.68877  Biso   1.000  C
  C710     1.0000 0.70824  0.30753  0.00633  Biso   1.000  C
  C711     1.0000 0.01821  0.70051  0.30724  Biso   1.000  C
  C712     1.0000 0.80474  0.98018  0.82590  Biso   1.000  C
  C713     1.0000 0.21952  0.31617  0.51065  Biso   1.000  C
  C714     1.0000 0.52652  0.69679  0.20735  Biso   1.000  C
  C715     1.0000 0.21273  0.49297  0.70488  Biso   1.000  C
  C716     1.0000 0.82482  0.80663  0.02298  Biso   1.000  C
  C717     1.0000 0.53366  0.20139  0.31137  Biso   1.000  C
  C718     1.0000 0.71108  0.50236  0.80916  Biso   1.000  C
  C719     1.0000 0.31263  0.81899  0.49036  Biso   1.000  C
  C720     1.0000 0.02445  0.20777  0.19946  Biso   1.000  C
  C721     1.0000 0.54265  0.81087  0.28748  Biso   1.000  C
  C722     1.0000 0.32375  0.50173  0.78398  Biso   1.000  C
  C723     1.0000 0.80664  0.29916  0.52292  Biso   1.000  C
  C724     1.0000 0.99469  0.78983  0.20111  Biso   1.000  C
  C725     1.0000 0.79263  0.51936  0.69993  Biso   1.000  C
  C726     1.0000 0.28532  0.30965  0.97708  Biso   1.000  C
  C727     1.0000 0.01261  0.28157  0.31854  Biso   1.000  C
  C728     1.0000 0.22574  0.01255  0.80067  Biso   1.000  C
  C729     1.0000 0.73347  0.80341  0.53278  Biso   1.000  C
  C730     1.0000 0.53060  0.31502  0.22865  Biso   1.000  C
  C731     1.0000 0.71608  0.96555  0.72006  Biso   1.000  C
  C732     1.0000 0.24266  0.80773  0.97081  Biso   1.000  C
  C733     1.0000 0.47887  0.20326  0.71882  Biso   1.000  C
  C734     1.0000 0.71360  0.47695  0.22847  Biso   1.000  C
  C735     1.0000 0.19855  0.73345  0.47608  Biso   1.000  C
  C736     1.0000 0.99725  0.22107  0.81531  Biso   1.000  C
  C737     1.0000 0.24436  0.48767  0.31335  Biso   1.000  C
  C738     1.0000 0.74193  0.69290  0.03624  Biso   1.000  C
  C739     1.0000 0.03919  0.69542  0.72640  Biso   1.000  C
  C740     1.0000 0.80805  0.99490  0.21899  Biso   1.000  C
  C741     1.0000 0.30643  0.21258  0.48475  Biso   1.000  C
  C742     1.0000 0.52002  0.69917  0.78346  Biso   1.000  C
  C743     1.0000 0.33108  0.98608  0.27716  Biso   1.000  C
  C744     1.0000 0.81833  0.22849  0.02773  Biso   1.000  C
  C745     1.0000 0.03203  0.72873  0.31207  Biso   1.000  C
  C746     1.0000 0.27604  0.01287  0.68458  Biso   1.000  C
  C747     1.0000 0.73210  0.31008  0.02540  Biso   1.000  C
  C748     1.0000 0.53936  0.72512  0.20170  Biso   1.000  C
  C749     1.0000 0.80652  0.96529  0.79887  Biso   1.000  C
  C750     1.0000 0.24768  0.32138  0.52502  Biso   1.000  C
  C751     1.0000 0.55377  0.19598  0.28698  Biso   1.000  C
  C752     1.0000 0.24057  0.48006  0.69758  Biso   1.000  C
  C753     1.0000 0.79565  0.81283  0.01287  Biso   1.000  C
  C754     1.0000 0.04123  0.20236  0.22536  Biso   1.000  C
  C755     1.0000 0.70592  0.48451  0.78468  Biso   1.000  C
  C756     1.0000 0.28421  0.82478  0.50254  Biso   1.000  C
  C757     1.0000 0.01145  0.27335  0.69788  Biso   1.000  C
  C758     1.0000 0.72345  0.02996  0.30198  Biso   1.000  C
  C759     1.0000 0.30068  0.70221  0.02037  Biso   1.000  C
  C760     1.0000 0.51657  0.31600  0.77746  Biso   1.000  C
  C761     1.0000 0.25250  0.01789  0.18558  Biso   1.000  C
  C762     1.0000 0.81470  0.71891  0.49285  Biso   1.000  C
  C763     1.0000 0.47904  0.81295  0.73371  Biso   1.000  C
  C764     1.0000 0.79875  0.50563  0.31182  Biso   1.000  C
  C765     1.0000 0.23386  0.19034  0.01080  Biso   1.000  C
  C766     1.0000 0.99777  0.80551  0.78509  Biso   1.000  C
  C767     1.0000 0.32774  0.51770  0.22406  Biso   1.000  C
  C768     1.0000 0.71965  0.21209  0.49061  Biso   1.000  C
  C769     1.0000 0.48881  0.72609  0.81734  Biso   1.000  C
  C770     1.0000 0.82470  0.48613  0.72923  Biso   1.000  C
  C771     1.0000 0.70085  0.77086  0.50393  Biso   1.000  C
  C772     1.0000 0.00052  0.72017  0.69767  Biso   1.000  C
  C773     1.0000 0.29616  0.47003  0.81682  Biso   1.000  C
  C774     1.0000 0.21182  0.78098  0.00696  Biso   1.000  C
  C775     1.0000 0.03619  0.19148  0.79278  Biso   1.000  C
  C776     1.0000 0.68948  0.99869  0.74863  Biso   1.000  C
  C777     1.0000 0.83039  0.27403  0.48294  Biso   1.000  C
  C778     1.0000 0.52392  0.22571  0.70103  Biso   1.000  C
  C779     1.0000 0.18834  0.98151  0.77419  Biso   1.000  C
  C780     1.0000 0.31909  0.27870  0.00365  Biso   1.000  C
  C781     1.0000 0.55154  0.27859  0.19376  Biso   1.000  C
  C782     1.0000 0.21562  0.52448  0.28581  Biso   1.000  C
  C783     1.0000 0.32828  0.23527  0.52810  Biso   1.000  C
  C784     1.0000 0.03943  0.31585  0.28410  Biso   1.000  C
  C785     1.0000 0.74659  0.50973  0.19804  Biso   1.000  C
  C786     1.0000 0.78654  0.19346  0.00247  Biso   1.000  C
  C787     1.0000 0.03662  0.81517  0.22491  Biso   1.000  C
  C788     1.0000 0.30825  0.02757  0.29851  Biso   1.000  C
  C789     1.0000 0.23231  0.70612  0.50927  Biso   1.000  C
  C790     1.0000 0.50484  0.78305  0.31547  Biso   1.000  C
  C791     1.0000 0.83738  0.03233  0.24536  Biso   1.000  C
  C792     1.0000 0.71774  0.72071  0.99796  Biso   1.000  C
  C793     1.0000 0.51753  0.22744  0.31214  Biso   1.000  C
  C794     1.0000 0.29638  0.48173  0.19819  Biso   1.000  C
  C795     1.0000 0.21386  0.28884  0.49726  Biso   1.000  C
  C796     1.0000 0.00652  0.23331  0.19929  Biso   1.000  C
  C797     1.0000 0.83073  0.47690  0.27946  Biso   1.000  C
  C798     1.0000 0.70561  0.28061  0.98921  Biso   1.000  C
  C799     1.0000 0.00453  0.69521  0.27926  Biso   1.000  C
  C800     1.0000 0.21855  0.98965  0.21883  Biso   1.000  C
  C801     1.0000 0.31660  0.78890  0.47828  Biso   1.000  C
  C802     1.0000 0.51233  0.69126  0.23653  Biso   1.000  C
  C803     1.0000 0.75199  0.99675  0.33236  Biso   1.000  C
  C804     1.0000 0.82963  0.77696  0.03302  Biso   1.000  C
  C805     1.0000 0.52197  0.79164  0.70893  Biso   1.000  C
  C806     1.0000 0.73726  0.52028  0.80992  Biso   1.000  C
  C807     1.0000 0.78640  0.68318  0.52398  Biso   1.000  C
  C808     1.0000 0.04050  0.78509  0.80931  Biso   1.000  C
  C809     1.0000 0.20755  0.50176  0.73454  Biso   1.000  C
  C810     1.0000 0.32941  0.72492  0.98242  Biso   1.000  C
  C811     1.0000 0.04380  0.30480  0.73140  Biso   1.000  C
  C812     1.0000 0.77806  0.99574  0.83253  Biso   1.000  C
  C813     1.0000 0.74236  0.19521  0.53394  Biso   1.000  C
  C814     1.0000 0.48346  0.28631  0.80886  Biso   1.000  C
  C815     1.0000 0.30362  0.97856  0.71391  Biso   1.000  C
  C816     1.0000 0.20627  0.21347  0.97164  Biso   1.000  C
  C817     1.0000 0.00183  0.24141  0.79270  Biso   1.000  C
  C818     1.0000 0.78812  0.99563  0.24112  Biso   1.000  C
  C819     1.0000 0.26247  0.78648  0.97213  Biso   1.000  C
  C820     1.0000 0.47699  0.22441  0.74036  Biso   1.000  C
  C821     1.0000 0.31191  0.98616  0.25507  Biso   1.000  C
  C822     1.0000 0.75455  0.78052  0.52889  Biso   1.000  C
  C823     1.0000 0.51531  0.72022  0.76418  Biso   1.000  C
  C824     1.0000 0.73476  0.47625  0.24884  Biso   1.000  C
  C825     1.0000 0.26593  0.28703  0.97623  Biso   1.000  C
  C826     1.0000 0.03718  0.71687  0.74614  Biso   1.000  C
  C827     1.0000 0.26483  0.48466  0.29046  Biso   1.000  C
  C828     1.0000 0.78542  0.27725  0.52340  Biso   1.000  C
  C829     1.0000 0.99599  0.76665  0.22063  Biso   1.000  C
  C830     1.0000 0.24410  0.01107  0.77702  Biso   1.000  C
  C831     1.0000 0.79554  0.24721  0.02611  Biso   1.000  C
  C832     1.0000 0.54165  0.78778  0.26674  Biso   1.000  C
  C833     1.0000 0.73422  0.95989  0.74262  Biso   1.000  C
  C834     1.0000 0.28784  0.23591  0.48249  Biso   1.000  C
  C835     1.0000 0.53042  0.29323  0.24894  Biso   1.000  C
  C836     1.0000 0.30302  0.49857  0.76269  Biso   1.000  C
  C837     1.0000 0.76277  0.71413  0.03656  Biso   1.000  C
  C838     1.0000 0.00854  0.26245  0.29523  Biso   1.000  C
  C839     1.0000 0.77257  0.51613  0.72197  Biso   1.000  C
  C840     1.0000 0.21767  0.75625  0.47685  Biso   1.000  C
  C841     1.0000 0.20971  0.97887  0.75252  Biso   1.000  C
  C842     1.0000 0.76311  0.21197  0.00372  Biso   1.000  C
  C843     1.0000 0.03803  0.78963  0.24246  Biso   1.000  C
  C844     1.0000 0.70828  0.99513  0.77172  Biso   1.000  C
  C845     1.0000 0.30839  0.25706  0.52626  Biso   1.000  C
  C846     1.0000 0.50330  0.76317  0.29344  Biso   1.000  C
  C847     1.0000 0.27397  0.46968  0.79708  Biso   1.000  C
  C848     1.0000 0.73750  0.74276  0.00103  Biso   1.000  C
  C849     1.0000 0.55396  0.25878  0.21636  Biso   1.000  C
  C850     1.0000 0.80353  0.48356  0.75036  Biso   1.000  C
  C851     1.0000 0.25066  0.72953  0.50769  Biso   1.000  C
  C852     1.0000 0.03756  0.29432  0.26318  Biso   1.000  C
  C853     1.0000 0.81683  0.03210  0.26642  Biso   1.000  C
  C854     1.0000 0.23201  0.75962  0.00861  Biso   1.000  C
  C855     1.0000 0.03876  0.21285  0.77078  Biso   1.000  C
  C856     1.0000 0.28772  0.02749  0.27738  Biso   1.000  C
  C857     1.0000 0.72130  0.74942  0.50296  Biso   1.000  C
  C858     1.0000 0.52132  0.24708  0.72143  Biso   1.000  C
  C859     1.0000 0.76773  0.50921  0.21919  Biso   1.000  C
  C860     1.0000 0.29964  0.25477  0.00250  Biso   1.000  C
  C861     1.0000 0.48836  0.74844  0.79895  Biso   1.000  C
  C862     1.0000 0.23639  0.52154  0.26365  Biso   1.000  C
  C863     1.0000 0.80707  0.25415  0.48194  Biso   1.000  C
  C864     1.0000 0.00111  0.74160  0.71899  Biso   1.000  C
  C865     1.0000 0.72704  0.48502  0.76362  Biso   1.000  C
  C866     1.0000 0.79406  0.73944  0.49615  Biso   1.000  C
  C867     1.0000 0.48085  0.79177  0.75504  Biso   1.000  C
  C868     1.0000 0.26142  0.47764  0.71912  Biso   1.000  C
  C869     1.0000 0.28057  0.72298  0.01713  Biso   1.000  C
  C870     1.0000 0.99731  0.78473  0.76346  Biso   1.000  C
  C871     1.0000 0.78129  0.96310  0.78066  Biso   1.000  C
  C872     1.0000 0.74073  0.23288  0.48532  Biso   1.000  C
  C873     1.0000 0.01065  0.25315  0.71994  Biso   1.000  C
  C874     1.0000 0.25258  0.01087  0.70593  Biso   1.000  C
  C875     1.0000 0.25307  0.21426  0.01117  Biso   1.000  C
  C876     1.0000 0.51441  0.29433  0.75740  Biso   1.000  C
  C877     1.0000 0.30767  0.51808  0.24724  Biso   1.000  C
  C878     1.0000 0.27060  0.30273  0.52088  Biso   1.000  C
  C879     1.0000 0.55538  0.21753  0.26531  Biso   1.000  C
  C880     1.0000 0.77767  0.50612  0.29088  Biso   1.000  C
  C881     1.0000 0.75151  0.28830  0.02965  Biso   1.000  C
  C882     1.0000 0.04064  0.22225  0.24839  Biso   1.000  C
  C883     1.0000 0.27396  0.01541  0.20567  Biso   1.000  C
  C884     1.0000 0.26114  0.80481  0.50134  Biso   1.000  C
  C885     1.0000 0.03158  0.75002  0.29063  Biso   1.000  C
  C886     1.0000 0.74539  0.02889  0.28123  Biso   1.000  C
  C887     1.0000 0.77467  0.79122  0.01508  Biso   1.000  C
  C888     1.0000 0.53970  0.74643  0.22415  Biso   1.000  C
  C889     1.0000 0.77513  0.00089  0.31283  Biso   1.000  C
  C890     1.0000 0.30732  0.74357  0.97706  Biso   1.000  C
  C891     1.0000 0.04117  0.28373  0.75212  Biso   1.000  C
  C892     1.0000 0.23825  0.99461  0.23964  Biso   1.000  C
  C893     1.0000 0.76759  0.70507  0.52582  Biso   1.000  C
  C894     1.0000 0.48246  0.26621  0.78797  Biso   1.000  C
  C895     1.0000 0.80780  0.47553  0.25859  Biso   1.000  C
  C896     1.0000 0.22564  0.23749  0.97327  Biso   1.000  C
  C897     1.0000 0.52231  0.76896  0.72994  Biso   1.000  C
  C898     1.0000 0.27606  0.48511  0.21973  Biso   1.000  C
  C899     1.0000 0.76508  0.21499  0.52970  Biso   1.000  C
  C900     1.0000 0.04099  0.76615  0.78597  Biso   1.000  C
  C901     1.0000 0.28173  0.97772  0.73479  Biso   1.000  C
  C902     1.0000 0.72584  0.25971  0.99359  Biso   1.000  C
  C903     1.0000 0.00495  0.71755  0.25842  Biso   1.000  C
  C904     1.0000 0.75479  0.99182  0.81438  Biso   1.000  C
  C905     1.0000 0.23679  0.26926  0.49545  Biso   1.000  C
  C906     1.0000 0.51253  0.71360  0.25668  Biso   1.000  C
  C907     1.0000 0.22843  0.49556  0.75617  Biso   1.000  C
  C908     1.0000 0.80753  0.75567  0.03049  Biso   1.000  C
  C909     1.0000 0.52100  0.24824  0.29063  Biso   1.000  C
  C910     1.0000 0.75858  0.51880  0.78985  Biso   1.000  C
  C911     1.0000 0.29285  0.76945  0.47807  Biso   1.000  C
  C912     1.0000 0.00669  0.25288  0.22322  Biso   1.000  C
  C913     1.0000 0.77698  0.49716  0.74536  Biso   1.000  C
  C914     1.0000 0.74761  0.75422  0.51782  Biso   1.000  C
  C915     1.0000 0.50124  0.74553  0.77242  Biso   1.000  C
  C916     1.0000 0.27807  0.48274  0.76973  Biso   1.000  C
  C917     1.0000 0.25801  0.76253  0.99198  Biso   1.000  C
  C918     1.0000 0.01885  0.73988  0.74257  Biso   1.000  C
  C919     1.0000 0.73136  0.97618  0.76804  Biso   1.000  C
  C920     1.0000 0.78597  0.25561  0.50333  Biso   1.000  C
  C921     1.0000 0.02175  0.23615  0.77070  Biso   1.000  C
  C922     1.0000 0.23603  0.99406  0.75447  Biso   1.000  C
  C923     1.0000 0.27206  0.25991  0.98956  Biso   1.000  C
  C924     1.0000 0.49833  0.24656  0.74105  Biso   1.000  C
  C925     1.0000 0.25982  0.50235  0.26666  Biso   1.000  C
  C926     1.0000 0.28861  0.25635  0.50427  Biso   1.000  C
  C927     1.0000 0.54146  0.26501  0.24291  Biso   1.000  C
  C928     1.0000 0.76075  0.49149  0.24326  Biso   1.000  C
  C929     1.0000 0.76902  0.23923  0.01398  Biso   1.000  C
  C930     1.0000 0.02189  0.26881  0.26961  Biso   1.000  C
  C931     1.0000 0.28775  0.00443  0.25656  Biso   1.000  C
  C932     1.0000 0.24281  0.75346  0.49187  Biso   1.000  C
  C933     1.0000 0.01633  0.76815  0.24215  Biso   1.000  C
  C934     1.0000 0.79246  0.01482  0.26418  Biso   1.000  C
  C935     1.0000 0.76033  0.73973  0.01966  Biso   1.000  C
  C936     1.0000 0.52214  0.76468  0.27004  Biso   1.000  C
  C937     1.0000 0.74699  0.26244  0.01485  Biso   1.000  C
  C938     1.0000 0.01794  0.74489  0.26450  Biso   1.000  C
  C939     1.0000 0.25774  0.99326  0.73096  Biso   1.000  C
  C940     1.0000 0.26473  0.27650  0.50605  Biso   1.000  C
  C941     1.0000 0.52585  0.74045  0.25031  Biso   1.000  C
  C942     1.0000 0.75655  0.97744  0.78914  Biso   1.000  C
  C943     1.0000 0.78062  0.76320  0.02204  Biso   1.000  C
  C944     1.0000 0.54123  0.24403  0.26826  Biso   1.000  C
  C945     1.0000 0.25516  0.48500  0.74809  Biso   1.000  C
  C946     1.0000 0.26655  0.77678  0.49056  Biso   1.000  C
  C947     1.0000 0.02301  0.24628  0.24692  Biso   1.000  C
  C948     1.0000 0.75363  0.49841  0.76738  Biso   1.000  C
  C949     1.0000 0.28296  0.74213  0.99516  Biso   1.000  C
  C950     1.0000 0.02450  0.25868  0.74705  Biso   1.000  C
  C951     1.0000 0.77103  0.01616  0.28781  Biso   1.000  C
  C952     1.0000 0.77108  0.73367  0.51412  Biso   1.000  C
  C953     1.0000 0.49732  0.26987  0.76190  Biso   1.000  C
  C954     1.0000 0.26660  0.00423  0.23327  Biso   1.000  C
  C955     1.0000 0.24960  0.23672  0.99237  Biso   1.000  C
  C956     1.0000 0.50045  0.76977  0.75183  Biso   1.000  C
  C957     1.0000 0.78301  0.49059  0.26536  Biso   1.000  C
  C958     1.0000 0.76310  0.23366  0.50543  Biso   1.000  C
  C959     1.0000 0.01885  0.76425  0.76422  Biso   1.000  C
  C960     1.0000 0.28124  0.50272  0.24415  Biso   1.000  C
  Cu1      1.0000 0.01901  0.49910  0.66118  Biso   1.000  Cu
  Cu2      1.0000 0.66755  0.99841  0.52079  Biso   1.000  Cu
  Cu3      1.0000 0.52076  0.65586  0.01081  Biso   1.000  Cu
  Cu4      1.0000 0.51793  0.50655  0.85201  Biso   1.000  Cu
  Cu5      1.0000 0.16743  0.99498  0.99896  Biso   1.000  Cu
  Cu6      1.0000 0.00657  0.65312  0.50461  Biso   1.000  Cu
  Cu7      1.0000 0.49907  0.00689  0.66133  Biso   1.000  Cu
  Cu8      1.0000 0.86079  0.49937  0.50309  Biso   1.000  Cu
  Cu9      1.0000 0.01169  0.16003  0.00859  Biso   1.000  Cu
  Cu10     1.0000 0.00440  0.00043  0.85657  Biso   1.000  Cu
  Cu11     1.0000 0.36012  0.50534  0.00683  Biso   1.000  Cu
  Cu12     1.0000 0.52151  0.16027  0.50510  Biso   1.000  Cu
  Cu13     1.0000 0.02290  0.50443  0.34984  Biso   1.000  Cu
  Cu14     1.0000 0.36043  0.01555  0.49812  Biso   1.000  Cu
  Cu15     1.0000 0.51345  0.35031  0.00200  Biso   1.000  Cu
  Cu16     1.0000 0.52216  0.50230  0.15694  Biso   1.000  Cu
  Cu17     1.0000 0.86134  0.00533  0.02178  Biso   1.000  Cu
  Cu18     1.0000 0.02406  0.34999  0.50850  Biso   1.000  Cu
  Cu19     1.0000 0.52438  0.00277  0.35701  Biso   1.000  Cu
  Cu20     1.0000 0.17052  0.50806  0.50797  Biso   1.000  Cu
  Cu21     1.0000 0.02130  0.85247  0.00337  Biso   1.000  Cu
  Cu22     1.0000 0.02667  0.01042  0.15929  Biso   1.000  Cu
  Cu23     1.0000 0.67844  0.50196  0.00558  Biso   1.000  Cu
  Cu24     1.0000 0.50925  0.85187  0.51257  Biso   1.000  Cu
  Cu25     1.0000 0.22133  0.00173  0.99656  Biso   1.000  Cu
  Cu26     1.0000 0.01452  0.21229  0.00431  Biso   1.000  Cu
  Cu27     1.0000 0.03142  0.01251  0.21357  Biso   1.000  Cu
  Cu28     1.0000 0.72116  0.99609  0.52429  Biso   1.000  Cu
  Cu29     1.0000 0.52494  0.21635  0.50833  Biso   1.000  Cu
  Cu30     1.0000 0.52790  0.00548  0.30394  Biso   1.000  Cu
  Cu31     1.0000 0.30739  0.50621  0.00601  Biso   1.000  Cu
  Cu32     1.0000 0.52473  0.71145  0.00875  Biso   1.000  Cu
  Cu33     1.0000 0.51981  0.49921  0.21010  Biso   1.000  Cu
  Cu34     1.0000 0.80744  0.49283  0.50271  Biso   1.000  Cu
  Cu35     1.0000 0.00657  0.70748  0.50395  Biso   1.000  Cu
  Cu36     1.0000 0.02421  0.50288  0.29522  Biso   1.000  Cu
  Cu37     1.0000 0.80595  0.00312  0.02248  Biso   1.000  Cu
  Cu38     1.0000 0.01927  0.79866  0.00510  Biso   1.000  Cu
  Cu39     1.0000 0.00049  0.00017  0.80247  Biso   1.000  Cu
  Cu40     1.0000 0.30626  0.01493  0.49158  Biso   1.000  Cu
  Cu41     1.0000 0.50477  0.79676  0.51301  Biso   1.000  Cu
  Cu42     1.0000 0.49634  0.00757  0.71320  Biso   1.000  Cu
  Cu43     1.0000 0.73150  0.50108  0.00513  Biso   1.000  Cu
  Cu44     1.0000 0.51313  0.29422  0.00188  Biso   1.000  Cu
  Cu45     1.0000 0.51850  0.50844  0.79814  Biso   1.000  Cu
  Cu46     1.0000 0.22549  0.51599  0.50753  Biso   1.000  Cu
  Cu47     1.0000 0.02319  0.29630  0.50810  Biso   1.000  Cu
  Cu48     1.0000 0.01671  0.50051  0.71322  Biso   1.000  Cu
  H1       1.0000 0.23999  0.80984  0.51058  Biso   1.000  H
  H2       1.0000 0.52643  0.29984  0.73573  Biso   1.000  H
  H3       1.0000 0.75847  0.51889  0.29496  Biso   1.000  H
  H4       1.0000 0.75244  0.79757  0.00982  Biso   1.000  H
  H5       1.0000 0.99737  0.23299  0.71623  Biso   1.000  H
  H6       1.0000 0.31047  0.53085  0.26584  Biso   1.000  H
  H7       1.0000 0.29238  0.31024  0.52783  Biso   1.000  H
  H8       1.0000 0.97895  0.78327  0.74806  Biso   1.000  H
  H9       1.0000 0.74327  0.04050  0.26092  Biso   1.000  H
  H10      1.0000 0.76947  0.29156  0.04527  Biso   1.000  H
  H11      1.0000 0.46457  0.79436  0.77299  Biso   1.000  H
  H12      1.0000 0.29664  0.02098  0.20045  Biso   1.000  H
  H13      1.0000 0.73721  0.24781  0.46606  Biso   1.000  H
  H14      1.0000 0.55049  0.76771  0.22101  Biso   1.000  H
  H15      1.0000 0.28230  0.47174  0.71262  Biso   1.000  H
  H16      1.0000 0.26976  0.21333  0.02729  Biso   1.000  H
  H17      1.0000 0.04163  0.77094  0.29520  Biso   1.000  H
  H18      1.0000 0.72467  0.47158  0.74452  Biso   1.000  H
  H19      1.0000 0.79430  0.76128  0.48504  Biso   1.000  H
  H20      1.0000 0.05097  0.21725  0.26812  Biso   1.000  H
  H21      1.0000 0.23403  0.02403  0.70285  Biso   1.000  H
  H22      1.0000 0.26276  0.72490  0.03301  Biso   1.000  H
  H23      1.0000 0.57057  0.21341  0.24701  Biso   1.000  H
  H24      1.0000 0.78247  0.95155  0.76046  Biso   1.000  H
  H25      1.0000 0.26564  0.02232  0.77495  Biso   1.000  H
  H26      1.0000 0.80035  0.26774  0.03580  Biso   1.000  H
  H27      1.0000 0.98072  0.74696  0.21896  Biso   1.000  H
  H28      1.0000 0.75148  0.94542  0.73924  Biso   1.000  H
  H29      1.0000 0.27195  0.23466  0.46401  Biso   1.000  H
  H30      1.0000 0.55788  0.78969  0.25036  Biso   1.000  H
  H31      1.0000 0.30555  0.50907  0.74169  Biso   1.000  H
  H32      1.0000 0.77911  0.71051  0.05269  Biso   1.000  H
  H33      1.0000 0.52409  0.29863  0.27128  Biso   1.000  H
  H34      1.0000 0.75298  0.52691  0.71943  Biso   1.000  H
  H35      1.0000 0.21120  0.77449  0.46461  Biso   1.000  H
  H36      1.0000 0.99808  0.24128  0.29630  Biso   1.000  H
  H37      1.0000 0.77048  0.97946  0.24144  Biso   1.000  H
  H38      1.0000 0.28283  0.78599  0.95876  Biso   1.000  H
  H39      1.0000 0.98830  0.26179  0.79355  Biso   1.000  H
  H40      1.0000 0.31536  0.97406  0.23596  Biso   1.000  H
  H41      1.0000 0.77653  0.78286  0.53534  Biso   1.000  H
  H42      1.0000 0.45766  0.22831  0.75294  Biso   1.000  H
  H43      1.0000 0.73131  0.46550  0.26894  Biso   1.000  H
  H44      1.0000 0.24645  0.28985  0.96428  Biso   1.000  H
  H45      1.0000 0.52202  0.71598  0.74205  Biso   1.000  H
  H46      1.0000 0.28308  0.46976  0.28800  Biso   1.000  H
  H47      1.0000 0.76777  0.28131  0.53756  Biso   1.000  H
  H48      1.0000 0.05301  0.71444  0.76428  Biso   1.000  H
  H49      1.0000 0.23425  0.53441  0.24374  Biso   1.000  H
  H50      1.0000 0.30603  0.27229  0.54480  Biso   1.000  H
  H51      1.0000 0.56468  0.23816  0.21110  Biso   1.000  H
  H52      1.0000 0.78899  0.52126  0.21700  Biso   1.000  H
  H53      1.0000 0.74045  0.20551  0.00020  Biso   1.000  H
  H54      1.0000 0.04965  0.29842  0.24231  Biso   1.000  H
  H55      1.0000 0.27017  0.04527  0.27761  Biso   1.000  H
  H56      1.0000 0.27017  0.72701  0.51942  Biso   1.000  H
  H57      1.0000 0.05449  0.78977  0.25846  Biso   1.000  H
  H58      1.0000 0.81896  0.04606  0.28548  Biso   1.000  H
  H59      1.0000 0.73679  0.76029  0.98465  Biso   1.000  H
  H60      1.0000 0.48690  0.74597  0.29319  Biso   1.000  H
  H61      1.0000 0.80805  0.46926  0.76883  Biso   1.000  H
  H62      1.0000 0.71487  0.72842  0.49487  Biso   1.000  H
  H63      1.0000 0.47673  0.76888  0.80524  Biso   1.000  H
  H64      1.0000 0.25392  0.45836  0.80386  Biso   1.000  H
  H65      1.0000 0.22447  0.74154  0.02111  Biso   1.000  H
  H66      1.0000 0.98916  0.76049  0.71585  Biso   1.000  H
  H67      1.0000 0.70761  0.00818  0.79139  Biso   1.000  H
  H68      1.0000 0.80979  0.23435  0.46859  Biso   1.000  H
  H69      1.0000 0.04973  0.20686  0.75075  Biso   1.000  H
  H70      1.0000 0.20627  0.96425  0.73475  Biso   1.000  H
  H71      1.0000 0.30442  0.23278  0.00860  Biso   1.000  H
  H72      1.0000 0.53782  0.26460  0.71765  Biso   1.000  H
  H73      1.0000 0.77994  0.53160  0.79094  Biso   1.000  H
  H74      1.0000 0.74974  0.69929  0.54084  Biso   1.000  H
  H75      1.0000 0.54007  0.75429  0.73045  Biso   1.000  H
  H76      1.0000 0.22303  0.50049  0.77881  Biso   1.000  H
  H77      1.0000 0.30890  0.75879  0.95978  Biso   1.000  H
  H78      1.0000 0.05896  0.75100  0.78612  Biso   1.000  H
  H79      1.0000 0.73502  0.00274  0.82048  Biso   1.000  H
  H80      1.0000 0.78448  0.21629  0.54341  Biso   1.000  H
  H81      1.0000 0.05257  0.28915  0.77253  Biso   1.000  H
  H82      1.0000 0.28279  0.96362  0.75345  Biso   1.000  H
  H83      1.0000 0.21870  0.25690  0.96151  Biso   1.000  H
  H84      1.0000 0.46923  0.24706  0.79495  Biso   1.000  H
  H85      1.0000 0.25592  0.47294  0.21733  Biso   1.000  H
  H86      1.0000 0.23241  0.24853  0.48417  Biso   1.000  H
  H87      1.0000 0.50799  0.26669  0.29360  Biso   1.000  H
  H88      1.0000 0.81045  0.46357  0.23898  Biso   1.000  H
  H89      1.0000 0.72325  0.24142  0.97948  Biso   1.000  H
  H90      1.0000 0.99047  0.26963  0.22284  Biso   1.000  H
  H91      1.0000 0.23297  0.98897  0.26204  Biso   1.000  H
  H92      1.0000 0.29497  0.74718  0.47014  Biso   1.000  H
  H93      1.0000 0.99513  0.71259  0.23814  Biso   1.000  H
  H94      1.0000 0.79470  0.98890  0.31518  Biso   1.000  H
  H95      1.0000 0.81335  0.73485  0.03477  Biso   1.000  H
  H96      1.0000 0.50294  0.71015  0.27843  Biso   1.000  H
  H97      1.0000 0.87499  0.98985  0.92473  Biso   1.000  H
  H98      1.0000 0.93105  0.87410  0.01733  Biso   1.000  H
  H99      1.0000 0.01739  0.91447  0.86964  Biso   1.000  H
  H100     1.0000 0.37577  0.00595  0.59145  Biso   1.000  H
  H101     1.0000 0.41842  0.87705  0.50485  Biso   1.000  H
  H102     1.0000 0.49925  0.91694  0.64660  Biso   1.000  H
  H103     1.0000 0.65528  0.52144  0.91440  Biso   1.000  H
  H104     1.0000 0.60601  0.37351  0.00475  Biso   1.000  H
  H105     1.0000 0.50879  0.41545  0.87072  Biso   1.000  H
  H106     1.0000 0.15149  0.50324  0.59843  Biso   1.000  H
  H107     1.0000 0.11100  0.37268  0.50902  Biso   1.000  H
  H108     1.0000 0.01144  0.40837  0.64206  Biso   1.000  H
  H109     1.0000 0.15435  0.99083  0.09278  Biso   1.000  H
  H110     1.0000 0.10199  0.12710  0.00030  Biso   1.000  H
  H111     1.0000 0.02811  0.10369  0.13667  Biso   1.000  H
  H112     1.0000 0.65407  0.99343  0.42687  Biso   1.000  H
  H113     1.0000 0.61361  0.13383  0.50702  Biso   1.000  H
  H114     1.0000 0.52159  0.09837  0.37588  Biso   1.000  H
  H115     1.0000 0.38487  0.48720  0.09179  Biso   1.000  H
  H116     1.0000 0.43386  0.64014  0.01118  Biso   1.000  H
  H117     1.0000 0.51663  0.59225  0.14059  Biso   1.000  H
  H118     1.0000 0.88269  0.50715  0.41261  Biso   1.000  H
  H119     1.0000 0.91907  0.63355  0.49834  Biso   1.000  H
  H120     1.0000 0.01934  0.59841  0.37085  Biso   1.000  H
  H121     1.0000 0.10085  0.01642  0.87020  Biso   1.000  H
  H122     1.0000 0.87797  0.09634  0.00614  Biso   1.000  H
  H123     1.0000 0.01966  0.87832  0.09664  Biso   1.000  H
  H124     1.0000 0.59006  0.99596  0.65007  Biso   1.000  H
  H125     1.0000 0.38365  0.10278  0.51255  Biso   1.000  H
  H126     1.0000 0.51104  0.86977  0.41671  Biso   1.000  H
  H127     1.0000 0.42785  0.51005  0.87095  Biso   1.000  H
  H128     1.0000 0.65630  0.59259  0.00629  Biso   1.000  H
  H129     1.0000 0.51596  0.36717  0.09375  Biso   1.000  H
  H130     1.0000 0.92623  0.51275  0.63841  Biso   1.000  H
  H131     1.0000 0.14660  0.60009  0.49567  Biso   1.000  H
  H132     1.0000 0.03060  0.37526  0.41575  Biso   1.000  H
  H133     1.0000 0.93395  0.02660  0.14763  Biso   1.000  H
  H134     1.0000 0.15328  0.90858  0.97616  Biso   1.000  H
  H135     1.0000 0.00741  0.13589  0.92072  Biso   1.000  H
  H136     1.0000 0.43189  0.00324  0.37050  Biso   1.000  H
  H137     1.0000 0.64250  0.90376  0.51450  Biso   1.000  H
  H138     1.0000 0.52553  0.13953  0.59658  Biso   1.000  H
  H139     1.0000 0.61217  0.49758  0.13852  Biso   1.000  H
  H140     1.0000 0.37948  0.41217  0.99130  Biso   1.000  H
  H141     1.0000 0.51994  0.64173  0.91663  Biso   1.000  H
  H142     1.0000 0.11345  0.50762  0.37009  Biso   1.000  H
  H143     1.0000 0.88530  0.40961  0.50298  Biso   1.000  H
  H144     1.0000 0.02747  0.63358  0.59572  Biso   1.000  H
  H145     1.0000 0.61157  0.51993  0.87451  Biso   1.000  H
  H146     1.0000 0.87558  0.58863  0.49318  Biso   1.000  H
  H147     1.0000 0.50398  0.87492  0.60463  Biso   1.000  H
  H148     1.0000 0.10865  0.50579  0.63951  Biso   1.000  H
  H149     1.0000 0.38664  0.59433  0.01839  Biso   1.000  H
  H150     1.0000 0.02101  0.87255  0.91184  Biso   1.000  H
  H151     1.0000 0.91199  0.98689  0.88335  Biso   1.000  H
  H152     1.0000 0.65297  0.08897  0.51695  Biso   1.000  H
  H153     1.0000 0.02351  0.36867  0.59980  Biso   1.000  H
  H154     1.0000 0.41221  0.00402  0.63269  Biso   1.000  H
  H155     1.0000 0.14246  0.08458  0.00979  Biso   1.000  H
  H156     1.0000 0.50370  0.37010  0.91223  Biso   1.000  H
  H157     1.0000 0.42672  0.49283  0.13209  Biso   1.000  H
  H158     1.0000 0.15398  0.41541  0.50878  Biso   1.000  H
  H159     1.0000 0.51987  0.13993  0.41756  Biso   1.000  H
  H160     1.0000 0.92801  0.50614  0.36962  Biso   1.000  H
  H161     1.0000 0.65459  0.41519  0.00224  Biso   1.000  H
  H162     1.0000 0.02360  0.14269  0.09548  Biso   1.000  H
  H163     1.0000 0.11529  0.00278  0.13444  Biso   1.000  H
  H164     1.0000 0.37822  0.92119  0.49034  Biso   1.000  H
  H165     1.0000 0.02272  0.63636  0.40991  Biso   1.000  H
  H166     1.0000 0.61663  0.00083  0.38301  Biso   1.000  H
  H167     1.0000 0.88603  0.91267  0.02297  Biso   1.000  H
  H168     1.0000 0.52271  0.63782  0.10006  Biso   1.000  H
  H169     1.0000 0.99889  0.08968  0.87874  Biso   1.000  H
  H170     1.0000 0.88375  0.01750  0.10786  Biso   1.000  H
  H171     1.0000 0.11113  0.87177  0.98922  Biso   1.000  H
  H172     1.0000 0.51044  0.09918  0.63899  Biso   1.000  H
  H173     1.0000 0.38891  0.01549  0.40983  Biso   1.000  H
  H174     1.0000 0.60051  0.86363  0.52018  Biso   1.000  H
  H175     1.0000 0.52309  0.59766  0.87119  Biso   1.000  H
  H176     1.0000 0.65469  0.49305  0.09463  Biso   1.000  H
  H177     1.0000 0.41887  0.37182  0.99740  Biso   1.000  H
  H178     1.0000 0.02027  0.59239  0.63818  Biso   1.000  H
  H179     1.0000 0.15333  0.51173  0.41629  Biso   1.000  H
  H180     1.0000 0.93070  0.36541  0.50943  Biso   1.000  H
  H181     1.0000 0.02760  0.92054  0.14069  Biso   1.000  H
  H182     1.0000 0.14159  0.00814  0.90950  Biso   1.000  H
  H183     1.0000 0.92149  0.14031  0.01038  Biso   1.000  H
  H184     1.0000 0.52698  0.91219  0.37463  Biso   1.000  H
  H185     1.0000 0.63624  0.98643  0.61083  Biso   1.000  H
  H186     1.0000 0.42800  0.14342  0.52171  Biso   1.000  H
  H187     1.0000 0.52078  0.41133  0.13632  Biso   1.000  H
  H188     1.0000 0.38505  0.52128  0.90910  Biso   1.000  H
  H189     1.0000 0.61359  0.63472  0.00923  Biso   1.000  H
  H190     1.0000 0.03762  0.41684  0.36917  Biso   1.000  H
  H191     1.0000 0.87791  0.51167  0.59252  Biso   1.000  H
  H192     1.0000 0.10151  0.63513  0.49896  Biso   1.000  H
  H193     1.0000 0.28249  0.86906  0.47954  Biso   1.000  H
  H194     1.0000 0.50560  0.27581  0.85655  Biso   1.000  H
  H195     1.0000 0.88160  0.49445  0.26905  Biso   1.000  H
  H196     1.0000 0.79231  0.85990  0.04498  Biso   1.000  H
  H197     1.0000 0.03718  0.27156  0.65048  Biso   1.000  H
  H198     1.0000 0.37704  0.50157  0.23164  Biso   1.000  H
  H199     1.0000 0.25127  0.36782  0.50143  Biso   1.000  H
  H200     1.0000 0.01997  0.77289  0.86113  Biso   1.000  H
  H201     1.0000 0.67385  0.01242  0.28863  Biso   1.000  H
  H202     1.0000 0.74532  0.35700  0.99756  Biso   1.000  H
  H203     1.0000 0.50399  0.77776  0.65885  Biso   1.000  H
  H204     1.0000 0.17686  0.02074  0.22466  Biso   1.000  H
  H205     1.0000 0.74861  0.14149  0.53048  Biso   1.000  H
  H206     1.0000 0.51448  0.72926  0.16079  Biso   1.000  H
  H207     1.0000 0.16260  0.47033  0.73008  Biso   1.000  H
  H208     1.0000 0.23762  0.14097  0.00600  Biso   1.000  H
  H209     1.0000 0.00534  0.73080  0.35738  Biso   1.000  H
  H210     1.0000 0.66016  0.50376  0.77546  Biso   1.000  H
  H211     1.0000 0.77715  0.63540  0.50112  Biso   1.000  H
  H212     1.0000 0.02176  0.24153  0.14701  Biso   1.000  H
  H213     1.0000 0.35013  0.00116  0.72743  Biso   1.000  H
  H214     1.0000 0.29124  0.65036  0.00716  Biso   1.000  H
  H215     1.0000 0.52886  0.23605  0.36118  Biso   1.000  H
  H216     1.0000 0.85601  0.98741  0.78716  Biso   1.000  H
  H217     1.0000 0.25348  0.49925  0.36261  Biso   1.000  H
  H218     1.0000 0.38079  0.24302  0.51313  Biso   1.000  H
  H219     1.0000 0.56143  0.36034  0.22662  Biso   1.000  H
  H220     1.0000 0.75091  0.48605  0.15106  Biso   1.000  H
  H221     1.0000 0.86877  0.23571  0.01289  Biso   1.000  H
  H222     1.0000 0.02463  0.36213  0.27897  Biso   1.000  H
  H223     1.0000 0.29674  0.01504  0.35085  Biso   1.000  H
  H224     1.0000 0.15372  0.73546  0.50083  Biso   1.000  H
  H225     1.0000 0.01794  0.86557  0.23759  Biso   1.000  H
  H226     1.0000 0.79579  0.01295  0.17209  Biso   1.000  H
  H227     1.0000 0.66867  0.72873  0.01276  Biso   1.000  H
  H228     1.0000 0.53244  0.85807  0.28015  Biso   1.000  H
  H229     1.0000 0.78411  0.49773  0.65126  Biso   1.000  H
  H230     1.0000 0.64812  0.76405  0.52606  Biso   1.000  H
  H231     1.0000 0.51223  0.64724  0.77761  Biso   1.000  H
  H232     1.0000 0.28758  0.49631  0.86217  Biso   1.000  H
  H233     1.0000 0.16050  0.77216  0.99149  Biso   1.000  H
  H234     1.0000 0.01730  0.64403  0.73480  Biso   1.000  H
  H235     1.0000 0.72862  0.98821  0.66844  Biso   1.000  H
  H236     1.0000 0.87713  0.26634  0.50462  Biso   1.000  H
  H237     1.0000 0.00833  0.14507  0.78299  Biso   1.000  H
  H238     1.0000 0.23211  0.98872  0.84906  Biso   1.000  H
  H239     1.0000 0.36819  0.27364  0.98964  Biso   1.000  H
  H240     1.0000 0.49432  0.15269  0.73367  Biso   1.000  H
  H241     1.0000 0.74679  0.49655  0.85957  Biso   1.000  H
  H242     1.0000 0.86234  0.72438  0.52482  Biso   1.000  H
  H243     1.0000 0.49109  0.86816  0.74356  Biso   1.000  H
  H244     1.0000 0.24465  0.51542  0.65645  Biso   1.000  H
  H245     1.0000 0.38362  0.73792  0.00396  Biso   1.000  H
  H246     1.0000 0.01266  0.85894  0.77280  Biso   1.000  H
  H247     1.0000 0.77260  0.98175  0.88599  Biso   1.000  H
  H248     1.0000 0.67010  0.22880  0.50688  Biso   1.000  H
  H249     1.0000 0.01894  0.35411  0.73735  Biso   1.000  H
  H250     1.0000 0.27332  0.99285  0.63252  Biso   1.000  H
  H251     1.0000 0.15702  0.22342  0.98366  Biso   1.000  H
  H252     1.0000 0.50372  0.36467  0.77444  Biso   1.000  H
  H253     1.0000 0.28939  0.49464  0.14934  Biso   1.000  H
  H254     1.0000 0.16958  0.27810  0.52097  Biso   1.000  H
  H255     1.0000 0.52927  0.15126  0.27998  Biso   1.000  H
  H256     1.0000 0.79233  0.47556  0.35504  Biso   1.000  H
  H257     1.0000 0.65934  0.27415  0.01335  Biso   1.000  H
  H258     1.0000 0.02141  0.15522  0.23459  Biso   1.000  H
  H259     1.0000 0.25433  0.98962  0.13826  Biso   1.000  H
  H260     1.0000 0.36369  0.77923  0.49979  Biso   1.000  H
  H261     1.0000 0.02391  0.65096  0.27660  Biso   1.000  H
  H262     1.0000 0.75511  0.00989  0.38291  Biso   1.000  H
  H263     1.0000 0.87702  0.77522  0.00697  Biso   1.000  H
  H264     1.0000 0.53697  0.64152  0.23901  Biso   1.000  H
  H265     1.0000 0.02290  0.22979  0.86015  Biso   1.000  H
  H266     1.0000 0.88931  0.01351  0.24936  Biso   1.000  H
  H267     1.0000 0.24952  0.85779  0.98840  Biso   1.000  H
  H268     1.0000 0.50584  0.23711  0.64409  Biso   1.000  H
  H269     1.0000 0.38617  0.98743  0.27060  Biso   1.000  H
  H270     1.0000 0.73946  0.85115  0.51132  Biso   1.000  H
  H271     1.0000 0.51538  0.73703  0.86434  Biso   1.000  H
  H272     1.0000 0.66610  0.50009  0.23495  Biso   1.000  H
  H273     1.0000 0.28034  0.36258  0.99183  Biso   1.000  H
  H274     1.0000 0.02043  0.72991  0.64695  Biso   1.000  H
  H275     1.0000 0.16953  0.50270  0.27584  Biso   1.000  H
  H276     1.0000 0.79077  0.34828  0.49963  Biso   1.000  H
  H277     1.0000 0.01379  0.78275  0.15102  Biso   1.000  H
  H278     1.0000 0.14505  0.00706  0.77074  Biso   1.000  H
  H279     1.0000 0.77945  0.14259  0.02233  Biso   1.000  H
  H280     1.0000 0.52225  0.77171  0.36925  Biso   1.000  H
  H281     1.0000 0.63386  0.98931  0.75137  Biso   1.000  H
  H282     1.0000 0.28850  0.15937  0.50243  Biso   1.000  H
  H283     1.0000 0.52629  0.27454  0.14369  Biso   1.000  H
  H284     1.0000 0.37453  0.48354  0.77944  Biso   1.000  H
  H285     1.0000 0.75286  0.64564  0.01913  Biso   1.000  H
  H286     1.0000 0.03755  0.27742  0.36317  Biso   1.000  H
  H287     1.0000 0.87116  0.50779  0.73311  Biso   1.000  H
  H288     1.0000 0.23778  0.66090  0.48892  Biso   1.000  H
  H289     1.0000 0.10597  0.22598  0.98936  Biso   1.000  H
  H290     1.0000 0.02818  0.10242  0.23159  Biso   1.000  H
  H291     1.0000 0.24894  0.98435  0.08142  Biso   1.000  H
  H292     1.0000 0.61638  0.22817  0.50253  Biso   1.000  H
  H293     1.0000 0.52347  0.09631  0.27892  Biso   1.000  H
  H294     1.0000 0.75216  0.00254  0.43424  Biso   1.000  H
  H295     1.0000 0.43169  0.73546  0.00458  Biso   1.000  H
  H296     1.0000 0.53343  0.58784  0.23648  Biso   1.000  H
  H297     1.0000 0.29078  0.48407  0.09260  Biso   1.000  H
  H298     1.0000 0.91530  0.72449  0.52717  Biso   1.000  H
  H299     1.0000 0.02591  0.59488  0.27170  Biso   1.000  H
  H300     1.0000 0.79100  0.48064  0.40778  Biso   1.000  H
  H301     1.0000 0.92683  0.77952  0.99730  Biso   1.000  H
  H302     1.0000 0.01336  0.91429  0.77709  Biso   1.000  H
  H303     1.0000 0.78170  0.98780  0.93714  Biso   1.000  H
  H304     1.0000 0.41490  0.78006  0.50201  Biso   1.000  H
  H305     1.0000 0.49028  0.91946  0.74175  Biso   1.000  H
  H306     1.0000 0.28134  0.99481  0.57661  Biso   1.000  H
  H307     1.0000 0.60239  0.27399  0.01244  Biso   1.000  H
  H308     1.0000 0.51363  0.41989  0.77404  Biso   1.000  H
  H309     1.0000 0.74790  0.50321  0.91239  Biso   1.000  H
  H310     1.0000 0.11533  0.27780  0.51518  Biso   1.000  H
  H311     1.0000 0.00369  0.40694  0.73764  Biso   1.000  H
  H312     1.0000 0.24519  0.52457  0.60045  Biso   1.000  H
  H313     1.0000 0.23653  0.99697  0.90261  Biso   1.000  H
  H314     1.0000 0.92333  0.23572  0.00787  Biso   1.000  H
  H315     1.0000 0.01730  0.92217  0.23397  Biso   1.000  H
  H316     1.0000 0.73377  0.98851  0.61686  Biso   1.000  H
  H317     1.0000 0.43633  0.23843  0.51986  Biso   1.000  H
  H318     1.0000 0.54390  0.91039  0.27984  Biso   1.000  H
  H319     1.0000 0.28777  0.50555  0.91511  Biso   1.000  H
  H320     1.0000 0.61106  0.72995  0.01346  Biso   1.000  H
  H321     1.0000 0.55080  0.41350  0.22562  Biso   1.000  H
  H322     1.0000 0.78284  0.49767  0.59632  Biso   1.000  H
  H323     1.0000 0.09690  0.73052  0.50490  Biso   1.000  H
  H324     1.0000 0.01681  0.41410  0.27702  Biso   1.000  H
  H325     1.0000 0.79128  0.01043  0.11361  Biso   1.000  H
  H326     1.0000 0.10418  0.77600  0.99198  Biso   1.000  H
  H327     1.0000 0.99998  0.09103  0.78130  Biso   1.000  H
  H328     1.0000 0.29593  0.02547  0.40459  Biso   1.000  H
  H329     1.0000 0.59458  0.76715  0.52807  Biso   1.000  H
  H330     1.0000 0.49295  0.09813  0.73411  Biso   1.000  H
  H331     1.0000 0.75322  0.48553  0.09618  Biso   1.000  H
  H332     1.0000 0.41933  0.27533  0.99023  Biso   1.000  H
  H333     1.0000 0.52564  0.59530  0.77818  Biso   1.000  H
  H334     1.0000 0.24949  0.49510  0.42074  Biso   1.000  H
  H335     1.0000 0.92887  0.26889  0.50847  Biso   1.000  H
  H336     1.0000 0.02261  0.59062  0.73527  Biso   1.000  H
  H337     1.0000 0.02441  0.23192  0.91315  Biso   1.000  H
  H338     1.0000 0.94262  0.01499  0.24053  Biso   1.000  H
  H339     1.0000 0.24416  0.91200  0.99635  Biso   1.000  H
  H340     1.0000 0.51959  0.23507  0.59323  Biso   1.000  H
  H341     1.0000 0.43778  0.98172  0.27720  Biso   1.000  H
  H342     1.0000 0.73834  0.90570  0.50512  Biso   1.000  H
  H343     1.0000 0.51656  0.73448  0.92107  Biso   1.000  H
  H344     1.0000 0.61697  0.50515  0.23395  Biso   1.000  H
  H345     1.0000 0.28347  0.41530  0.99137  Biso   1.000  H
  H346     1.0000 0.02076  0.72805  0.59168  Biso   1.000  H
  H347     1.0000 0.11470  0.50251  0.27357  Biso   1.000  H
  H348     1.0000 0.79223  0.40224  0.50988  Biso   1.000  H
  H349     1.0000 0.01480  0.78147  0.09804  Biso   1.000  H
  H350     1.0000 0.09247  0.01504  0.77528  Biso   1.000  H
  H351     1.0000 0.78402  0.09185  0.02163  Biso   1.000  H
  H352     1.0000 0.51976  0.77414  0.42291  Biso   1.000  H
  H353     1.0000 0.58186  0.99060  0.74841  Biso   1.000  H
  H354     1.0000 0.28721  0.10720  0.50286  Biso   1.000  H
  H355     1.0000 0.52139  0.27391  0.09123  Biso   1.000  H
  H356     1.0000 0.42729  0.49666  0.77492  Biso   1.000  H
  H357     1.0000 0.75148  0.59329  0.01186  Biso   1.000  H
  H358     1.0000 0.04052  0.27548  0.41598  Biso   1.000  H
  H359     1.0000 0.92519  0.50795  0.73539  Biso   1.000  H
  H360     1.0000 0.24424  0.60890  0.49370  Biso   1.000  H
  H361     1.0000 0.00070  0.72974  0.41263  Biso   1.000  H
  H362     1.0000 0.40491  0.00274  0.72953  Biso   1.000  H
  H363     1.0000 0.74749  0.40839  0.99028  Biso   1.000  H
  H364     1.0000 0.51059  0.73291  0.10125  Biso   1.000  H
  H365     1.0000 0.91008  0.98467  0.78657  Biso   1.000  H
  H366     1.0000 0.24975  0.42093  0.50468  Biso   1.000  H
  H367     1.0000 0.51959  0.23639  0.41541  Biso   1.000  H
  H368     1.0000 0.10893  0.46937  0.73202  Biso   1.000  H
  H369     1.0000 0.79601  0.91338  0.05042  Biso   1.000  H
  H370     1.0000 0.02725  0.24045  0.09401  Biso   1.000  H
  H371     1.0000 0.60506  0.50696  0.77961  Biso   1.000  H
  H372     1.0000 0.28495  0.92107  0.47802  Biso   1.000  H
  H373     1.0000 0.03982  0.27208  0.59871  Biso   1.000  H
  H374     1.0000 0.61832  0.01895  0.28911  Biso   1.000  H
  H375     1.0000 0.29177  0.59835  0.01194  Biso   1.000  H
  H376     1.0000 0.50030  0.27446  0.90882  Biso   1.000  H
  H377     1.0000 0.12254  0.02542  0.22628  Biso   1.000  H
  H378     1.0000 0.78289  0.58073  0.50072  Biso   1.000  H
  H379     1.0000 0.50400  0.77807  0.60510  Biso   1.000  H
  H380     1.0000 0.93377  0.50262  0.27651  Biso   1.000  H
  H381     1.0000 0.23819  0.08567  0.01077  Biso   1.000  H
  H382     1.0000 0.02032  0.77654  0.91479  Biso   1.000  H
  H383     1.0000 0.43027  0.50345  0.22827  Biso   1.000  H
  H384     1.0000 0.74644  0.09088  0.53651  Biso   1.000  H
  H385     1.0000 0.24723  0.47219  0.33150  Biso   1.000  H
  H386     1.0000 0.30482  0.19789  0.46726  Biso   1.000  H
  H387     1.0000 0.52391  0.33659  0.23504  Biso   1.000  H
  H388     1.0000 0.69377  0.46533  0.23092  Biso   1.000  H
  H389     1.0000 0.83668  0.23147  0.04108  Biso   1.000  H
  H390     1.0000 0.00202  0.27551  0.33946  Biso   1.000  H
  H391     1.0000 0.34827  0.97027  0.27754  Biso   1.000  H
  H392     1.0000 0.18135  0.73456  0.45965  Biso   1.000  H
  H393     1.0000 0.97803  0.79292  0.18380  Biso   1.000  H
  H394     1.0000 0.80057  0.97862  0.20273  Biso   1.000  H
  H395     1.0000 0.74602  0.67553  0.05169  Biso   1.000  H
  H396     1.0000 0.55744  0.82854  0.28504  Biso   1.000  H
  H397     1.0000 0.78866  0.53491  0.68190  Biso   1.000  H
  H398     1.0000 0.73779  0.82339  0.54378  Biso   1.000  H
  H399     1.0000 0.53183  0.68126  0.77805  Biso   1.000  H
  H400     1.0000 0.34315  0.51462  0.77887  Biso   1.000  H
  H401     1.0000 0.24548  0.82665  0.95813  Biso   1.000  H
  H402     1.0000 0.05314  0.67706  0.72933  Biso   1.000  H
  H403     1.0000 0.72145  0.95432  0.70061  Biso   1.000  H
  H404     1.0000 0.80331  0.31762  0.53522  Biso   1.000  H
  H405     1.0000 0.98015  0.22371  0.83023  Biso   1.000  H
  H406     1.0000 0.23200  0.02702  0.81833  Biso   1.000  H
  H407     1.0000 0.27516  0.32826  0.96981  Biso   1.000  H
  H408     1.0000 0.46218  0.18653  0.71794  Biso   1.000  H
  H409     1.0000 0.29213  0.46366  0.18280  Biso   1.000  H
  H410     1.0000 0.19394  0.28415  0.48434  Biso   1.000  H
  H411     1.0000 0.50186  0.23268  0.32873  Biso   1.000  H
  H412     1.0000 0.85010  0.46581  0.27409  Biso   1.000  H
  H413     1.0000 0.68764  0.27711  0.97269  Biso   1.000  H
  H414     1.0000 0.99186  0.23638  0.18054  Biso   1.000  H
  H415     1.0000 0.19978  0.97734  0.22605  Biso   1.000  H
  H416     1.0000 0.33643  0.78328  0.46731  Biso   1.000  H
  H417     1.0000 0.99213  0.67539  0.27416  Biso   1.000  H
  H418     1.0000 0.75284  0.98161  0.34948  Biso   1.000  H
  H419     1.0000 0.84999  0.76898  0.04045  Biso   1.000  H
  H420     1.0000 0.49652  0.67461  0.24119  Biso   1.000  H
  H421     1.0000 0.74140  0.53327  0.83017  Biso   1.000  H
  H422     1.0000 0.78272  0.66220  0.53423  Biso   1.000  H
  H423     1.0000 0.53890  0.79039  0.69337  Biso   1.000  H
  H424     1.0000 0.18776  0.51224  0.74035  Biso   1.000  H
  H425     1.0000 0.34779  0.72705  0.96710  Biso   1.000  H
  H426     1.0000 0.05490  0.78387  0.82868  Biso   1.000  H
  H427     1.0000 0.77637  0.00946  0.85081  Biso   1.000  H
  H428     1.0000 0.74503  0.18258  0.55314  Biso   1.000  H
  H429     1.0000 0.05920  0.32276  0.73519  Biso   1.000  H
  H430     1.0000 0.32243  0.96725  0.71915  Biso   1.000  H
  H431     1.0000 0.19031  0.21292  0.95532  Biso   1.000  H
  H432     1.0000 0.47165  0.28303  0.82964  Biso   1.000  H
  H433     1.0000 0.27290  0.02551  0.66447  Biso   1.000  H
  H434     1.0000 0.73818  0.32971  0.03747  Biso   1.000  H
  H435     1.0000 0.04383  0.73515  0.33150  Biso   1.000  H
  H436     1.0000 0.82621  0.95586  0.79159  Biso   1.000  H
  H437     1.0000 0.25323  0.34074  0.53660  Biso   1.000  H
  H438     1.0000 0.54978  0.72965  0.18133  Biso   1.000  H
  H439     1.0000 0.24606  0.47221  0.67717  Biso   1.000  H
  H440     1.0000 0.79102  0.83242  0.00394  Biso   1.000  H
  H441     1.0000 0.56879  0.17726  0.28648  Biso   1.000  H
  H442     1.0000 0.68635  0.46989  0.78269  Biso   1.000  H
  H443     1.0000 0.28061  0.84460  0.51539  Biso   1.000  H
  H444     1.0000 0.05562  0.18436  0.22662  Biso   1.000  H
  H445     1.0000 0.70372  0.04134  0.29696  Biso   1.000  H
  H446     1.0000 0.29625  0.68668  0.03769  Biso   1.000  H
  H447     1.0000 0.99807  0.26921  0.67811  Biso   1.000  H
  H448     1.0000 0.26036  0.02871  0.16574  Biso   1.000  H
  H449     1.0000 0.83403  0.72404  0.48055  Biso   1.000  H
  H450     1.0000 0.53146  0.33457  0.77446  Biso   1.000  H
  H451     1.0000 0.79343  0.51519  0.33298  Biso   1.000  H
  H452     1.0000 0.23456  0.17264  0.02716  Biso   1.000  H
  H453     1.0000 0.46145  0.82765  0.73647  Biso   1.000  H
  H454     1.0000 0.34469  0.53472  0.22276  Biso   1.000  H
  H455     1.0000 0.70302  0.21027  0.47495  Biso   1.000  H
  H456     1.0000 0.97967  0.82051  0.78324  Biso   1.000  H
  H457     1.0000 0.68107  0.76606  0.49170  Biso   1.000  H
  H458     1.0000 0.47526  0.72566  0.83724  Biso   1.000  H
  H459     1.0000 0.84504  0.47210  0.73403  Biso   1.000  H
  H460     1.0000 0.19176  0.77848  0.02078  Biso   1.000  H
  H461     1.0000 0.98522  0.72387  0.67852  Biso   1.000  H
  H462     1.0000 0.29333  0.45956  0.83877  Biso   1.000  H
  H463     1.0000 0.84689  0.27144  0.46622  Biso   1.000  H
  H464     1.0000 0.05140  0.17377  0.79098  Biso   1.000  H
  H465     1.0000 0.67105  0.01368  0.75304  Biso   1.000  H
  H466     1.0000 0.33700  0.27716  0.01785  Biso   1.000  H
  H467     1.0000 0.54165  0.22393  0.68697  Biso   1.000  H
  H468     1.0000 0.16969  0.96637  0.77297  Biso   1.000  H
  H469     1.0000 0.34298  0.23440  0.54673  Biso   1.000  H
  H470     1.0000 0.56099  0.27189  0.17347  Biso   1.000  H
  H471     1.0000 0.19846  0.53959  0.28397  Biso   1.000  H
  H472     1.0000 0.78452  0.17221  0.98971  Biso   1.000  H
  H473     1.0000 0.05412  0.33494  0.27819  Biso   1.000  H
  H474     1.0000 0.75050  0.52272  0.17911  Biso   1.000  H
  H475     1.0000 0.23693  0.68791  0.52292  Biso   1.000  H
  H476     1.0000 0.05108  0.83381  0.22756  Biso   1.000  H
  H477     1.0000 0.30885  0.04703  0.31194  Biso   1.000  H
  H478     1.0000 0.70119  0.72171  0.97940  Biso   1.000  H
  H479     1.0000 0.48815  0.78193  0.33218  Biso   1.000  H
  H480     1.0000 0.85709  0.04643  0.24850  Biso   1.000  H
  N1       1.0000 0.69900  0.17502  0.51577  Biso   1.000  N
  N2       1.0000 0.52389  0.67766  0.18812  Biso   1.000  N
  N3       1.0000 0.19467  0.49412  0.68441  Biso   1.000  N
  N4       1.0000 0.18788  0.17109  0.99444  Biso   1.000  N
  N5       1.0000 0.01814  0.68041  0.32719  Biso   1.000  N
  N6       1.0000 0.69324  0.50461  0.82890  Biso   1.000  N
  N7       1.0000 0.83208  0.67226  0.50693  Biso   1.000  N
  N8       1.0000 0.02441  0.18883  0.17979  Biso   1.000  N
  N9       1.0000 0.32260  0.99887  0.67070  Biso   1.000  N
  N10      1.0000 0.34737  0.68251  0.00667  Biso   1.000  N
  N11      1.0000 0.53199  0.18203  0.33156  Biso   1.000  N
  N12      1.0000 0.82519  0.98290  0.84413  Biso   1.000  N
  N13      1.0000 0.33306  0.83673  0.49207  Biso   1.000  N
  N14      1.0000 0.50535  0.33063  0.82497  Biso   1.000  N
  N15      1.0000 0.84482  0.49152  0.32508  Biso   1.000  N
  N16      1.0000 0.84454  0.82634  0.02391  Biso   1.000  N
  N17      1.0000 0.02870  0.32207  0.68460  Biso   1.000  N
  N18      1.0000 0.34307  0.49829  0.17857  Biso   1.000  N
  N19      1.0000 0.19922  0.33413  0.51032  Biso   1.000  N
  N20      1.0000 0.01815  0.82647  0.82724  Biso   1.000  N
  N21      1.0000 0.70336  0.01031  0.34595  Biso   1.000  N
  N22      1.0000 0.68944  0.32730  0.00399  Biso   1.000  N
  N23      1.0000 0.49965  0.83232  0.69001  Biso   1.000  N
  N24      1.0000 0.20556  0.00346  0.17070  Biso   1.000  N
  N25      1.0000 0.83869  0.50683  0.68051  Biso   1.000  N
  N26      1.0000 0.68479  0.81834  0.51590  Biso   1.000  N
  N27      1.0000 0.51374  0.68287  0.83112  Biso   1.000  N
  N28      1.0000 0.34178  0.49178  0.83061  Biso   1.000  N
  N29      1.0000 0.19510  0.82410  0.98806  Biso   1.000  N
  N30      1.0000 0.02091  0.67609  0.68068  Biso   1.000  N
  N31      1.0000 0.67268  0.98619  0.70112  Biso   1.000  N
  N32      1.0000 0.84718  0.32073  0.49787  Biso   1.000  N
  N33      1.0000 0.01085  0.17520  0.83472  Biso   1.000  N
  N34      1.0000 0.17926  0.00109  0.82063  Biso   1.000  N
  N35      1.0000 0.33387  0.32754  0.99017  Biso   1.000  N
  N36      1.0000 0.50366  0.18341  0.67908  Biso   1.000  N
  N37      1.0000 0.19992  0.50799  0.33095  Biso   1.000  N
  N38      1.0000 0.34518  0.18932  0.50894  Biso   1.000  N
  N39      1.0000 0.53659  0.32493  0.17897  Biso   1.000  N
  N40      1.0000 0.69781  0.49384  0.18155  Biso   1.000  N
  N41      1.0000 0.83441  0.18000  0.01485  Biso   1.000  N
  N42      1.0000 0.02830  0.33043  0.33238  Biso   1.000  N
  N43      1.0000 0.35062  0.00698  0.32066  Biso   1.000  N
  N44      1.0000 0.18431  0.68692  0.49490  Biso   1.000  N
  N45      1.0000 0.01477  0.83451  0.18272  Biso   1.000  N
  N46      1.0000 0.85169  0.01552  0.19618  Biso   1.000  N
  N47      1.0000 0.69769  0.67672  0.01500  Biso   1.000  N
  N48      1.0000 0.52395  0.82583  0.33378  Biso   1.000  N
  O1       1.0000 0.36121  0.54665  0.00978  Biso   1.000  O
  O2       1.0000 0.02314  0.34475  0.54984  Biso   1.000  O
  O3       1.0000 0.56573  0.00878  0.35690  Biso   1.000  O
  O4       1.0000 0.85600  0.53899  0.50219  Biso   1.000  O
  O5       1.0000 0.50806  0.34554  0.96066  Biso   1.000  O
  O6       1.0000 0.07013  0.00712  0.15712  Biso   1.000  O
  O7       1.0000 0.16997  0.03581  0.00518  Biso   1.000  O
  O8       1.0000 0.50344  0.84981  0.55343  Biso   1.000  O
  O9       1.0000 0.97923  0.50959  0.34943  Biso   1.000  O
  O10      1.0000 0.67139  0.03982  0.52256  Biso   1.000  O
  O11      1.0000 0.02036  0.85004  0.96061  Biso   1.000  O
  O12      1.0000 0.47969  0.49989  0.15642  Biso   1.000  O
  O13      1.0000 0.67968  0.46132  0.99627  Biso   1.000  O
  O14      1.0000 0.00595  0.65410  0.46210  Biso   1.000  O
  O15      1.0000 0.45772  0.00758  0.65909  Biso   1.000  O
  O16      1.0000 0.17552  0.46577  0.51065  Biso   1.000  O
  O17      1.0000 0.51584  0.66112  0.05214  Biso   1.000  O
  O18      1.0000 0.96187  0.99334  0.85656  Biso   1.000  O
  O19      1.0000 0.86051  0.96451  0.03367  Biso   1.000  O
  O20      1.0000 0.51764  0.16470  0.46320  Biso   1.000  O
  O21      1.0000 0.05819  0.49539  0.66460  Biso   1.000  O
  O22      1.0000 0.35536  0.97123  0.49326  Biso   1.000  O
  O23      1.0000 0.01505  0.16709  0.04888  Biso   1.000  O
  O24      1.0000 0.55980  0.50920  0.84931  Biso   1.000  O
  O25      1.0000 0.98546  0.01579  0.16722  Biso   1.000  O
  O26      1.0000 0.17187  0.95685  0.98597  Biso   1.000  O
  O27      1.0000 0.00525  0.16139  0.96674  Biso   1.000  O
  O28      1.0000 0.48090  0.99449  0.35202  Biso   1.000  O
  O29      1.0000 0.66930  0.95579  0.51790  Biso   1.000  O
  O30      1.0000 0.52296  0.16421  0.54876  Biso   1.000  O
  O31      1.0000 0.56495  0.50409  0.16358  Biso   1.000  O
  O32      1.0000 0.35724  0.46366  0.00258  Biso   1.000  O
  O33      1.0000 0.52120  0.66267  0.96789  Biso   1.000  O
  O34      1.0000 0.06527  0.50823  0.34750  Biso   1.000  O
  O35      1.0000 0.86092  0.45732  0.50752  Biso   1.000  O
  O36      1.0000 0.01332  0.65507  0.54732  Biso   1.000  O
  O37      1.0000 0.04827  0.00941  0.85291  Biso   1.000  O
  O38      1.0000 0.85732  0.04491  0.01244  Biso   1.000  O
  O39      1.0000 0.02218  0.85393  0.04474  Biso   1.000  O
  O40      1.0000 0.54048  0.00333  0.67088  Biso   1.000  O
  O41      1.0000 0.35691  0.05558  0.50594  Biso   1.000  O
  O42      1.0000 0.51381  0.84689  0.46909  Biso   1.000  O
  O43      1.0000 0.47525  0.50391  0.84735  Biso   1.000  O
  O44      1.0000 0.68227  0.54296  0.01479  Biso   1.000  O
  O45      1.0000 0.51628  0.34738  0.04396  Biso   1.000  O
  O46      1.0000 0.97756  0.50411  0.66773  Biso   1.000  O
  O47      1.0000 0.17159  0.54989  0.50274  Biso   1.000  O
  O48      1.0000 0.02930  0.34551  0.46747  Biso   1.000  O
  O49      1.0000 0.02764  0.96844  0.16152  Biso   1.000  O
  O50      1.0000 0.16841  0.00197  0.95686  Biso   1.000  O
  O51      1.0000 0.97136  0.16332  0.01072  Biso   1.000  O
  O52      1.0000 0.53149  0.96250  0.35279  Biso   1.000  O
  O53      1.0000 0.66531  0.99227  0.56239  Biso   1.000  O
  O54      1.0000 0.47757  0.16531  0.50999  Biso   1.000  O
  O55      1.0000 0.52218  0.45860  0.15851  Biso   1.000  O
  O56      1.0000 0.35934  0.50801  0.96447  Biso   1.000  O
  O57      1.0000 0.56489  0.65647  0.00863  Biso   1.000  O
  O58      1.0000 0.02429  0.46416  0.34841  Biso   1.000  O
  O59      1.0000 0.85521  0.50034  0.54650  Biso   1.000  O
  O60      1.0000 0.04850  0.65873  0.50300  Biso   1.000  O
  O61      1.0000 0.99528  0.04104  0.85337  Biso   1.000  O
  O62      1.0000 0.85906  0.01207  0.06208  Biso   1.000  O
  O63      1.0000 0.06205  0.85065  0.99976  Biso   1.000  O
  O64      1.0000 0.49979  0.04968  0.66146  Biso   1.000  O
  O65      1.0000 0.36167  0.01856  0.45614  Biso   1.000  O
  O66      1.0000 0.55124  0.84368  0.51767  Biso   1.000  O
  O67      1.0000 0.52036  0.54840  0.84982  Biso   1.000  O
  O68      1.0000 0.67931  0.49371  0.04714  Biso   1.000  O
  O69      1.0000 0.46849  0.34872  0.00493  Biso   1.000  O
  O70      1.0000 0.02125  0.54224  0.66157  Biso   1.000  O
  O71      1.0000 0.17641  0.50309  0.46453  Biso   1.000  O
  O72      1.0000 0.97977  0.34419  0.50666  Biso   1.000  O
  O73      1.0000 0.01655  0.45709  0.66595  Biso   1.000  O
  O74      1.0000 0.67611  0.99658  0.47986  Biso   1.000  O
  O75      1.0000 0.48127  0.66165  0.00696  Biso   1.000  O
  O76      1.0000 0.51604  0.46382  0.84857  Biso   1.000  O
  O77      1.0000 0.17385  0.98381  0.03786  Biso   1.000  O
  O78      1.0000 0.96624  0.65651  0.51023  Biso   1.000  O
  O79      1.0000 0.49520  0.96554  0.66556  Biso   1.000  O
  O80      1.0000 0.85986  0.50004  0.45971  Biso   1.000  O
  O81      1.0000 0.05321  0.15648  0.00069  Biso   1.000  O
  O82      1.0000 0.01268  0.95938  0.84958  Biso   1.000  O
  O83      1.0000 0.35710  0.50580  0.04733  Biso   1.000  O
  O84      1.0000 0.56171  0.16216  0.50263  Biso   1.000  O
  O85      1.0000 0.02685  0.54492  0.34517  Biso   1.000  O
  O86      1.0000 0.35689  0.01188  0.54036  Biso   1.000  O
  O87      1.0000 0.55557  0.34782  0.00026  Biso   1.000  O
  O88      1.0000 0.52508  0.54500  0.16118  Biso   1.000  O
  O89      1.0000 0.85810  0.99461  0.97936  Biso   1.000  O
  O90      1.0000 0.06496  0.34783  0.51043  Biso   1.000  O
  O91      1.0000 0.51890  0.04507  0.35361  Biso   1.000  O
  O92      1.0000 0.17341  0.51242  0.55140  Biso   1.000  O
  O93      1.0000 0.98069  0.84900  0.00344  Biso   1.000  O
  O94      1.0000 0.02879  0.05156  0.16130  Biso   1.000  O
  O95      1.0000 0.67928  0.51130  0.96421  Biso   1.000  O
  O96      1.0000 0.46698  0.84856  0.50554  Biso   1.000  O
  O97      1.0000 0.48039  0.21386  0.51047  Biso   1.000  O
  O98      1.0000 0.52190  0.45628  0.20847  Biso   1.000  O
  O99      1.0000 0.22356  0.51349  0.46706  Biso   1.000  O
  O100     1.0000 0.97013  0.21288  0.00427  Biso   1.000  O
  O101     1.0000 0.02191  0.46335  0.29938  Biso   1.000  O
  O102     1.0000 0.72884  0.49349  0.04647  Biso   1.000  O
  O103     1.0000 0.04869  0.70701  0.49730  Biso   1.000  O
  O104     1.0000 0.02271  0.97104  0.21027  Biso   1.000  O
  O105     1.0000 0.31219  0.01799  0.45144  Biso   1.000  O
  O106     1.0000 0.56496  0.70503  0.01377  Biso   1.000  O
  O107     1.0000 0.53641  0.96232  0.30388  Biso   1.000  O
  O108     1.0000 0.81126  0.00925  0.06276  Biso   1.000  O
  O109     1.0000 0.54830  0.79516  0.51314  Biso   1.000  O
  O110     1.0000 0.52154  0.54997  0.79986  Biso   1.000  O
  O111     1.0000 0.80746  0.49777  0.54580  Biso   1.000  O
  O112     1.0000 0.06076  0.80101  0.00213  Biso   1.000  O
  O113     1.0000 0.02428  0.53963  0.70928  Biso   1.000  O
  O114     1.0000 0.31078  0.51378  0.96455  Biso   1.000  O
  O115     1.0000 0.98117  0.29409  0.50226  Biso   1.000  O
  O116     1.0000 0.99603  0.03936  0.80479  Biso   1.000  O
  O117     1.0000 0.71388  0.98922  0.56552  Biso   1.000  O
  O118     1.0000 0.47112  0.30072  0.00199  Biso   1.000  O
  O119     1.0000 0.50082  0.04951  0.71003  Biso   1.000  O
  O120     1.0000 0.21796  0.00618  0.95369  Biso   1.000  O
  O121     1.0000 0.05788  0.49402  0.71241  Biso   1.000  O
  O122     1.0000 0.71985  0.03611  0.52933  Biso   1.000  O
  O123     1.0000 0.51748  0.71024  0.05011  Biso   1.000  O
  O124     1.0000 0.56160  0.51367  0.80053  Biso   1.000  O
  O125     1.0000 0.21742  0.04254  0.00357  Biso   1.000  O
  O126     1.0000 0.00273  0.70150  0.46190  Biso   1.000  O
  O127     1.0000 0.45567  0.01063  0.70784  Biso   1.000  O
  O128     1.0000 0.80712  0.53382  0.49702  Biso   1.000  O
  O129     1.0000 0.01753  0.21603  0.04629  Biso   1.000  O
  O130     1.0000 0.95754  0.99664  0.80826  Biso   1.000  O
  O131     1.0000 0.31282  0.54684  0.01120  Biso   1.000  O
  O132     1.0000 0.52573  0.21250  0.46456  Biso   1.000  O
  O133     1.0000 0.98122  0.50642  0.30146  Biso   1.000  O
  O134     1.0000 0.30740  0.97231  0.48616  Biso   1.000  O
  O135     1.0000 0.50811  0.29728  0.96177  Biso   1.000  O
  O136     1.0000 0.47878  0.49634  0.20699  Biso   1.000  O
  O137     1.0000 0.81303  0.96084  0.02928  Biso   1.000  O
  O138     1.0000 0.02016  0.29589  0.55015  Biso   1.000  O
  O139     1.0000 0.56993  0.01433  0.30843  Biso   1.000  O
  O140     1.0000 0.22415  0.47095  0.50856  Biso   1.000  O
  O141     1.0000 0.02116  0.80188  0.96335  Biso   1.000  O
  O142     1.0000 0.07212  0.00790  0.20665  Biso   1.000  O
  O143     1.0000 0.72794  0.46169  0.99689  Biso   1.000  O
  O144     1.0000 0.50562  0.80084  0.55525  Biso   1.000  O
  O145     1.0000 0.56383  0.50326  0.21187  Biso   1.000  O
  O146     1.0000 0.22106  0.55593  0.50360  Biso   1.000  O
  O147     1.0000 0.52455  0.21388  0.54871  Biso   1.000  O
  O148     1.0000 0.06517  0.50418  0.29885  Biso   1.000  O
  O149     1.0000 0.73136  0.54341  0.00895  Biso   1.000  O
  O150     1.0000 0.01356  0.20908  0.96426  Biso   1.000  O
  O151     1.0000 0.99091  0.02171  0.21449  Biso   1.000  O
  O152     1.0000 0.31012  0.05643  0.49446  Biso   1.000  O
  O153     1.0000 0.01302  0.70461  0.54719  Biso   1.000  O
  O154     1.0000 0.48620  0.99693  0.30282  Biso   1.000  O
  O155     1.0000 0.80818  0.04316  0.01338  Biso   1.000  O
  O156     1.0000 0.53074  0.71070  0.96557  Biso   1.000  O
  O157     1.0000 0.47566  0.50369  0.79877  Biso   1.000  O
  O158     1.0000 0.81394  0.45017  0.51077  Biso   1.000  O
  O159     1.0000 0.50881  0.79884  0.47068  Biso   1.000  O
  O160     1.0000 0.97402  0.50503  0.71603  Biso   1.000  O
  O161     1.0000 0.30917  0.46286  0.99869  Biso   1.000  O
  O162     1.0000 0.01790  0.80329  0.04920  Biso   1.000  O
  O163     1.0000 0.04292  0.00700  0.80320  Biso   1.000  O
  O164     1.0000 0.71732  0.95456  0.51845  Biso   1.000  O
  O165     1.0000 0.02617  0.29793  0.46504  Biso   1.000  O
  O166     1.0000 0.53561  0.99981  0.71959  Biso   1.000  O
  O167     1.0000 0.22180  0.95977  0.98692  Biso   1.000  O
  O168     1.0000 0.51597  0.29822  0.04425  Biso   1.000  O
  O169     1.0000 0.03559  0.05509  0.20782  Biso   1.000  O
  O170     1.0000 0.22138  0.99107  0.03590  Biso   1.000  O
  O171     1.0000 0.05573  0.20328  0.00392  Biso   1.000  O
  O172     1.0000 0.52062  0.04688  0.30483  Biso   1.000  O
  O173     1.0000 0.72390  0.99835  0.48190  Biso   1.000  O
  O174     1.0000 0.56768  0.21116  0.50723  Biso   1.000  O
  O175     1.0000 0.52007  0.54244  0.21026  Biso   1.000  O
  O176     1.0000 0.31061  0.49493  0.04813  Biso   1.000  O
  O177     1.0000 0.48374  0.71018  0.00185  Biso   1.000  O
  O178     1.0000 0.02475  0.54525  0.29553  Biso   1.000  O
  O179     1.0000 0.81305  0.48865  0.45999  Biso   1.000  O
  O180     1.0000 0.96580  0.70655  0.50719  Biso   1.000  O
  O181     1.0000 0.00520  0.95903  0.80190  Biso   1.000  O
  O182     1.0000 0.80961  0.99476  0.98242  Biso   1.000  O
  O183     1.0000 0.97917  0.80190  0.00483  Biso   1.000  O
  O184     1.0000 0.49177  0.96830  0.71345  Biso   1.000  O
  O185     1.0000 0.30859  0.00952  0.53417  Biso   1.000  O
  O186     1.0000 0.46451  0.80048  0.51152  Biso   1.000  O
  O187     1.0000 0.51546  0.46660  0.80017  Biso   1.000  O
  O188     1.0000 0.72811  0.50634  0.96301  Biso   1.000  O
  O189     1.0000 0.55539  0.29827  0.99927  Biso   1.000  O
  O190     1.0000 0.01265  0.45644  0.71442  Biso   1.000  O
  O191     1.0000 0.22072  0.51651  0.54710  Biso   1.000  O
  O192     1.0000 0.06551  0.29970  0.51428  Biso   1.000  O
