data_image0
_cell_length_a       47.1207
_cell_length_b       46.5501
_cell_length_c       46.6275
_cell_angle_alpha    90
_cell_angle_beta     90
_cell_angle_gamma    90

_symmetry_space_group_name_H-M    "P 1"
_symmetry_int_tables_number       1

loop_
  _symmetry_equiv_pos_as_xyz
  'x, y, z'

loop_
  _atom_site_label
  _atom_site_occupancy
  _atom_site_fract_x
  _atom_site_fract_y
  _atom_site_fract_z
  _atom_site_thermal_displace_type
  _atom_site_B_iso_or_equiv
  _atom_site_type_symbol
  C1       1.0000 0.58943  0.97193  0.32713  Biso   1.000  C
  C2       1.0000 0.34827  0.53322  0.01223  Biso   1.000  C
  C3       1.0000 0.03898  0.29863  0.57211  Biso   1.000  C
  C4       1.0000 0.09074  0.96604  0.17561  Biso   1.000  C
  C5       1.0000 0.85194  0.53106  0.49623  Biso   1.000  C
  C6       1.0000 0.53540  0.30464  0.95114  Biso   1.000  C
  C7       1.0000 0.98106  0.46802  0.32269  Biso   1.000  C
  C8       1.0000 0.21734  0.02795  0.98308  Biso   1.000  C
  C9       1.0000 0.53439  0.79984  0.55828  Biso   1.000  C
  C10      1.0000 0.48437  0.47712  0.18629  Biso   1.000  C
  C11      1.0000 0.72128  0.02695  0.50718  Biso   1.000  C
  C12      1.0000 0.02860  0.80156  0.92825  Biso   1.000  C
  C13      1.0000 0.47987  0.97304  0.68101  Biso   1.000  C
  C14      1.0000 0.71776  0.43013  0.00378  Biso   1.000  C
  C15      1.0000 0.03605  0.65659  0.43254  Biso   1.000  C
  C16      1.0000 0.98147  0.99044  0.81974  Biso   1.000  C
  C17      1.0000 0.22269  0.43310  0.51578  Biso   1.000  C
  C18      1.0000 0.53258  0.65841  0.05786  Biso   1.000  C
  C19      1.0000 0.09172  0.49186  0.68732  Biso   1.000  C
  C20      1.0000 0.85737  0.93542  0.99443  Biso   1.000  C
  C21      1.0000 0.53707  0.15839  0.44702  Biso   1.000  C
  C22      1.0000 0.58760  0.48720  0.82276  Biso   1.000  C
  C23      1.0000 0.35053  0.92925  0.49299  Biso   1.000  C
  C24      1.0000 0.05088  0.16092  0.06865  Biso   1.000  C
  C25      1.0000 0.36075  0.03704  0.49167  Biso   1.000  C
  C26      1.0000 0.54939  0.29738  0.05683  Biso   1.000  C
  C27      1.0000 0.09108  0.46572  0.32279  Biso   1.000  C
  C28      1.0000 0.86214  0.04576  0.99807  Biso   1.000  C
  C29      1.0000 0.04487  0.29329  0.46368  Biso   1.000  C
  C30      1.0000 0.59355  0.46934  0.18272  Biso   1.000  C
  C31      1.0000 0.21615  0.53813  0.49370  Biso   1.000  C
  C32      1.0000 0.02478  0.79772  0.03794  Biso   1.000  C
  C33      1.0000 0.48162  0.97753  0.31352  Biso   1.000  C
  C34      1.0000 0.71496  0.54096  0.00230  Biso   1.000  C
  C35      1.0000 0.52938  0.79571  0.44783  Biso   1.000  C
  C36      1.0000 0.98088  0.97244  0.18273  Biso   1.000  C
  C37      1.0000 0.71953  0.91972  0.50121  Biso   1.000  C
  C38      1.0000 0.53122  0.66588  0.95202  Biso   1.000  C
  C39      1.0000 0.98360  0.49185  0.67819  Biso   1.000  C
  C40      1.0000 0.20907  0.92316  0.00719  Biso   1.000  C
  C41      1.0000 0.02281  0.66068  0.53930  Biso   1.000  C
  C42      1.0000 0.48094  0.48734  0.82938  Biso   1.000  C
  C43      1.0000 0.85429  0.42185  0.50154  Biso   1.000  C
  C44      1.0000 0.04125  0.17032  0.96102  Biso   1.000  C
  C45      1.0000 0.58728  0.99435  0.68361  Biso   1.000  C
  C46      1.0000 0.35648  0.42209  0.00618  Biso   1.000  C
  C47      1.0000 0.54266  0.15961  0.55634  Biso   1.000  C
  C48      1.0000 0.08851  0.98279  0.81711  Biso   1.000  C
  C49      1.0000 0.03728  0.04456  0.82924  Biso   1.000  C
  C50      1.0000 0.86093  0.98789  0.05388  Biso   1.000  C
  C51      1.0000 0.08253  0.79649  0.98522  Biso   1.000  C
  C52      1.0000 0.52585  0.03602  0.68389  Biso   1.000  C
  C53      1.0000 0.35717  0.98399  0.44078  Biso   1.000  C
  C54      1.0000 0.58655  0.79529  0.50396  Biso   1.000  C
  C55      1.0000 0.53727  0.54317  0.82504  Biso   1.000  C
  C56      1.0000 0.71822  0.48300  0.05320  Biso   1.000  C
  C57      1.0000 0.48743  0.30267  0.01036  Biso   1.000  C
  C58      1.0000 0.04196  0.54376  0.67420  Biso   1.000  C
  C59      1.0000 0.21514  0.47185  0.45112  Biso   1.000  C
  C60      1.0000 0.99074  0.29732  0.51542  Biso   1.000  C
  C61      1.0000 0.03545  0.91164  0.17471  Biso   1.000  C
  C62      1.0000 0.20828  0.96090  0.94307  Biso   1.000  C
  C63      1.0000 0.99199  0.17003  0.01899  Biso   1.000  C
  C64      1.0000 0.53271  0.92052  0.32112  Biso   1.000  C
  C65      1.0000 0.71925  0.96990  0.55992  Biso   1.000  C
  C66      1.0000 0.48858  0.15562  0.50367  Biso   1.000  C
  C67      1.0000 0.53274  0.41950  0.18773  Biso   1.000  C
  C68      1.0000 0.35590  0.48007  0.95704  Biso   1.000  C
  C69      1.0000 0.58308  0.66566  0.00609  Biso   1.000  C
  C70      1.0000 0.03665  0.41201  0.33056  Biso   1.000  C
  C71      1.0000 0.85469  0.47591  0.55531  Biso   1.000  C
  C72      1.0000 0.08506  0.66079  0.49164  Biso   1.000  C
  C73      1.0000 0.03810  0.52039  0.31006  Biso   1.000  C
  C74      1.0000 0.35324  0.98353  0.54916  Biso   1.000  C
  C75      1.0000 0.59534  0.30170  0.99599  Biso   1.000  C
  C76      1.0000 0.53996  0.52748  0.17958  Biso   1.000  C
  C77      1.0000 0.85726  0.98841  0.94530  Biso   1.000  C
  C78      1.0000 0.09820  0.29865  0.51825  Biso   1.000  C
  C79      1.0000 0.53720  0.02862  0.31928  Biso   1.000  C
  C80      1.0000 0.21816  0.49389  0.55826  Biso   1.000  C
  C81      1.0000 0.97551  0.80466  0.98174  Biso   1.000  C
  C82      1.0000 0.04170  0.02137  0.18066  Biso   1.000  C
  C83      1.0000 0.71702  0.48241  0.94601  Biso   1.000  C
  C84      1.0000 0.47604  0.80195  0.50848  Biso   1.000  C
  C85      1.0000 0.03367  0.43433  0.68702  Biso   1.000  C
  C86      1.0000 0.71824  0.97281  0.45184  Biso   1.000  C
  C87      1.0000 0.47469  0.66300  0.00843  Biso   1.000  C
  C88      1.0000 0.53029  0.43219  0.82556  Biso   1.000  C
  C89      1.0000 0.21870  0.98658  0.05006  Biso   1.000  C
  C90      1.0000 0.97655  0.66057  0.47910  Biso   1.000  C
  C91      1.0000 0.54197  0.92936  0.68329  Biso   1.000  C
  C92      1.0000 0.85506  0.48122  0.44471  Biso   1.000  C
  C93      1.0000 0.10006  0.16493  0.00500  Biso   1.000  C
  C94      1.0000 0.02945  0.93614  0.81373  Biso   1.000  C
  C95      1.0000 0.35388  0.47693  0.06584  Biso   1.000  C
  C96      1.0000 0.59868  0.16240  0.50059  Biso   1.000  C
  C97      1.0000 0.72208  0.06010  0.50536  Biso   1.000  C
  C98      1.0000 0.53698  0.65651  0.08981  Biso   1.000  C
  C99      1.0000 0.12406  0.49468  0.68737  Biso   1.000  C
  C100     1.0000 0.21909  0.05999  0.97647  Biso   1.000  C
  C101     1.0000 0.03457  0.65499  0.40005  Biso   1.000  C
  C102     1.0000 0.62036  0.48742  0.82253  Biso   1.000  C
  C103     1.0000 0.85070  0.56294  0.49116  Biso   1.000  C
  C104     1.0000 0.05200  0.15808  0.10093  Biso   1.000  C
  C105     1.0000 0.44604  0.97426  0.68119  Biso   1.000  C
  C106     1.0000 0.34652  0.56482  0.00806  Biso   1.000  C
  C107     1.0000 0.53418  0.15789  0.41532  Biso   1.000  C
  C108     1.0000 0.95017  0.99487  0.81850  Biso   1.000  C
  C109     1.0000 0.35095  0.89674  0.49268  Biso   1.000  C
  C110     1.0000 0.53161  0.30505  0.91938  Biso   1.000  C
  C111     1.0000 0.94940  0.46975  0.31935  Biso   1.000  C
  C112     1.0000 0.85519  0.90268  0.99137  Biso   1.000  C
  C113     1.0000 0.03449  0.29952  0.60472  Biso   1.000  C
  C114     1.0000 0.45237  0.47686  0.18832  Biso   1.000  C
  C115     1.0000 0.22322  0.40176  0.51698  Biso   1.000  C
  C116     1.0000 0.02484  0.80432  0.89655  Biso   1.000  C
  C117     1.0000 0.62246  0.97404  0.32608  Biso   1.000  C
  C118     1.0000 0.71972  0.39891  0.00230  Biso   1.000  C
  C119     1.0000 0.53489  0.79820  0.58907  Biso   1.000  C
  C120     1.0000 0.12218  0.96574  0.17578  Biso   1.000  C
  C121     1.0000 0.86119  0.98882  0.08545  Biso   1.000  C
  C122     1.0000 0.11384  0.79615  0.98476  Biso   1.000  C
  C123     1.0000 0.03458  0.07695  0.83134  Biso   1.000  C
  C124     1.0000 0.35591  0.98255  0.40801  Biso   1.000  C
  C125     1.0000 0.61856  0.79426  0.50799  Biso   1.000  C
  C126     1.0000 0.52086  0.06789  0.68491  Biso   1.000  C
  C127     1.0000 0.71974  0.47794  0.08434  Biso   1.000  C
  C128     1.0000 0.45553  0.30268  0.00820  Biso   1.000  C
  C129     1.0000 0.54122  0.57469  0.82441  Biso   1.000  C
  C130     1.0000 0.21425  0.46373  0.42025  Biso   1.000  C
  C131     1.0000 0.95789  0.29795  0.51627  Biso   1.000  C
  C132     1.0000 0.04473  0.57566  0.67226  Biso   1.000  C
  C133     1.0000 0.20685  0.95234  0.91273  Biso   1.000  C
  C134     1.0000 0.95925  0.16973  0.01710  Biso   1.000  C
  C135     1.0000 0.03464  0.87956  0.17418  Biso   1.000  C
  C136     1.0000 0.71495  0.96966  0.59171  Biso   1.000  C
  C137     1.0000 0.45743  0.15712  0.49834  Biso   1.000  C
  C138     1.0000 0.53732  0.88858  0.32214  Biso   1.000  C
  C139     1.0000 0.35484  0.48107  0.92449  Biso   1.000  C
  C140     1.0000 0.61527  0.66649  0.00489  Biso   1.000  C
  C141     1.0000 0.53368  0.38758  0.18750  Biso   1.000  C
  C142     1.0000 0.85521  0.47415  0.58769  Biso   1.000  C
  C143     1.0000 0.11656  0.66082  0.49145  Biso   1.000  C
  C144     1.0000 0.03538  0.37984  0.33388  Biso   1.000  C
  C145     1.0000 0.35458  0.47486  0.09764  Biso   1.000  C
  C146     1.0000 0.12947  0.30100  0.51785  Biso   1.000  C
  C147     1.0000 0.53804  0.06044  0.31823  Biso   1.000  C
  C148     1.0000 0.85369  0.47991  0.41303  Biso   1.000  C
  C149     1.0000 0.62688  0.30291  0.98921  Biso   1.000  C
  C150     1.0000 0.04831  0.05264  0.18430  Biso   1.000  C
  C151     1.0000 0.21945  0.98760  0.08195  Biso   1.000  C
  C152     1.0000 0.44413  0.80274  0.50411  Biso   1.000  C
  C153     1.0000 0.03867  0.55283  0.31013  Biso   1.000  C
  C154     1.0000 0.71676  0.97282  0.42008  Biso   1.000  C
  C155     1.0000 0.94440  0.80423  0.98541  Biso   1.000  C
  C156     1.0000 0.53815  0.55882  0.18217  Biso   1.000  C
  C157     1.0000 0.71752  0.47965  0.91512  Biso   1.000  C
  C158     1.0000 0.94475  0.66070  0.48243  Biso   1.000  C
  C159     1.0000 0.54387  0.89711  0.68307  Biso   1.000  C
  C160     1.0000 0.21957  0.49609  0.59163  Biso   1.000  C
  C161     1.0000 0.44262  0.66086  0.01032  Biso   1.000  C
  C162     1.0000 0.02844  0.90398  0.80944  Biso   1.000  C
  C163     1.0000 0.85617  0.98955  0.91337  Biso   1.000  C
  C164     1.0000 0.63059  0.16123  0.50633  Biso   1.000  C
  C165     1.0000 0.03440  0.40288  0.69095  Biso   1.000  C
  C166     1.0000 0.35179  0.98089  0.58129  Biso   1.000  C
  C167     1.0000 0.13201  0.16187  0.99819  Biso   1.000  C
  C168     1.0000 0.52695  0.39968  0.82651  Biso   1.000  C
  C169     1.0000 0.02675  0.79316  0.07148  Biso   1.000  C
  C170     1.0000 0.11940  0.97467  0.81565  Biso   1.000  C
  C171     1.0000 0.86069  0.07666  0.00535  Biso   1.000  C
  C172     1.0000 0.53410  0.79523  0.41616  Biso   1.000  C
  C173     1.0000 0.61902  0.99591  0.68400  Biso   1.000  C
  C174     1.0000 0.35968  0.06930  0.48876  Biso   1.000  C
  C175     1.0000 0.55550  0.29773  0.08909  Biso   1.000  C
  C176     1.0000 0.44889  0.48784  0.82867  Biso   1.000  C
  C177     1.0000 0.71346  0.57366  0.00377  Biso   1.000  C
  C178     1.0000 0.04696  0.29153  0.43171  Biso   1.000  C
  C179     1.0000 0.95130  0.49822  0.67881  Biso   1.000  C
  C180     1.0000 0.21336  0.56899  0.48811  Biso   1.000  C
  C181     1.0000 0.04062  0.17169  0.92971  Biso   1.000  C
  C182     1.0000 0.94882  0.97543  0.18409  Biso   1.000  C
  C183     1.0000 0.20754  0.89106  0.00806  Biso   1.000  C
  C184     1.0000 0.53522  0.16221  0.58772  Biso   1.000  C
  C185     1.0000 0.44994  0.98060  0.31244  Biso   1.000  C
  C186     1.0000 0.71760  0.88649  0.49945  Biso   1.000  C
  C187     1.0000 0.53399  0.66680  0.92039  Biso   1.000  C
  C188     1.0000 0.62649  0.46840  0.18152  Biso   1.000  C
  C189     1.0000 0.35720  0.39054  0.00204  Biso   1.000  C
  C190     1.0000 0.02134  0.66162  0.57156  Biso   1.000  C
  C191     1.0000 0.12322  0.46016  0.32327  Biso   1.000  C
  C192     1.0000 0.85649  0.39073  0.50061  Biso   1.000  C
  C193     1.0000 0.88348  0.99092  0.89700  Biso   1.000  C
  C194     1.0000 0.93035  0.83266  0.98594  Biso   1.000  C
  C195     1.0000 0.02554  0.88601  0.83476  Biso   1.000  C
  C196     1.0000 0.37951  0.97685  0.59801  Biso   1.000  C
  C197     1.0000 0.42814  0.82844  0.49830  Biso   1.000  C
  C198     1.0000 0.54077  0.88092  0.65549  Biso   1.000  C
  C199     1.0000 0.68998  0.47912  0.90020  Biso   1.000  C
  C200     1.0000 0.64202  0.33000  0.99139  Biso   1.000  C
  C201     1.0000 0.52954  0.38336  0.85350  Biso   1.000  C
  C202     1.0000 0.19277  0.49658  0.60769  Biso   1.000  C
  C203     1.0000 0.14513  0.32855  0.51940  Biso   1.000  C
  C204     1.0000 0.03085  0.38349  0.66527  Biso   1.000  C
  C205     1.0000 0.19303  0.98177  0.09707  Biso   1.000  C
  C206     1.0000 0.14452  0.13292  0.99260  Biso   1.000  C
  C207     1.0000 0.05411  0.07188  0.15923  Biso   1.000  C
  C208     1.0000 0.69002  0.97424  0.40482  Biso   1.000  C
  C209     1.0000 0.64612  0.13288  0.50694  Biso   1.000  C
  C210     1.0000 0.53638  0.07757  0.34504  Biso   1.000  C
  C211     1.0000 0.38264  0.47413  0.11227  Biso   1.000  C
  C212     1.0000 0.42725  0.63338  0.00787  Biso   1.000  C
  C213     1.0000 0.53139  0.57532  0.15645  Biso   1.000  C
  C214     1.0000 0.88191  0.47896  0.39673  Biso   1.000  C
  C215     1.0000 0.92984  0.63385  0.48400  Biso   1.000  C
  C216     1.0000 0.03653  0.56982  0.33652  Biso   1.000  C
  C217     1.0000 0.13397  0.96939  0.84293  Biso   1.000  C
  C218     1.0000 0.89023  0.09130  0.00891  Biso   1.000  C
  C219     1.0000 0.02618  0.81795  0.09074  Biso   1.000  C
  C220     1.0000 0.63426  0.98975  0.65784  Biso   1.000  C
  C221     1.0000 0.38657  0.08489  0.48942  Biso   1.000  C
  C222     1.0000 0.53506  0.82166  0.40030  Biso   1.000  C
  C223     1.0000 0.43325  0.48456  0.85483  Biso   1.000  C
  C224     1.0000 0.68630  0.58993  0.00315  Biso   1.000  C
  C225     1.0000 0.54991  0.32449  0.10521  Biso   1.000  C
  C226     1.0000 0.93489  0.49484  0.65259  Biso   1.000  C
  C227     1.0000 0.18578  0.58414  0.49068  Biso   1.000  C
  C228     1.0000 0.03944  0.31633  0.41505  Biso   1.000  C
  C229     1.0000 0.93270  0.97499  0.15740  Biso   1.000  C
  C230     1.0000 0.18132  0.87528  0.00013  Biso   1.000  C
  C231     1.0000 0.04467  0.14487  0.91335  Biso   1.000  C
  C232     1.0000 0.43456  0.98410  0.33933  Biso   1.000  C
  C233     1.0000 0.69039  0.87055  0.50146  Biso   1.000  C
  C234     1.0000 0.53010  0.13504  0.60452  Biso   1.000  C
  C235     1.0000 0.64227  0.46985  0.15311  Biso   1.000  C
  C236     1.0000 0.38452  0.37627  0.00094  Biso   1.000  C
  C237     1.0000 0.53938  0.64061  0.90448  Biso   1.000  C
  C238     1.0000 0.13918  0.46578  0.34998  Biso   1.000  C
  C239     1.0000 0.88479  0.37645  0.50395  Biso   1.000  C
  C240     1.0000 0.02782  0.63680  0.58867  Biso   1.000  C
  C241     1.0000 0.63630  0.48439  0.84945  Biso   1.000  C
  C242     1.0000 0.87785  0.57941  0.48908  Biso   1.000  C
  C243     1.0000 0.53746  0.82592  0.60408  Biso   1.000  C
  C244     1.0000 0.14029  0.49306  0.65966  Biso   1.000  C
  C245     1.0000 0.37378  0.58152  0.00734  Biso   1.000  C
  C246     1.0000 0.02203  0.83289  0.88275  Biso   1.000  C
  C247     1.0000 0.93333  0.99518  0.84439  Biso   1.000  C
  C248     1.0000 0.69675  0.07826  0.50911  Biso   1.000  C
  C249     1.0000 0.03212  0.32779  0.61762  Biso   1.000  C
  C250     1.0000 0.43130  0.97344  0.65323  Biso   1.000  C
  C251     1.0000 0.19334  0.07716  0.97853  Biso   1.000  C
  C252     1.0000 0.53007  0.33187  0.90291  Biso   1.000  C
  C253     1.0000 0.43568  0.47869  0.16106  Biso   1.000  C
  C254     1.0000 0.19611  0.38447  0.51971  Biso   1.000  C
  C255     1.0000 0.53319  0.13044  0.40054  Biso   1.000  C
  C256     1.0000 0.93411  0.47728  0.34625  Biso   1.000  C
  C257     1.0000 0.69313  0.38248  0.99771  Biso   1.000  C
  C258     1.0000 0.05235  0.12916  0.11290  Biso   1.000  C
  C259     1.0000 0.13830  0.96868  0.14806  Biso   1.000  C
  C260     1.0000 0.37770  0.87975  0.49321  Biso   1.000  C
  C261     1.0000 0.03104  0.62690  0.38431  Biso   1.000  C
  C262     1.0000 0.63760  0.97227  0.35300  Biso   1.000  C
  C263     1.0000 0.88234  0.88683  0.99050  Biso   1.000  C
  C264     1.0000 0.53578  0.62963  0.10527  Biso   1.000  C
  C265     1.0000 0.04430  0.09275  0.85839  Biso   1.000  C
  C266     1.0000 0.88514  0.98196  0.10377  Biso   1.000  C
  C267     1.0000 0.12981  0.82248  0.99035  Biso   1.000  C
  C268     1.0000 0.52034  0.08271  0.65731  Biso   1.000  C
  C269     1.0000 0.38445  0.98342  0.39243  Biso   1.000  C
  C270     1.0000 0.63561  0.82087  0.50264  Biso   1.000  C
  C271     1.0000 0.54076  0.58949  0.85223  Biso   1.000  C
  C272     1.0000 0.69348  0.47687  0.10103  Biso   1.000  C
  C273     1.0000 0.44004  0.33036  0.00290  Biso   1.000  C
  C274     1.0000 0.04004  0.58803  0.64435  Biso   1.000  C
  C275     1.0000 0.18821  0.46438  0.40240  Biso   1.000  C
  C276     1.0000 0.94157  0.32453  0.51233  Biso   1.000  C
  C277     1.0000 0.03276  0.86498  0.14561  Biso   1.000  C
  C278     1.0000 0.18015  0.95417  0.89490  Biso   1.000  C
  C279     1.0000 0.94254  0.14236  0.01787  Biso   1.000  C
  C280     1.0000 0.53723  0.87196  0.34921  Biso   1.000  C
  C281     1.0000 0.68724  0.97463  0.60547  Biso   1.000  C
  C282     1.0000 0.44135  0.13048  0.49228  Biso   1.000  C
  C283     1.0000 0.53517  0.37182  0.15945  Biso   1.000  C
  C284     1.0000 0.38083  0.48065  0.90701  Biso   1.000  C
  C285     1.0000 0.63214  0.63955  0.00452  Biso   1.000  C
  C286     1.0000 0.03837  0.36443  0.36080  Biso   1.000  C
  C287     1.0000 0.88158  0.48251  0.60350  Biso   1.000  C
  C288     1.0000 0.13349  0.63402  0.49136  Biso   1.000  C
  C289     1.0000 0.37754  0.84902  0.49129  Biso   1.000  C
  C290     1.0000 0.52977  0.32981  0.87088  Biso   1.000  C
  C291     1.0000 0.90372  0.47818  0.34448  Biso   1.000  C
  C292     1.0000 0.87854  0.85556  0.99280  Biso   1.000  C
  C293     1.0000 0.03059  0.32993  0.64971  Biso   1.000  C
  C294     1.0000 0.40524  0.47153  0.16313  Biso   1.000  C
  C295     1.0000 0.19677  0.35332  0.51994  Biso   1.000  C
  C296     1.0000 0.02416  0.83324  0.85033  Biso   1.000  C
  C297     1.0000 0.66860  0.97362  0.35296  Biso   1.000  C
  C298     1.0000 0.69410  0.35076  0.99658  Biso   1.000  C
  C299     1.0000 0.53882  0.82714  0.63568  Biso   1.000  C
  C300     1.0000 0.16936  0.97295  0.14938  Biso   1.000  C
  C301     1.0000 0.69771  0.11020  0.50727  Biso   1.000  C
  C302     1.0000 0.53853  0.63006  0.13634  Biso   1.000  C
  C303     1.0000 0.17214  0.49512  0.66094  Biso   1.000  C
  C304     1.0000 0.19568  0.10843  0.98062  Biso   1.000  C
  C305     1.0000 0.03648  0.62549  0.35359  Biso   1.000  C
  C306     1.0000 0.66808  0.48420  0.84912  Biso   1.000  C
  C307     1.0000 0.87672  0.61186  0.48952  Biso   1.000  C
  C308     1.0000 0.05208  0.12611  0.14429  Biso   1.000  C
  C309     1.0000 0.39946  0.97240  0.65146  Biso   1.000  C
  C310     1.0000 0.37312  0.61157  0.00443  Biso   1.000  C
  C311     1.0000 0.53686  0.12864  0.36920  Biso   1.000  C
  C312     1.0000 0.90225  0.99515  0.84328  Biso   1.000  C
  C313     1.0000 0.18965  0.45797  0.37244  Biso   1.000  C
  C314     1.0000 0.40927  0.13388  0.49245  Biso   1.000  C
  C315     1.0000 0.54216  0.34116  0.15927  Biso   1.000  C
  C316     1.0000 0.69545  0.47240  0.13118  Biso   1.000  C
  C317     1.0000 0.91171  0.14271  0.01598  Biso   1.000  C
  C318     1.0000 0.03664  0.33348  0.36263  Biso   1.000  C
  C319     1.0000 0.38223  0.98477  0.36030  Biso   1.000  C
  C320     1.0000 0.16513  0.63697  0.48869  Biso   1.000  C
  C321     1.0000 0.03169  0.83369  0.14470  Biso   1.000  C
  C322     1.0000 0.88176  0.98302  0.13637  Biso   1.000  C
  C323     1.0000 0.66328  0.64071  0.00602  Biso   1.000  C
  C324     1.0000 0.54254  0.84170  0.34868  Biso   1.000  C
  C325     1.0000 0.88094  0.48877  0.63337  Biso   1.000  C
  C326     1.0000 0.66716  0.81904  0.50363  Biso   1.000  C
  C327     1.0000 0.54332  0.62161  0.85259  Biso   1.000  C
  C328     1.0000 0.38032  0.48115  0.87558  Biso   1.000  C
  C329     1.0000 0.16082  0.82248  0.99204  Biso   1.000  C
  C330     1.0000 0.03614  0.61929  0.64204  Biso   1.000  C
  C331     1.0000 0.68591  0.97844  0.63684  Biso   1.000  C
  C332     1.0000 0.90926  0.32368  0.51035  Biso   1.000  C
  C333     1.0000 0.04057  0.12364  0.85922  Biso   1.000  C
  C334     1.0000 0.18552  0.95816  0.86373  Biso   1.000  C
  C335     1.0000 0.40878  0.32583  0.00167  Biso   1.000  C
  C336     1.0000 0.52197  0.11469  0.65747  Biso   1.000  C
  C337     1.0000 0.69003  0.48054  0.86963  Biso   1.000  C
  C338     1.0000 0.89811  0.63399  0.48631  Biso   1.000  C
  C339     1.0000 0.53905  0.84928  0.65717  Biso   1.000  C
  C340     1.0000 0.19441  0.49515  0.63889  Biso   1.000  C
  C341     1.0000 0.39593  0.63283  0.00498  Biso   1.000  C
  C342     1.0000 0.02549  0.85577  0.82976  Biso   1.000  C
  C343     1.0000 0.88086  0.99512  0.86543  Biso   1.000  C
  C344     1.0000 0.67761  0.13325  0.50541  Biso   1.000  C
  C345     1.0000 0.03186  0.35241  0.67007  Biso   1.000  C
  C346     1.0000 0.37922  0.97379  0.62954  Biso   1.000  C
  C347     1.0000 0.17593  0.13172  0.98608  Biso   1.000  C
  C348     1.0000 0.52792  0.35126  0.85034  Biso   1.000  C
  C349     1.0000 0.38258  0.46910  0.14259  Biso   1.000  C
  C350     1.0000 0.17627  0.33071  0.51840  Biso   1.000  C
  C351     1.0000 0.53911  0.10804  0.34537  Biso   1.000  C
  C352     1.0000 0.88053  0.47982  0.36578  Biso   1.000  C
  C353     1.0000 0.67403  0.32871  0.99344  Biso   1.000  C
  C354     1.0000 0.05207  0.10197  0.16209  Biso   1.000  C
  C355     1.0000 0.19185  0.97756  0.12839  Biso   1.000  C
  C356     1.0000 0.39896  0.82837  0.49259  Biso   1.000  C
  C357     1.0000 0.03749  0.60283  0.33373  Biso   1.000  C
  C358     1.0000 0.69032  0.97515  0.37316  Biso   1.000  C
  C359     1.0000 0.89919  0.83204  0.98925  Biso   1.000  C
  C360     1.0000 0.53772  0.60751  0.15760  Biso   1.000  C
  C361     1.0000 0.04097  0.14469  0.88269  Biso   1.000  C
  C362     1.0000 0.90228  0.98114  0.15833  Biso   1.000  C
  C363     1.0000 0.18188  0.84379  0.99627  Biso   1.000  C
  C364     1.0000 0.52541  0.13589  0.63583  Biso   1.000  C
  C365     1.0000 0.40345  0.98450  0.33903  Biso   1.000  C
  C366     1.0000 0.68971  0.83966  0.50389  Biso   1.000  C
  C367     1.0000 0.54292  0.64310  0.87364  Biso   1.000  C
  C368     1.0000 0.67461  0.47020  0.15363  Biso   1.000  C
  C369     1.0000 0.38660  0.34597  0.99895  Biso   1.000  C
  C370     1.0000 0.03134  0.63967  0.62027  Biso   1.000  C
  C371     1.0000 0.16906  0.45876  0.35048  Biso   1.000  C
  C372     1.0000 0.88634  0.34433  0.50600  Biso   1.000  C
  C373     1.0000 0.02930  0.81344  0.12138  Biso   1.000  C
  C374     1.0000 0.16554  0.96468  0.84185  Biso   1.000  C
  C375     1.0000 0.89024  0.12241  0.01092  Biso   1.000  C
  C376     1.0000 0.54196  0.81904  0.36971  Biso   1.000  C
  C377     1.0000 0.66544  0.98603  0.65833  Biso   1.000  C
  C378     1.0000 0.38573  0.11552  0.49035  Biso   1.000  C
  C379     1.0000 0.54874  0.32188  0.13701  Biso   1.000  C
  C380     1.0000 0.40192  0.48145  0.85436  Biso   1.000  C
  C381     1.0000 0.68494  0.62006  0.00529  Biso   1.000  C
  C382     1.0000 0.03826  0.31284  0.38378  Biso   1.000  C
  C383     1.0000 0.90279  0.49339  0.65413  Biso   1.000  C
  C384     1.0000 0.18595  0.61613  0.48678  Biso   1.000  C
  C385     1.0000 0.22348  0.12282  0.97701  Biso   1.000  C
  C386     1.0000 0.04986  0.15191  0.16357  Biso   1.000  C
  C387     1.0000 0.18437  0.97340  0.17687  Biso   1.000  C
  C388     1.0000 0.72553  0.12345  0.50329  Biso   1.000  C
  C389     1.0000 0.54129  0.15551  0.35344  Biso   1.000  C
  C390     1.0000 0.68395  0.97345  0.32545  Biso   1.000  C
  C391     1.0000 0.34636  0.62677  0.00200  Biso   1.000  C
  C392     1.0000 0.54222  0.65578  0.15290  Biso   1.000  C
  C393     1.0000 0.39098  0.46467  0.18962  Biso   1.000  C
  C394     1.0000 0.85054  0.62666  0.49110  Biso   1.000  C
  C395     1.0000 0.04170  0.65231  0.33744  Biso   1.000  C
  C396     1.0000 0.88872  0.47764  0.31803  Biso   1.000  C
  C397     1.0000 0.85005  0.84024  0.99337  Biso   1.000  C
  C398     1.0000 0.02632  0.80759  0.83218  Biso   1.000  C
  C399     1.0000 0.88708  0.99624  0.81605  Biso   1.000  C
  C400     1.0000 0.35098  0.83202  0.49060  Biso   1.000  C
  C401     1.0000 0.53815  0.80083  0.65125  Biso   1.000  C
  C402     1.0000 0.38187  0.97169  0.67743  Biso   1.000  C
  C403     1.0000 0.72046  0.33566  0.00188  Biso   1.000  C
  C404     1.0000 0.52982  0.30250  0.85564  Biso   1.000  C
  C405     1.0000 0.68380  0.48604  0.82259  Biso   1.000  C
  C406     1.0000 0.22415  0.33820  0.51710  Biso   1.000  C
  C407     1.0000 0.03264  0.30445  0.66756  Biso   1.000  C
  C408     1.0000 0.18881  0.49635  0.68738  Biso   1.000  C
  C409     1.0000 0.18246  0.96438  0.81655  Biso   1.000  C
  C410     1.0000 0.86319  0.13927  0.01031  Biso   1.000  C
  C411     1.0000 0.02969  0.78600  0.13567  Biso   1.000  C
  C412     1.0000 0.67994  0.98803  0.68537  Biso   1.000  C
  C413     1.0000 0.36026  0.13245  0.49151  Biso   1.000  C
  C414     1.0000 0.54798  0.79191  0.35419  Biso   1.000  C
  C415     1.0000 0.38525  0.48171  0.82811  Biso   1.000  C
  C416     1.0000 0.71188  0.63639  0.00859  Biso   1.000  C
  C417     1.0000 0.55251  0.29526  0.15093  Biso   1.000  C
  C418     1.0000 0.88805  0.49705  0.68229  Biso   1.000  C
  C419     1.0000 0.21174  0.63216  0.48230  Biso   1.000  C
  C420     1.0000 0.03863  0.28506  0.36885  Biso   1.000  C
  C421     1.0000 0.88612  0.98452  0.18441  Biso   1.000  C
  C422     1.0000 0.20773  0.82837  0.99620  Biso   1.000  C
  C423     1.0000 0.03492  0.17164  0.86773  Biso   1.000  C
  C424     1.0000 0.38789  0.98430  0.31247  Biso   1.000  C
  C425     1.0000 0.71622  0.82317  0.50477  Biso   1.000  C
  C426     1.0000 0.52477  0.16382  0.65069  Biso   1.000  C
  C427     1.0000 0.69079  0.47150  0.18018  Biso   1.000  C
  C428     1.0000 0.36010  0.32966  0.99494  Biso   1.000  C
  C429     1.0000 0.54174  0.66885  0.85719  Biso   1.000  C
  C430     1.0000 0.18601  0.44892  0.32418  Biso   1.000  C
  C431     1.0000 0.86021  0.32657  0.50459  Biso   1.000  C
  C432     1.0000 0.02919  0.66831  0.63538  Biso   1.000  C
  C433     1.0000 0.03263  0.14072  0.83542  Biso   1.000  C
  C434     1.0000 0.85428  0.98715  0.15115  Biso   1.000  C
  C435     1.0000 0.17649  0.79528  0.98883  Biso   1.000  C
  C436     1.0000 0.52062  0.13137  0.68460  Biso   1.000  C
  C437     1.0000 0.35532  0.98377  0.34610  Biso   1.000  C
  C438     1.0000 0.68053  0.79133  0.50783  Biso   1.000  C
  C439     1.0000 0.54500  0.63644  0.82429  Biso   1.000  C
  C440     1.0000 0.72272  0.47099  0.14537  Biso   1.000  C
  C441     1.0000 0.39386  0.29857  0.00201  Biso   1.000  C
  C442     1.0000 0.03564  0.63676  0.66777  Biso   1.000  C
  C443     1.0000 0.21590  0.44963  0.35855  Biso   1.000  C
  C444     1.0000 0.89393  0.29461  0.50982  Biso   1.000  C
  C445     1.0000 0.03082  0.81649  0.17076  Biso   1.000  C
  C446     1.0000 0.21226  0.95639  0.84830  Biso   1.000  C
  C447     1.0000 0.89652  0.17138  0.01414  Biso   1.000  C
  C448     1.0000 0.54954  0.82507  0.32190  Biso   1.000  C
  C449     1.0000 0.71307  0.97777  0.65261  Biso   1.000  C
  C450     1.0000 0.39490  0.16154  0.49490  Biso   1.000  C
  C451     1.0000 0.54302  0.32430  0.18559  Biso   1.000  C
  C452     1.0000 0.35324  0.48238  0.86112  Biso   1.000  C
  C453     1.0000 0.67897  0.66814  0.00549  Biso   1.000  C
  C454     1.0000 0.03479  0.31612  0.33603  Biso   1.000  C
  C455     1.0000 0.85461  0.48745  0.65040  Biso   1.000  C
  C456     1.0000 0.18064  0.66421  0.48387  Biso   1.000  C
  C457     1.0000 0.04173  0.61581  0.30632  Biso   1.000  C
  C458     1.0000 0.35150  0.97162  0.64341  Biso   1.000  C
  C459     1.0000 0.68926  0.30088  0.99653  Biso   1.000  C
  C460     1.0000 0.54441  0.62270  0.18446  Biso   1.000  C
  C461     1.0000 0.85358  0.99713  0.85032  Biso   1.000  C
  C462     1.0000 0.19273  0.30480  0.51498  Biso   1.000  C
  C463     1.0000 0.54225  0.12349  0.31865  Biso   1.000  C
  C464     1.0000 0.22201  0.49695  0.65421  Biso   1.000  C
  C465     1.0000 0.88234  0.80564  0.99243  Biso   1.000  C
  C466     1.0000 0.05005  0.11491  0.19104  Biso   1.000  C
  C467     1.0000 0.71724  0.48214  0.85308  Biso   1.000  C
  C468     1.0000 0.38317  0.80085  0.49475  Biso   1.000  C
  C469     1.0000 0.03400  0.33931  0.69716  Biso   1.000  C
  C470     1.0000 0.71683  0.97401  0.35714  Biso   1.000  C
  C471     1.0000 0.37967  0.66005  0.00226  Biso   1.000  C
  C472     1.0000 0.52330  0.33487  0.82329  Biso   1.000  C
  C473     1.0000 0.21887  0.98016  0.14415  Biso   1.000  C
  C474     1.0000 0.88317  0.66017  0.48506  Biso   1.000  C
  C475     1.0000 0.54109  0.83390  0.68432  Biso   1.000  C
  C476     1.0000 0.85369  0.48129  0.34947  Biso   1.000  C
  C477     1.0000 0.19359  0.15790  0.98571  Biso   1.000  C
  C478     1.0000 0.02803  0.84229  0.80189  Biso   1.000  C
  C479     1.0000 0.35731  0.46334  0.15934  Biso   1.000  C
  C480     1.0000 0.69492  0.15949  0.50443  Biso   1.000  C
  C481     1.0000 0.39836  0.77494  0.50207  Biso   1.000  C
  C482     1.0000 0.52009  0.35211  0.79686  Biso   1.000  C
  C483     1.0000 0.82558  0.48359  0.36431  Biso   1.000  C
  C484     1.0000 0.89693  0.77851  0.99015  Biso   1.000  C
  C485     1.0000 0.03460  0.35898  0.72276  Biso   1.000  C
  C486     1.0000 0.32868  0.46518  0.14389  Biso   1.000  C
  C487     1.0000 0.17936  0.27565  0.51387  Biso   1.000  C
  C488     1.0000 0.03133  0.86121  0.77734  Biso   1.000  C
  C489     1.0000 0.74357  0.97120  0.37069  Biso   1.000  C
  C490     1.0000 0.67341  0.27441  0.99066  Biso   1.000  C
  C491     1.0000 0.54519  0.84854  0.71186  Biso   1.000  C
  C492     1.0000 0.24641  0.98442  0.12957  Biso   1.000  C
  C493     1.0000 0.67949  0.18823  0.50395  Biso   1.000  C
  C494     1.0000 0.54523  0.60602  0.21064  Biso   1.000  C
  C495     1.0000 0.24860  0.49944  0.63819  Biso   1.000  C
  C496     1.0000 0.18074  0.18666  0.99368  Biso   1.000  C
  C497     1.0000 0.04466  0.59741  0.28070  Biso   1.000  C
  C498     1.0000 0.74436  0.48196  0.86757  Biso   1.000  C
  C499     1.0000 0.89638  0.68859  0.48465  Biso   1.000  C
  C500     1.0000 0.04582  0.09624  0.21637  Biso   1.000  C
  C501     1.0000 0.32377  0.97343  0.62674  Biso   1.000  C
  C502     1.0000 0.39500  0.68687  0.00530  Biso   1.000  C
  C503     1.0000 0.54331  0.10705  0.29073  Biso   1.000  C
  C504     1.0000 0.82615  0.99601  0.86825  Biso   1.000  C
  C505     1.0000 0.66906  0.49111  0.79505  Biso   1.000  C
  C506     1.0000 0.82290  0.61074  0.49230  Biso   1.000  C
  C507     1.0000 0.53349  0.77268  0.63618  Biso   1.000  C
  C508     1.0000 0.17175  0.49807  0.71473  Biso   1.000  C
  C509     1.0000 0.31880  0.61069  0.00136  Biso   1.000  C
  C510     1.0000 0.02532  0.78026  0.84604  Biso   1.000  C
  C511     1.0000 0.90432  0.99874  0.79031  Biso   1.000  C
  C512     1.0000 0.75204  0.10604  0.49865  Biso   1.000  C
  C513     1.0000 0.03550  0.27572  0.65484  Biso   1.000  C
  C514     1.0000 0.39587  0.97449  0.70612  Biso   1.000  C
  C515     1.0000 0.24863  0.10543  0.97013  Biso   1.000  C
  C516     1.0000 0.53485  0.27558  0.87222  Biso   1.000  C
  C517     1.0000 0.40730  0.46362  0.21609  Biso   1.000  C
  C518     1.0000 0.25174  0.35391  0.51423  Biso   1.000  C
  C519     1.0000 0.54171  0.18356  0.36945  Biso   1.000  C
  C520     1.0000 0.90428  0.47273  0.29151  Biso   1.000  C
  C521     1.0000 0.74738  0.35180  0.00724  Biso   1.000  C
  C522     1.0000 0.04954  0.18216  0.15167  Biso   1.000  C
  C523     1.0000 0.16886  0.97096  0.20361  Biso   1.000  C
  C524     1.0000 0.32359  0.84884  0.48601  Biso   1.000  C
  C525     1.0000 0.04525  0.67951  0.35177  Biso   1.000  C
  C526     1.0000 0.66867  0.97497  0.29901  Biso   1.000  C
  C527     1.0000 0.82331  0.85731  0.99223  Biso   1.000  C
  C528     1.0000 0.54031  0.68385  0.13768  Biso   1.000  C
  C529     1.0000 0.83529  0.12459  0.00855  Biso   1.000  C
  C530     1.0000 0.03121  0.76107  0.11649  Biso   1.000  C
  C531     1.0000 0.16725  0.97178  0.78914  Biso   1.000  C
  C532     1.0000 0.33226  0.11763  0.49024  Biso   1.000  C
  C533     1.0000 0.54429  0.76425  0.36845  Biso   1.000  C
  C534     1.0000 0.66517  0.99328  0.71201  Biso   1.000  C
  C535     1.0000 0.74027  0.62182  0.01072  Biso   1.000  C
  C536     1.0000 0.55689  0.26854  0.13476  Biso   1.000  C
  C537     1.0000 0.40109  0.48381  0.80049  Biso   1.000  C
  C538     1.0000 0.23815  0.61623  0.47843  Biso   1.000  C
  C539     1.0000 0.04216  0.25840  0.38561  Biso   1.000  C
  C540     1.0000 0.90516  0.50387  0.70917  Biso   1.000  C
  C541     1.0000 0.23525  0.84315  0.00552  Biso   1.000  C
  C542     1.0000 0.03553  0.20125  0.88441  Biso   1.000  C
  C543     1.0000 0.90056  0.98074  0.21275  Biso   1.000  C
  C544     1.0000 0.74483  0.83727  0.50206  Biso   1.000  C
  C545     1.0000 0.52980  0.19050  0.63436  Biso   1.000  C
  C546     1.0000 0.40338  0.98027  0.28522  Biso   1.000  C
  C547     1.0000 0.33174  0.34365  0.99484  Biso   1.000  C
  C548     1.0000 0.53883  0.69632  0.87433  Biso   1.000  C
  C549     1.0000 0.67412  0.47004  0.20841  Biso   1.000  C
  C550     1.0000 0.83116  0.34162  0.50074  Biso   1.000  C
  C551     1.0000 0.02213  0.69391  0.61757  Biso   1.000  C
  C552     1.0000 0.16988  0.44231  0.29756  Biso   1.000  C
  C553     1.0000 0.02778  0.12574  0.80797  Biso   1.000  C
  C554     1.0000 0.83070  0.99301  0.13190  Biso   1.000  C
  C555     1.0000 0.16182  0.76847  0.98224  Biso   1.000  C
  C556     1.0000 0.52039  0.11637  0.71251  Biso   1.000  C
  C557     1.0000 0.32727  0.98611  0.36232  Biso   1.000  C
  C558     1.0000 0.66441  0.76477  0.51167  Biso   1.000  C
  C559     1.0000 0.54628  0.62146  0.79736  Biso   1.000  C
  C560     1.0000 0.74984  0.47328  0.12928  Biso   1.000  C
  C561     1.0000 0.40948  0.27207  0.00718  Biso   1.000  C
  C562     1.0000 0.04113  0.62429  0.69620  Biso   1.000  C
  C563     1.0000 0.24230  0.44824  0.37594  Biso   1.000  C
  C564     1.0000 0.91000  0.26778  0.51510  Biso   1.000  C
  C565     1.0000 0.02992  0.83086  0.19934  Biso   1.000  C
  C566     1.0000 0.23819  0.95049  0.86586  Biso   1.000  C
  C567     1.0000 0.91434  0.19813  0.01547  Biso   1.000  C
  C568     1.0000 0.55141  0.84194  0.29544  Biso   1.000  C
  C569     1.0000 0.74036  0.97446  0.63861  Biso   1.000  C
  C570     1.0000 0.41145  0.18763  0.49678  Biso   1.000  C
  C571     1.0000 0.53824  0.33853  0.21309  Biso   1.000  C
  C572     1.0000 0.32649  0.48185  0.87825  Biso   1.000  C
  C573     1.0000 0.66169  0.69638  0.00457  Biso   1.000  C
  C574     1.0000 0.03153  0.33109  0.30954  Biso   1.000  C
  C575     1.0000 0.82770  0.48156  0.63429  Biso   1.000  C
  C576     1.0000 0.16316  0.68982  0.48656  Biso   1.000  C
  C577     1.0000 0.32796  0.47060  0.11416  Biso   1.000  C
  C578     1.0000 0.14760  0.27339  0.51725  Biso   1.000  C
  C579     1.0000 0.54268  0.07484  0.29231  Biso   1.000  C
  C580     1.0000 0.82630  0.48050  0.39510  Biso   1.000  C
  C581     1.0000 0.64313  0.27563  0.98550  Biso   1.000  C
  C582     1.0000 0.04361  0.06542  0.21346  Biso   1.000  C
  C583     1.0000 0.24617  0.98926  0.09802  Biso   1.000  C
  C584     1.0000 0.42931  0.77387  0.50575  Biso   1.000  C
  C585     1.0000 0.04331  0.56655  0.28247  Biso   1.000  C
  C586     1.0000 0.74454  0.97079  0.40164  Biso   1.000  C
  C587     1.0000 0.92689  0.77747  0.98688  Biso   1.000  C
  C588     1.0000 0.54185  0.57444  0.20968  Biso   1.000  C
  C589     1.0000 0.74493  0.48209  0.89919  Biso   1.000  C
  C590     1.0000 0.92931  0.68930  0.48368  Biso   1.000  C
  C591     1.0000 0.54730  0.88037  0.71154  Biso   1.000  C
  C592     1.0000 0.24797  0.49879  0.60746  Biso   1.000  C
  C593     1.0000 0.42621  0.68774  0.00701  Biso   1.000  C
  C594     1.0000 0.03090  0.89229  0.78066  Biso   1.000  C
  C595     1.0000 0.82865  0.99227  0.89933  Biso   1.000  C
  C596     1.0000 0.64865  0.18752  0.50701  Biso   1.000  C
  C597     1.0000 0.03611  0.38958  0.71964  Biso   1.000  C
  C598     1.0000 0.32485  0.97638  0.59631  Biso   1.000  C
  C599     1.0000 0.15036  0.18843  0.00131  Biso   1.000  C
  C600     1.0000 0.52254  0.38369  0.79827  Biso   1.000  C
  C601     1.0000 0.23478  0.94948  0.89742  Biso   1.000  C
  C602     1.0000 0.94592  0.19847  0.01689  Biso   1.000  C
  C603     1.0000 0.03317  0.86313  0.20053  Biso   1.000  C
  C604     1.0000 0.74175  0.96986  0.60802  Biso   1.000  C
  C605     1.0000 0.44268  0.18499  0.50073  Biso   1.000  C
  C606     1.0000 0.54521  0.87270  0.29583  Biso   1.000  C
  C607     1.0000 0.32817  0.48113  0.90988  Biso   1.000  C
  C608     1.0000 0.63009  0.69481  0.00471  Biso   1.000  C
  C609     1.0000 0.53610  0.36985  0.21422  Biso   1.000  C
  C610     1.0000 0.82837  0.47407  0.60415  Biso   1.000  C
  C611     1.0000 0.13259  0.68807  0.48976  Biso   1.000  C
  C612     1.0000 0.03132  0.36206  0.30818  Biso   1.000  C
  C613     1.0000 0.83205  0.99291  0.09973  Biso   1.000  C
  C614     1.0000 0.12991  0.76924  0.97960  Biso   1.000  C
  C615     1.0000 0.02709  0.09443  0.80744  Biso   1.000  C
  C616     1.0000 0.32833  0.98309  0.39350  Biso   1.000  C
  C617     1.0000 0.63255  0.76684  0.51282  Biso   1.000  C
  C618     1.0000 0.52192  0.08466  0.71207  Biso   1.000  C
  C619     1.0000 0.74829  0.47576  0.09801  Biso   1.000  C
  C620     1.0000 0.44064  0.27408  0.01050  Biso   1.000  C
  C621     1.0000 0.54303  0.59025  0.79615  Biso   1.000  C
  C622     1.0000 0.24108  0.45561  0.40643  Biso   1.000  C
  C623     1.0000 0.94131  0.27133  0.51655  Biso   1.000  C
  C624     1.0000 0.04555  0.59299  0.69899  Biso   1.000  C
  C625     1.0000 0.03645  0.19935  0.91638  Biso   1.000  C
  C626     1.0000 0.93268  0.97767  0.21232  Biso   1.000  C
  C627     1.0000 0.23422  0.87471  0.00963  Biso   1.000  C
  C628     1.0000 0.53455  0.19027  0.60322  Biso   1.000  C
  C629     1.0000 0.43545  0.97865  0.28585  Biso   1.000  C
  C630     1.0000 0.74589  0.86951  0.50047  Biso   1.000  C
  C631     1.0000 0.53299  0.69459  0.90556  Biso   1.000  C
  C632     1.0000 0.64250  0.46840  0.20934  Biso   1.000  C
  C633     1.0000 0.33025  0.37436  0.99874  Biso   1.000  C
  C634     1.0000 0.01925  0.69013  0.58718  Biso   1.000  C
  C635     1.0000 0.13751  0.44537  0.29941  Biso   1.000  C
  C636     1.0000 0.83073  0.37229  0.49803  Biso   1.000  C
  C637     1.0000 0.02968  0.76342  0.08379  Biso   1.000  C
  C638     1.0000 0.13669  0.97690  0.78846  Biso   1.000  C
  C639     1.0000 0.83428  0.09238  0.00452  Biso   1.000  C
  C640     1.0000 0.54061  0.76751  0.40002  Biso   1.000  C
  C641     1.0000 0.63400  0.99810  0.71241  Biso   1.000  C
  C642     1.0000 0.33200  0.08515  0.48913  Biso   1.000  C
  C643     1.0000 0.56034  0.26970  0.10297  Biso   1.000  C
  C644     1.0000 0.43217  0.48888  0.80111  Biso   1.000  C
  C645     1.0000 0.74139  0.58976  0.00631  Biso   1.000  C
  C646     1.0000 0.04764  0.26276  0.41767  Biso   1.000  C
  C647     1.0000 0.93702  0.50159  0.70831  Biso   1.000  C
  C648     1.0000 0.24004  0.58481  0.48105  Biso   1.000  C
  C649     1.0000 0.04056  0.68120  0.38377  Biso   1.000  C
  C650     1.0000 0.42913  0.97477  0.70823  Biso   1.000  C
  C651     1.0000 0.74706  0.38349  0.00818  Biso   1.000  C
  C652     1.0000 0.53671  0.68295  0.10753  Biso   1.000  C
  C653     1.0000 0.93554  0.99735  0.79077  Biso   1.000  C
  C654     1.0000 0.25119  0.38523  0.51332  Biso   1.000  C
  C655     1.0000 0.53560  0.18520  0.39995  Biso   1.000  C
  C656     1.0000 0.13994  0.49849  0.71422  Biso   1.000  C
  C657     1.0000 0.82649  0.88904  0.99208  Biso   1.000  C
  C658     1.0000 0.05024  0.18469  0.11996  Biso   1.000  C
  C659     1.0000 0.63700  0.49028  0.79475  Biso   1.000  C
  C660     1.0000 0.32350  0.87992  0.49033  Biso   1.000  C
  C661     1.0000 0.03643  0.27305  0.62325  Biso   1.000  C
  C662     1.0000 0.63813  0.97524  0.29880  Biso   1.000  C
  C663     1.0000 0.31914  0.57978  0.00553  Biso   1.000  C
  C664     1.0000 0.53630  0.27804  0.90358  Biso   1.000  C
  C665     1.0000 0.13840  0.96644  0.20386  Biso   1.000  C
  C666     1.0000 0.82334  0.57931  0.49457  Biso   1.000  C
  C667     1.0000 0.52935  0.77177  0.60438  Biso   1.000  C
  C668     1.0000 0.93438  0.46743  0.29220  Biso   1.000  C
  C669     1.0000 0.24633  0.07437  0.96893  Biso   1.000  C
  C670     1.0000 0.02618  0.77834  0.87679  Biso   1.000  C
  C671     1.0000 0.43797  0.46888  0.21576  Biso   1.000  C
  C672     1.0000 0.74994  0.07410  0.50200  Biso   1.000  C
  C673     1.0000 0.22835  0.96110  0.80136  Biso   1.000  C
  C674     1.0000 0.85106  0.18780  0.01172  Biso   1.000  C
  C675     1.0000 0.03181  0.76847  0.18028  Biso   1.000  C
  C676     1.0000 0.72680  0.98288  0.69772  Biso   1.000  C
  C677     1.0000 0.34864  0.18054  0.49418  Biso   1.000  C
  C678     1.0000 0.55573  0.77693  0.30796  Biso   1.000  C
  C679     1.0000 0.33979  0.48297  0.81398  Biso   1.000  C
  C680     1.0000 0.72581  0.68344  0.01007  Biso   1.000  C
  C681     1.0000 0.54660  0.27770  0.19681  Biso   1.000  C
  C682     1.0000 0.84187  0.49004  0.69715  Biso   1.000  C
  C683     1.0000 0.22849  0.67869  0.48029  Biso   1.000  C
  C684     1.0000 0.04022  0.27119  0.31975  Biso   1.000  C
  C685     1.0000 0.83808  0.98592  0.19721  Biso   1.000  C
  C686     1.0000 0.22259  0.78139  0.99259  Biso   1.000  C
  C687     1.0000 0.03174  0.18559  0.82116  Biso   1.000  C
  C688     1.0000 0.34236  0.98299  0.29940  Biso   1.000  C
  C689     1.0000 0.72671  0.77586  0.50143  Biso   1.000  C
  C690     1.0000 0.52145  0.17603  0.69863  Biso   1.000  C
  C691     1.0000 0.73676  0.47117  0.19246  Biso   1.000  C
  C692     1.0000 0.34835  0.28135  0.99434  Biso   1.000  C
  C693     1.0000 0.54261  0.68464  0.81135  Biso   1.000  C
  C694     1.0000 0.23071  0.43990  0.31105  Biso   1.000  C
  C695     1.0000 0.84769  0.27859  0.50558  Biso   1.000  C
  C696     1.0000 0.03413  0.68467  0.68146  Biso   1.000  C
  C697     1.0000 0.72921  0.97387  0.30893  Biso   1.000  C
  C698     1.0000 0.33178  0.67320  0.99982  Biso   1.000  C
  C699     1.0000 0.03184  0.29514  0.71527  Biso   1.000  C
  C700     1.0000 0.23101  0.97719  0.19135  Biso   1.000  C
  C701     1.0000 0.83693  0.67348  0.48840  Biso   1.000  C
  C702     1.0000 0.52288  0.28801  0.80833  Biso   1.000  C
  C703     1.0000 0.84400  0.47700  0.30177  Biso   1.000  C
  C704     1.0000 0.24075  0.16956  0.97857  Biso   1.000  C
  C705     1.0000 0.53808  0.78785  0.69802  Biso   1.000  C
  C706     1.0000 0.34469  0.45552  0.20648  Biso   1.000  C
  C707     1.0000 0.74225  0.16881  0.49921  Biso   1.000  C
  C708     1.0000 0.03115  0.79606  0.78472  Biso   1.000  C
  C709     1.0000 0.33469  0.96772  0.68901  Biso   1.000  C
  C710     1.0000 0.73800  0.29129  0.00459  Biso   1.000  C
  C711     1.0000 0.04282  0.66195  0.29029  Biso   1.000  C
  C712     1.0000 0.83935  0.99416  0.80435  Biso   1.000  C
  C713     1.0000 0.24113  0.29181  0.51312  Biso   1.000  C
  C714     1.0000 0.55346  0.66905  0.19879  Biso   1.000  C
  C715     1.0000 0.23420  0.49415  0.70127  Biso   1.000  C
  C716     1.0000 0.83753  0.79231  0.99721  Biso   1.000  C
  C717     1.0000 0.54634  0.17077  0.30700  Biso   1.000  C
  C718     1.0000 0.73181  0.48733  0.80651  Biso   1.000  C
  C719     1.0000 0.33586  0.78697  0.48818  Biso   1.000  C
  C720     1.0000 0.05001  0.16195  0.21052  Biso   1.000  C
  C721     1.0000 0.57176  0.75005  0.31310  Biso   1.000  C
  C722     1.0000 0.31340  0.49979  0.81750  Biso   1.000  C
  C723     1.0000 0.82093  0.27828  0.52241  Biso   1.000  C
  C724     1.0000 0.01767  0.74096  0.17597  Biso   1.000  C
  C725     1.0000 0.81421  0.50308  0.69238  Biso   1.000  C
  C726     1.0000 0.32502  0.28377  0.97127  Biso   1.000  C
  C727     1.0000 0.03081  0.24157  0.32533  Biso   1.000  C
  C728     1.0000 0.25751  0.97143  0.80701  Biso   1.000  C
  C729     1.0000 0.75243  0.77564  0.51866  Biso   1.000  C
  C730     1.0000 0.52776  0.27822  0.22129  Biso   1.000  C
  C731     1.0000 0.74829  0.96141  0.70064  Biso   1.000  C
  C732     1.0000 0.25239  0.78561  0.98372  Biso   1.000  C
  C733     1.0000 0.49981  0.17622  0.72161  Biso   1.000  C
  C734     1.0000 0.73339  0.48553  0.22015  Biso   1.000  C
  C735     1.0000 0.22324  0.70612  0.46806  Biso   1.000  C
  C736     1.0000 0.01794  0.21421  0.82469  Biso   1.000  C
  C737     1.0000 0.25627  0.42347  0.31406  Biso   1.000  C
  C738     1.0000 0.75155  0.68368  0.02935  Biso   1.000  C
  C739     1.0000 0.05157  0.70914  0.67271  Biso   1.000  C
  C740     1.0000 0.81211  0.96827  0.19330  Biso   1.000  C
  C741     1.0000 0.32552  0.18391  0.47319  Biso   1.000  C
  C742     1.0000 0.56274  0.68363  0.78746  Biso   1.000  C
  C743     1.0000 0.31333  0.96731  0.30414  Biso   1.000  C
  C744     1.0000 0.85122  0.21265  0.03148  Biso   1.000  C
  C745     1.0000 0.06034  0.68913  0.29135  Biso   1.000  C
  C746     1.0000 0.30724  0.98489  0.68883  Biso   1.000  C
  C747     1.0000 0.76698  0.29638  0.99247  Biso   1.000  C
  C748     1.0000 0.57103  0.69583  0.19369  Biso   1.000  C
  C749     1.0000 0.84070  0.97530  0.77918  Biso   1.000  C
  C750     1.0000 0.26774  0.29257  0.52985  Biso   1.000  C
  C751     1.0000 0.56174  0.16736  0.28006  Biso   1.000  C
  C752     1.0000 0.26030  0.47576  0.69600  Biso   1.000  C
  C753     1.0000 0.80886  0.79380  0.98295  Biso   1.000  C
  C754     1.0000 0.06350  0.15458  0.23882  Biso   1.000  C
  C755     1.0000 0.75540  0.46684  0.80664  Biso   1.000  C
  C756     1.0000 0.30687  0.79381  0.49826  Biso   1.000  C
  C757     1.0000 0.01541  0.26816  0.70964  Biso   1.000  C
  C758     1.0000 0.75465  0.99240  0.31144  Biso   1.000  C
  C759     1.0000 0.30693  0.67166  0.01852  Biso   1.000  C
  C760     1.0000 0.53526  0.29112  0.77932  Biso   1.000  C
  C761     1.0000 0.25419  0.99758  0.19093  Biso   1.000  C
  C762     1.0000 0.83588  0.69717  0.46691  Biso   1.000  C
  C763     1.0000 0.52537  0.79451  0.72672  Biso   1.000  C
  C764     1.0000 0.81955  0.49701  0.30014  Biso   1.000  C
  C765     1.0000 0.27090  0.16372  0.98844  Biso   1.000  C
  C766     1.0000 0.02087  0.79988  0.75495  Biso   1.000  C
  C767     1.0000 0.34728  0.46438  0.23792  Biso   1.000  C
  C768     1.0000 0.74026  0.19640  0.48232  Biso   1.000  C
  C769     1.0000 0.52240  0.70860  0.81251  Biso   1.000  C
  C770     1.0000 0.84672  0.47594  0.72576  Biso   1.000  C
  C771     1.0000 0.72095  0.74892  0.48337  Biso   1.000  C
  C772     1.0000 0.02106  0.68269  0.70926  Biso   1.000  C
  C773     1.0000 0.34609  0.46814  0.78533  Biso   1.000  C
  C774     1.0000 0.21587  0.75315  0.00607  Biso   1.000  C
  C775     1.0000 0.04711  0.18320  0.79300  Biso   1.000  C
  C776     1.0000 0.72959  0.00920  0.71593  Biso   1.000  C
  C777     1.0000 0.85566  0.25437  0.48712  Biso   1.000  C
  C778     1.0000 0.54321  0.19817  0.69857  Biso   1.000  C
  C779     1.0000 0.22056  0.94900  0.77087  Biso   1.000  C
  C780     1.0000 0.34878  0.25418  0.01193  Biso   1.000  C
  C781     1.0000 0.56600  0.25291  0.19518  Biso   1.000  C
  C782     1.0000 0.22609  0.45418  0.28286  Biso   1.000  C
  C783     1.0000 0.35104  0.20042  0.51833  Biso   1.000  C
  C784     1.0000 0.05493  0.27588  0.29001  Biso   1.000  C
  C785     1.0000 0.76513  0.45573  0.18908  Biso   1.000  C
  C786     1.0000 0.82548  0.18557  0.99159  Biso   1.000  C
  C787     1.0000 0.04773  0.77333  0.20744  Biso   1.000  C
  C788     1.0000 0.34573  0.99777  0.27180  Biso   1.000  C
  C789     1.0000 0.25687  0.67421  0.49442  Biso   1.000  C
  C790     1.0000 0.54500  0.78000  0.27968  Biso   1.000  C
  C791     1.0000 0.83995  0.00195  0.22406  Biso   1.000  C
  C792     1.0000 0.72347  0.70701  0.98985  Biso   1.000  C
  C793     1.0000 0.53067  0.19735  0.31044  Biso   1.000  C
  C794     1.0000 0.31889  0.43987  0.20113  Biso   1.000  C
  C795     1.0000 0.23947  0.26809  0.49136  Biso   1.000  C
  C796     1.0000 0.03404  0.18906  0.20872  Biso   1.000  C
  C797     1.0000 0.84742  0.45554  0.27836  Biso   1.000  C
  C798     1.0000 0.73165  0.26315  0.01878  Biso   1.000  C
  C799     1.0000 0.02427  0.65649  0.26459  Biso   1.000  C
  C800     1.0000 0.22985  0.95860  0.21691  Biso   1.000  C
  C801     1.0000 0.34104  0.75786  0.47587  Biso   1.000  C
  C802     1.0000 0.53912  0.66706  0.22621  Biso   1.000  C
  C803     1.0000 0.72726  0.95572  0.28323  Biso   1.000  C
  C804     1.0000 0.84016  0.76685  0.01569  Biso   1.000  C
  C805     1.0000 0.55288  0.76029  0.69366  Biso   1.000  C
  C806     1.0000 0.73208  0.50784  0.78210  Biso   1.000  C
  C807     1.0000 0.81391  0.67040  0.50904  Biso   1.000  C
  C808     1.0000 0.04866  0.77035  0.78939  Biso   1.000  C
  C809     1.0000 0.23220  0.50880  0.72848  Biso   1.000  C
  C810     1.0000 0.33407  0.69873  0.98226  Biso   1.000  C
  C811     1.0000 0.04657  0.29906  0.74367  Biso   1.000  C
  C812     1.0000 0.81329  0.01357  0.80728  Biso   1.000  C
  C813     1.0000 0.76957  0.16441  0.51540  Biso   1.000  C
  C814     1.0000 0.50722  0.26087  0.81357  Biso   1.000  C
  C815     1.0000 0.33763  0.94773  0.71205  Biso   1.000  C
  C816     1.0000 0.23594  0.19916  0.96766  Biso   1.000  C
  C817     1.0000 0.01794  0.23584  0.80382  Biso   1.000  C
  C818     1.0000 0.79176  0.96643  0.21567  Biso   1.000  C
  C819     1.0000 0.27327  0.76420  0.98835  Biso   1.000  C
  C820     1.0000 0.50069  0.19690  0.74328  Biso   1.000  C
  C821     1.0000 0.29157  0.96901  0.28373  Biso   1.000  C
  C822     1.0000 0.77375  0.75412  0.51491  Biso   1.000  C
  C823     1.0000 0.56279  0.70605  0.76779  Biso   1.000  C
  C824     1.0000 0.75480  0.48676  0.23975  Biso   1.000  C
  C825     1.0000 0.30467  0.26176  0.96854  Biso   1.000  C
  C826     1.0000 0.05394  0.73123  0.69328  Biso   1.000  C
  C827     1.0000 0.27673  0.42373  0.29328  Biso   1.000  C
  C828     1.0000 0.80058  0.25670  0.51704  Biso   1.000  C
  C829     1.0000 0.02081  0.72010  0.19737  Biso   1.000  C
  C830     1.0000 0.27686  0.97325  0.78472  Biso   1.000  C
  C831     1.0000 0.82762  0.23372  0.03051  Biso   1.000  C
  C832     1.0000 0.57504  0.72969  0.29145  Biso   1.000  C
  C833     1.0000 0.76776  0.96343  0.72313  Biso   1.000  C
  C834     1.0000 0.30723  0.20757  0.47696  Biso   1.000  C
  C835     1.0000 0.52815  0.25767  0.24346  Biso   1.000  C
  C836     1.0000 0.29261  0.49816  0.79629  Biso   1.000  C
  C837     1.0000 0.77076  0.70653  0.02881  Biso   1.000  C
  C838     1.0000 0.03312  0.21948  0.30460  Biso   1.000  C
  C839     1.0000 0.79358  0.50104  0.71398  Biso   1.000  C
  C840     1.0000 0.24477  0.72754  0.46742  Biso   1.000  C
  C841     1.0000 0.24339  0.94871  0.75042  Biso   1.000  C
  C842     1.0000 0.80409  0.20632  0.99269  Biso   1.000  C
  C843     1.0000 0.04856  0.75267  0.22897  Biso   1.000  C
  C844     1.0000 0.75103  0.01138  0.73732  Biso   1.000  C
  C845     1.0000 0.33207  0.22369  0.52119  Biso   1.000  C
  C846     1.0000 0.54813  0.75836  0.25777  Biso   1.000  C
  C847     1.0000 0.32499  0.47127  0.76413  Biso   1.000  C
  C848     1.0000 0.74262  0.73088  0.99295  Biso   1.000  C
  C849     1.0000 0.56592  0.23268  0.21807  Biso   1.000  C
  C850     1.0000 0.82418  0.47418  0.74569  Biso   1.000  C
  C851     1.0000 0.27615  0.69776  0.49676  Biso   1.000  C
  C852     1.0000 0.05852  0.25327  0.27147  Biso   1.000  C
  C853     1.0000 0.81836  0.99909  0.24470  Biso   1.000  C
  C854     1.0000 0.23646  0.73175  0.00689  Biso   1.000  C
  C855     1.0000 0.04726  0.20546  0.77235  Biso   1.000  C
  C856     1.0000 0.32389  0.99713  0.25192  Biso   1.000  C
  C857     1.0000 0.74215  0.72921  0.47758  Biso   1.000  C
  C858     1.0000 0.54332  0.21911  0.72044  Biso   1.000  C
  C859     1.0000 0.78574  0.45558  0.21043  Biso   1.000  C
  C860     1.0000 0.32529  0.23496  0.00956  Biso   1.000  C
  C861     1.0000 0.52210  0.72949  0.79151  Biso   1.000  C
  C862     1.0000 0.24644  0.45157  0.26093  Biso   1.000  C
  C863     1.0000 0.83498  0.23163  0.48418  Biso   1.000  C
  C864     1.0000 0.02536  0.70627  0.72844  Biso   1.000  C
  C865     1.0000 0.77531  0.46621  0.78446  Biso   1.000  C
  C866     1.0000 0.81334  0.71702  0.46902  Biso   1.000  C
  C867     1.0000 0.52838  0.77468  0.74877  Biso   1.000  C
  C868     1.0000 0.28100  0.47580  0.71784  Biso   1.000  C
  C869     1.0000 0.28615  0.69427  0.02032  Biso   1.000  C
  C870     1.0000 0.02545  0.77894  0.73417  Biso   1.000  C
  C871     1.0000 0.81893  0.97579  0.75871  Biso   1.000  C
  C872     1.0000 0.76306  0.21541  0.48172  Biso   1.000  C
  C873     1.0000 0.01522  0.24733  0.73140  Biso   1.000  C
  C874     1.0000 0.28700  0.98191  0.71067  Biso   1.000  C
  C875     1.0000 0.29167  0.18707  0.99088  Biso   1.000  C
  C876     1.0000 0.53175  0.27071  0.75862  Biso   1.000  C
  C877     1.0000 0.32588  0.45481  0.25834  Biso   1.000  C
  C878     1.0000 0.29120  0.27313  0.52482  Biso   1.000  C
  C879     1.0000 0.56315  0.18885  0.25916  Biso   1.000  C
  C880     1.0000 0.79954  0.49283  0.27897  Biso   1.000  C
  C881     1.0000 0.78694  0.27493  0.99554  Biso   1.000  C
  C882     1.0000 0.06025  0.17535  0.26143  Biso   1.000  C
  C883     1.0000 0.27662  0.99752  0.21078  Biso   1.000  C
  C884     1.0000 0.28526  0.77296  0.49569  Biso   1.000  C
  C885     1.0000 0.05702  0.70847  0.26890  Biso   1.000  C
  C886     1.0000 0.77351  0.99375  0.28783  Biso   1.000  C
  C887     1.0000 0.78654  0.77431  0.98886  Biso   1.000  C
  C888     1.0000 0.57253  0.71621  0.21523  Biso   1.000  C
  C889     1.0000 0.74707  0.95811  0.26143  Biso   1.000  C
  C890     1.0000 0.31170  0.71906  0.98174  Biso   1.000  C
  C891     1.0000 0.04397  0.27758  0.76396  Biso   1.000  C
  C892     1.0000 0.25040  0.96000  0.23775  Biso   1.000  C
  C893     1.0000 0.79152  0.68907  0.50980  Biso   1.000  C
  C894     1.0000 0.50736  0.23938  0.79204  Biso   1.000  C
  C895     1.0000 0.82588  0.45299  0.25791  Biso   1.000  C
  C896     1.0000 0.25726  0.22031  0.96988  Biso   1.000  C
  C897     1.0000 0.55447  0.74085  0.71765  Biso   1.000  C
  C898     1.0000 0.29764  0.43420  0.22059  Biso   1.000  C
  C899     1.0000 0.79165  0.18445  0.51363  Biso   1.000  C
  C900     1.0000 0.05377  0.74981  0.76690  Biso   1.000  C
  C901     1.0000 0.31715  0.94579  0.73493  Biso   1.000  C
  C902     1.0000 0.75392  0.24368  0.02206  Biso   1.000  C
  C903     1.0000 0.02119  0.67853  0.24421  Biso   1.000  C
  C904     1.0000 0.79141  0.01090  0.78743  Biso   1.000  C
  C905     1.0000 0.26219  0.24853  0.48931  Biso   1.000  C
  C906     1.0000 0.54236  0.68566  0.24774  Biso   1.000  C
  C907     1.0000 0.25403  0.50637  0.74920  Biso   1.000  C
  C908     1.0000 0.81716  0.74774  0.02102  Biso   1.000  C
  C909     1.0000 0.53119  0.21803  0.28951  Biso   1.000  C
  C910     1.0000 0.75500  0.50826  0.76282  Biso   1.000  C
  C911     1.0000 0.31873  0.73627  0.47464  Biso   1.000  C
  C912     1.0000 0.03465  0.20878  0.23110  Biso   1.000  C
  C913     1.0000 0.79814  0.48742  0.74082  Biso   1.000  C
  C914     1.0000 0.76860  0.73176  0.49410  Biso   1.000  C
  C915     1.0000 0.54154  0.72880  0.76813  Biso   1.000  C
  C916     1.0000 0.29862  0.48563  0.76940  Biso   1.000  C
  C917     1.0000 0.26510  0.73834  0.00019  Biso   1.000  C
  C918     1.0000 0.04265  0.72931  0.72057  Biso   1.000  C
  C919     1.0000 0.77065  0.98828  0.74149  Biso   1.000  C
  C920     1.0000 0.80925  0.23274  0.49964  Biso   1.000  C
  C921     1.0000 0.03115  0.23057  0.77775  Biso   1.000  C
  C922     1.0000 0.26908  0.96388  0.75724  Biso   1.000  C
  C923     1.0000 0.30478  0.23835  0.98759  Biso   1.000  C
  C924     1.0000 0.52182  0.22004  0.74257  Biso   1.000  C
  C925     1.0000 0.27339  0.43800  0.26733  Biso   1.000  C
  C926     1.0000 0.31027  0.22696  0.50092  Biso   1.000  C
  C927     1.0000 0.54918  0.23651  0.24234  Biso   1.000  C
  C928     1.0000 0.77978  0.47102  0.23566  Biso   1.000  C
  C929     1.0000 0.80516  0.22942  0.01186  Biso   1.000  C
  C930     1.0000 0.04790  0.22531  0.27828  Biso   1.000  C
  C931     1.0000 0.29748  0.98164  0.25757  Biso   1.000  C
  C932     1.0000 0.26964  0.72239  0.48323  Biso   1.000  C
  C933     1.0000 0.03591  0.72437  0.22371  Biso   1.000  C
  C934     1.0000 0.79473  0.98109  0.24084  Biso   1.000  C
  C935     1.0000 0.76766  0.72863  0.00916  Biso   1.000  C
  C936     1.0000 0.56219  0.73300  0.26418  Biso   1.000  C
  C937     1.0000 0.78163  0.24999  0.01091  Biso   1.000  C
  C938     1.0000 0.03727  0.70319  0.24681  Biso   1.000  C
  C939     1.0000 0.29204  0.96421  0.73474  Biso   1.000  C
  C940     1.0000 0.28756  0.25039  0.50557  Biso   1.000  C
  C941     1.0000 0.56061  0.71092  0.24191  Biso   1.000  C
  C942     1.0000 0.79464  0.99319  0.76306  Biso   1.000  C
  C943     1.0000 0.78989  0.75241  0.00885  Biso   1.000  C
  C944     1.0000 0.54654  0.21391  0.26346  Biso   1.000  C
  C945     1.0000 0.27881  0.49038  0.74447  Biso   1.000  C
  C946     1.0000 0.29187  0.74450  0.48622  Biso   1.000  C
  C947     1.0000 0.04769  0.20193  0.25611  Biso   1.000  C
  C948     1.0000 0.77528  0.48594  0.76267  Biso   1.000  C
  C949     1.0000 0.28809  0.71627  0.00037  Biso   1.000  C
  C950     1.0000 0.02964  0.25302  0.75645  Biso   1.000  C
  C951     1.0000 0.76958  0.97795  0.26240  Biso   1.000  C
  C952     1.0000 0.79188  0.71112  0.48927  Biso   1.000  C
  C953     1.0000 0.51865  0.24533  0.76515  Biso   1.000  C
  C954     1.0000 0.27450  0.98044  0.23585  Biso   1.000  C
  C955     1.0000 0.28329  0.21414  0.98242  Biso   1.000  C
  C956     1.0000 0.54144  0.74804  0.74365  Biso   1.000  C
  C957     1.0000 0.80120  0.47041  0.25899  Biso   1.000  C
  C958     1.0000 0.78864  0.20876  0.49665  Biso   1.000  C
  C959     1.0000 0.04189  0.75416  0.73992  Biso   1.000  C
  C960     1.0000 0.30033  0.44208  0.24944  Biso   1.000  C
  Cu1      1.0000 0.03905  0.48634  0.65426  Biso   1.000  Cu
  Cu2      1.0000 0.69297  0.97346  0.50477  Biso   1.000  Cu
  Cu3      1.0000 0.53022  0.63642  0.00185  Biso   1.000  Cu
  Cu4      1.0000 0.53441  0.48812  0.85335  Biso   1.000  Cu
  Cu5      1.0000 0.18631  0.97787  0.99699  Biso   1.000  Cu
  Cu6      1.0000 0.03084  0.63296  0.48538  Biso   1.000  Cu
  Cu7      1.0000 0.53496  0.98213  0.65628  Biso   1.000  Cu
  Cu8      1.0000 0.88012  0.47862  0.49987  Biso   1.000  Cu
  Cu9      1.0000 0.04371  0.13976  0.01256  Biso   1.000  Cu
  Cu10     1.0000 0.03544  0.98638  0.84738  Biso   1.000  Cu
  Cu11     1.0000 0.38069  0.48029  0.01284  Biso   1.000  Cu
  Cu12     1.0000 0.54363  0.13301  0.50114  Biso   1.000  Cu
  Cu13     1.0000 0.03527  0.47004  0.34732  Biso   1.000  Cu
  Cu14     1.0000 0.38267  0.98137  0.49471  Biso   1.000  Cu
  Cu15     1.0000 0.54087  0.32871  0.00770  Biso   1.000  Cu
  Cu16     1.0000 0.53734  0.47240  0.15604  Biso   1.000  Cu
  Cu17     1.0000 0.88732  0.98831  0.99689  Biso   1.000  Cu
  Cu18     1.0000 0.04268  0.32608  0.51622  Biso   1.000  Cu
  Cu19     1.0000 0.53226  0.97309  0.34827  Biso   1.000  Cu
  Cu20     1.0000 0.19027  0.48290  0.50455  Biso   1.000  Cu
  Cu21     1.0000 0.03094  0.82805  0.98492  Biso   1.000  Cu
  Cu22     1.0000 0.03406  0.96845  0.15080  Biso   1.000  Cu
  Cu23     1.0000 0.68747  0.48460  0.00201  Biso   1.000  Cu
  Cu24     1.0000 0.53109  0.82307  0.50292  Biso   1.000  Cu
  Cu25     1.0000 0.24152  0.97288  0.99413  Biso   1.000  Cu
  Cu26     1.0000 0.04655  0.19505  0.01831  Biso   1.000  Cu
  Cu27     1.0000 0.03552  0.96577  0.20457  Biso   1.000  Cu
  Cu28     1.0000 0.74551  0.97259  0.50505  Biso   1.000  Cu
  Cu29     1.0000 0.54407  0.18576  0.50234  Biso   1.000  Cu
  Cu30     1.0000 0.53570  0.97479  0.29275  Biso   1.000  Cu
  Cu31     1.0000 0.32757  0.47554  0.01204  Biso   1.000  Cu
  Cu32     1.0000 0.53091  0.69029  0.00839  Biso   1.000  Cu
  Cu33     1.0000 0.53944  0.47540  0.21070  Biso   1.000  Cu
  Cu34     1.0000 0.82565  0.47391  0.50056  Biso   1.000  Cu
  Cu35     1.0000 0.03063  0.68717  0.48590  Biso   1.000  Cu
  Cu36     1.0000 0.03831  0.46169  0.29411  Biso   1.000  Cu
  Cu37     1.0000 0.83455  0.99116  0.99865  Biso   1.000  Cu
  Cu38     1.0000 0.02699  0.77378  0.98188  Biso   1.000  Cu
  Cu39     1.0000 0.03533  0.99341  0.79231  Biso   1.000  Cu
  Cu40     1.0000 0.32862  0.98524  0.49316  Biso   1.000  Cu
  Cu41     1.0000 0.52958  0.76941  0.50220  Biso   1.000  Cu
  Cu42     1.0000 0.53144  0.98213  0.71035  Biso   1.000  Cu
  Cu43     1.0000 0.74260  0.48815  0.99990  Biso   1.000  Cu
  Cu44     1.0000 0.54174  0.27449  0.00091  Biso   1.000  Cu
  Cu45     1.0000 0.53549  0.48622  0.79878  Biso   1.000  Cu
  Cu46     1.0000 0.24560  0.48829  0.50286  Biso   1.000  Cu
  Cu47     1.0000 0.04587  0.27196  0.52018  Biso   1.000  Cu
  Cu48     1.0000 0.03604  0.49229  0.70763  Biso   1.000  Cu
  H1       1.0000 0.26320  0.77753  0.50173  Biso   1.000  H
  H2       1.0000 0.53965  0.27485  0.73663  Biso   1.000  H
  H3       1.0000 0.78098  0.50825  0.27937  Biso   1.000  H
  H4       1.0000 0.76740  0.77889  0.97683  Biso   1.000  H
  H5       1.0000 0.00570  0.22733  0.72667  Biso   1.000  H
  H6       1.0000 0.32853  0.45671  0.28261  Biso   1.000  H
  H7       1.0000 0.31193  0.27464  0.53478  Biso   1.000  H
  H8       1.0000 0.01548  0.77948  0.71281  Biso   1.000  H
  H9       1.0000 0.79095  0.00821  0.29058  Biso   1.000  H
  H10      1.0000 0.80786  0.27775  0.98395  Biso   1.000  H
  H11      1.0000 0.52058  0.77858  0.77000  Biso   1.000  H
  H12      1.0000 0.29483  0.01141  0.20827  Biso   1.000  H
  H13      1.0000 0.76117  0.23701  0.47231  Biso   1.000  H
  H14      1.0000 0.58441  0.73577  0.21076  Biso   1.000  H
  H15      1.0000 0.30087  0.46370  0.71298  Biso   1.000  H
  H16      1.0000 0.31341  0.18305  0.99845  Biso   1.000  H
  H17      1.0000 0.06853  0.72914  0.26668  Biso   1.000  H
  H18      1.0000 0.79198  0.44943  0.78598  Biso   1.000  H
  H19      1.0000 0.81079  0.73668  0.45702  Biso   1.000  H
  H20      1.0000 0.07040  0.17121  0.28253  Biso   1.000  H
  H21      1.0000 0.26794  0.99688  0.70888  Biso   1.000  H
  H22      1.0000 0.26740  0.69212  0.03459  Biso   1.000  H
  H23      1.0000 0.57552  0.18452  0.23962  Biso   1.000  H
  H24      1.0000 0.82381  0.96416  0.73780  Biso   1.000  H
  H25      1.0000 0.29868  0.98257  0.78992  Biso   1.000  H
  H26      1.0000 0.82838  0.25231  0.04419  Biso   1.000  H
  H27      1.0000 0.00997  0.69928  0.19577  Biso   1.000  H
  H28      1.0000 0.78166  0.94527  0.72620  Biso   1.000  H
  H29      1.0000 0.29013  0.21150  0.46076  Biso   1.000  H
  H30      1.0000 0.58694  0.71076  0.29588  Biso   1.000  H
  H31      1.0000 0.27154  0.50740  0.80126  Biso   1.000  H
  H32      1.0000 0.78842  0.70730  0.04484  Biso   1.000  H
  H33      1.0000 0.51256  0.25824  0.26122  Biso   1.000  H
  H34      1.0000 0.77315  0.50878  0.70998  Biso   1.000  H
  H35      1.0000 0.24260  0.74719  0.45449  Biso   1.000  H
  H36      1.0000 0.02543  0.19734  0.30973  Biso   1.000  H
  H37      1.0000 0.77272  0.95097  0.21106  Biso   1.000  H
  H38      1.0000 0.29557  0.77029  0.98386  Biso   1.000  H
  H39      1.0000 0.00406  0.25400  0.81063  Biso   1.000  H
  H40      1.0000 0.27046  0.95959  0.28956  Biso   1.000  H
  H41      1.0000 0.79308  0.75523  0.52792  Biso   1.000  H
  H42      1.0000 0.48623  0.19896  0.76112  Biso   1.000  H
  H43      1.0000 0.75110  0.49779  0.26080  Biso   1.000  H
  H44      1.0000 0.29032  0.26511  0.95060  Biso   1.000  H
  H45      1.0000 0.58150  0.70551  0.75334  Biso   1.000  H
  H46      1.0000 0.29778  0.41429  0.29777  Biso   1.000  H
  H47      1.0000 0.77966  0.25864  0.52658  Biso   1.000  H
  H48      1.0000 0.06602  0.74979  0.68698  Biso   1.000  H
  H49      1.0000 0.24273  0.46027  0.23929  Biso   1.000  H
  H50      1.0000 0.33658  0.23615  0.53978  Biso   1.000  H
  H51      1.0000 0.58254  0.21504  0.21393  Biso   1.000  H
  H52      1.0000 0.80466  0.44100  0.20831  Biso   1.000  H
  H53      1.0000 0.78564  0.20183  0.97820  Biso   1.000  H
  H54      1.0000 0.07083  0.25692  0.25227  Biso   1.000  H
  H55      1.0000 0.32813  0.00705  0.23139  Biso   1.000  H
  H56      1.0000 0.29499  0.69424  0.50940  Biso   1.000  H
  H57      1.0000 0.05768  0.76053  0.24879  Biso   1.000  H
  H58      1.0000 0.82430  0.01036  0.26554  Biso   1.000  H
  H59      1.0000 0.73951  0.74915  0.97757  Biso   1.000  H
  H60      1.0000 0.53590  0.76063  0.23814  Biso   1.000  H
  H61      1.0000 0.82985  0.46266  0.76486  Biso   1.000  H
  H62      1.0000 0.73763  0.70995  0.46381  Biso   1.000  H
  H63      1.0000 0.50405  0.74390  0.79380  Biso   1.000  H
  H64      1.0000 0.32734  0.45830  0.74597  Biso   1.000  H
  H65      1.0000 0.22998  0.71091  0.01583  Biso   1.000  H
  H66      1.0000 0.01597  0.70834  0.75072  Biso   1.000  H
  H67      1.0000 0.75011  0.02975  0.75212  Biso   1.000  H
  H68      1.0000 0.83966  0.21375  0.46809  Biso   1.000  H
  H69      1.0000 0.05635  0.20165  0.75160  Biso   1.000  H
  H70      1.0000 0.23945  0.93974  0.72900  Biso   1.000  H
  H71      1.0000 0.32347  0.21742  0.02655  Biso   1.000  H
  H72      1.0000 0.56238  0.23370  0.72408  Biso   1.000  H
  H73      1.0000 0.75346  0.52585  0.74827  Biso   1.000  H
  H74      1.0000 0.77367  0.68701  0.52406  Biso   1.000  H
  H75      1.0000 0.56422  0.71942  0.71524  Biso   1.000  H
  H76      1.0000 0.25351  0.51685  0.77014  Biso   1.000  H
  H77      1.0000 0.31312  0.73470  0.96528  Biso   1.000  H
  H78      1.0000 0.06625  0.72989  0.76811  Biso   1.000  H
  H79      1.0000 0.77060  0.02216  0.78974  Biso   1.000  H
  H80      1.0000 0.81114  0.18152  0.52765  Biso   1.000  H
  H81      1.0000 0.05455  0.27902  0.78477  Biso   1.000  H
  H82      1.0000 0.32127  0.93244  0.75299  Biso   1.000  H
  H83      1.0000 0.25402  0.24241  0.96156  Biso   1.000  H
  H84      1.0000 0.49861  0.21758  0.79731  Biso   1.000  H
  H85      1.0000 0.27777  0.42179  0.21381  Biso   1.000  H
  H86      1.0000 0.25776  0.22971  0.47373  Biso   1.000  H
  H87      1.0000 0.51635  0.23733  0.29261  Biso   1.000  H
  H88      1.0000 0.82660  0.43146  0.24743  Biso   1.000  H
  H89      1.0000 0.74668  0.22234  0.03123  Biso   1.000  H
  H90      1.0000 0.02295  0.22977  0.22897  Biso   1.000  H
  H91      1.0000 0.24794  0.94562  0.25476  Biso   1.000  H
  H92      1.0000 0.32000  0.71443  0.46644  Biso   1.000  H
  H93      1.0000 0.00530  0.67301  0.22877  Biso   1.000  H
  H94      1.0000 0.74682  0.94329  0.24300  Biso   1.000  H
  H95      1.0000 0.82026  0.72954  0.03541  Biso   1.000  H
  H96      1.0000 0.53136  0.68066  0.26870  Biso   1.000  H
  H97      1.0000 0.90528  0.98885  0.90691  Biso   1.000  H
  H98      1.0000 0.94213  0.85263  0.98215  Biso   1.000  H
  H99      1.0000 0.02384  0.89501  0.85832  Biso   1.000  H
  H100     1.0000 0.39954  0.97579  0.58658  Biso   1.000  H
  H101     1.0000 0.44107  0.84840  0.49826  Biso   1.000  H
  H102     1.0000 0.53649  0.89255  0.63465  Biso   1.000  H
  H103     1.0000 0.66936  0.47693  0.91178  Biso   1.000  H
  H104     1.0000 0.63034  0.35100  0.99392  Biso   1.000  H
  H105     1.0000 0.53115  0.39303  0.87446  Biso   1.000  H
  H106     1.0000 0.17229  0.49538  0.59626  Biso   1.000  H
  H107     1.0000 0.13451  0.35053  0.52052  Biso   1.000  H
  H108     1.0000 0.02700  0.39217  0.64449  Biso   1.000  H
  H109     1.0000 0.17459  0.98037  0.08402  Biso   1.000  H
  H110     1.0000 0.12996  0.11404  0.99295  Biso   1.000  H
  H111     1.0000 0.05616  0.06279  0.13733  Biso   1.000  H
  H112     1.0000 0.66973  0.97996  0.41621  Biso   1.000  H
  H113     1.0000 0.63557  0.11254  0.50635  Biso   1.000  H
  H114     1.0000 0.53256  0.06871  0.36605  Biso   1.000  H
  H115     1.0000 0.40204  0.47921  0.10027  Biso   1.000  H
  H116     1.0000 0.43791  0.61327  0.01042  Biso   1.000  H
  H117     1.0000 0.52515  0.56586  0.13564  Biso   1.000  H
  H118     1.0000 0.90307  0.47741  0.40564  Biso   1.000  H
  H119     1.0000 0.93998  0.61196  0.48646  Biso   1.000  H
  H120     1.0000 0.03528  0.55893  0.35912  Biso   1.000  H
  H121     1.0000 0.12283  0.96821  0.86400  Biso   1.000  H
  H122     1.0000 0.91162  0.08116  0.01100  Biso   1.000  H
  H123     1.0000 0.01995  0.83932  0.08268  Biso   1.000  H
  H124     1.0000 0.62194  0.98992  0.63794  Biso   1.000  H
  H125     1.0000 0.40779  0.07501  0.48757  Biso   1.000  H
  H126     1.0000 0.53276  0.84325  0.40909  Biso   1.000  H
  H127     1.0000 0.44553  0.48626  0.87490  Biso   1.000  H
  H128     1.0000 0.66486  0.57912  0.00071  Biso   1.000  H
  H129     1.0000 0.54874  0.34546  0.09665  Biso   1.000  H
  H130     1.0000 0.94773  0.49230  0.63173  Biso   1.000  H
  H131     1.0000 0.16447  0.57270  0.49308  Biso   1.000  H
  H132     1.0000 0.03791  0.33789  0.42431  Biso   1.000  H
  H133     1.0000 0.94424  0.97196  0.13746  Biso   1.000  H
  H134     1.0000 0.15973  0.88484  0.99805  Biso   1.000  H
  H135     1.0000 0.04681  0.12408  0.92338  Biso   1.000  H
  H136     1.0000 0.44606  0.98293  0.36004  Biso   1.000  H
  H137     1.0000 0.67037  0.88168  0.49909  Biso   1.000  H
  H138     1.0000 0.52916  0.11400  0.59423  Biso   1.000  H
  H139     1.0000 0.63222  0.46446  0.13288  Biso   1.000  H
  H140     1.0000 0.40574  0.38754  0.00080  Biso   1.000  H
  H141     1.0000 0.54027  0.62054  0.91387  Biso   1.000  H
  H142     1.0000 0.12927  0.47449  0.36884  Biso   1.000  H
  H143     1.0000 0.90425  0.38915  0.50808  Biso   1.000  H
  H144     1.0000 0.02911  0.61644  0.57686  Biso   1.000  H
  H145     1.0000 0.62685  0.48352  0.87052  Biso   1.000  H
  H146     1.0000 0.89913  0.56919  0.48913  Biso   1.000  H
  H147     1.0000 0.53745  0.84689  0.59412  Biso   1.000  H
  H148     1.0000 0.12827  0.49079  0.63821  Biso   1.000  H
  H149     1.0000 0.39522  0.57140  0.00882  Biso   1.000  H
  H150     1.0000 0.02356  0.85214  0.89678  Biso   1.000  H
  H151     1.0000 0.94325  0.99270  0.86530  Biso   1.000  H
  H152     1.0000 0.67450  0.06806  0.51285  Biso   1.000  H
  H153     1.0000 0.03365  0.34645  0.60490  Biso   1.000  H
  H154     1.0000 0.44563  0.97477  0.63284  Biso   1.000  H
  H155     1.0000 0.17259  0.06562  0.98365  Biso   1.000  H
  H156     1.0000 0.52746  0.35439  0.91242  Biso   1.000  H
  H157     1.0000 0.44403  0.48574  0.14073  Biso   1.000  H
  H158     1.0000 0.17396  0.39557  0.51781  Biso   1.000  H
  H159     1.0000 0.52710  0.11009  0.41342  Biso   1.000  H
  H160     1.0000 0.94383  0.47818  0.36679  Biso   1.000  H
  H161     1.0000 0.67242  0.39306  0.99464  Biso   1.000  H
  H162     1.0000 0.05395  0.10956  0.09976  Biso   1.000  H
  H163     1.0000 0.12503  0.96762  0.12823  Biso   1.000  H
  H164     1.0000 0.39928  0.88936  0.49571  Biso   1.000  H
  H165     1.0000 0.02291  0.60655  0.39569  Biso   1.000  H
  H166     1.0000 0.62447  0.97236  0.37474  Biso   1.000  H
  H167     1.0000 0.90461  0.89495  0.98739  Biso   1.000  H
  H168     1.0000 0.53300  0.60841  0.09417  Biso   1.000  H
  H169     1.0000 0.05199  0.08384  0.87868  Biso   1.000  H
  H170     1.0000 0.90509  0.97713  0.09297  Biso   1.000  H
  H171     1.0000 0.11769  0.84361  0.99255  Biso   1.000  H
  H172     1.0000 0.51850  0.07021  0.63736  Biso   1.000  H
  H173     1.0000 0.40628  0.98440  0.40317  Biso   1.000  H
  H174     1.0000 0.62521  0.84246  0.50256  Biso   1.000  H
  H175     1.0000 0.53803  0.57748  0.87196  Biso   1.000  H
  H176     1.0000 0.67169  0.48143  0.09304  Biso   1.000  H
  H177     1.0000 0.45094  0.35148  0.00146  Biso   1.000  H
  H178     1.0000 0.04008  0.57423  0.62474  Biso   1.000  H
  H179     1.0000 0.16620  0.47179  0.41100  Biso   1.000  H
  H180     1.0000 0.95249  0.34518  0.51145  Biso   1.000  H
  H181     1.0000 0.03843  0.87633  0.12598  Biso   1.000  H
  H182     1.0000 0.15747  0.95429  0.90294  Biso   1.000  H
  H183     1.0000 0.95324  0.12266  0.02141  Biso   1.000  H
  H184     1.0000 0.53072  0.88055  0.37161  Biso   1.000  H
  H185     1.0000 0.66782  0.97275  0.59279  Biso   1.000  H
  H186     1.0000 0.45295  0.10967  0.48810  Biso   1.000  H
  H187     1.0000 0.53474  0.38348  0.13792  Biso   1.000  H
  H188     1.0000 0.40309  0.48031  0.91577  Biso   1.000  H
  H189     1.0000 0.62181  0.61674  0.00269  Biso   1.000  H
  H190     1.0000 0.04305  0.37713  0.38184  Biso   1.000  H
  H191     1.0000 0.90180  0.48266  0.58926  Biso   1.000  H
  H192     1.0000 0.12487  0.61223  0.49107  Biso   1.000  H
  H193     1.0000 0.30252  0.83859  0.48507  Biso   1.000  H
  H194     1.0000 0.53684  0.25483  0.86093  Biso   1.000  H
  H195     1.0000 0.89092  0.46989  0.27139  Biso   1.000  H
  H196     1.0000 0.80250  0.84661  0.99053  Biso   1.000  H
  H197     1.0000 0.03956  0.25587  0.66537  Biso   1.000  H
  H198     1.0000 0.39916  0.45790  0.23743  Biso   1.000  H
  H199     1.0000 0.27178  0.34203  0.51193  Biso   1.000  H
  H200     1.0000 0.02596  0.75959  0.83538  Biso   1.000  H
  H201     1.0000 0.67613  0.97463  0.27680  Biso   1.000  H
  H202     1.0000 0.76933  0.34104  0.01159  Biso   1.000  H
  H203     1.0000 0.53038  0.75208  0.64712  Biso   1.000  H
  H204     1.0000 0.17935  0.97189  0.22515  Biso   1.000  H
  H205     1.0000 0.77435  0.11388  0.49469  Biso   1.000  H
  H206     1.0000 0.53777  0.70363  0.14915  Biso   1.000  H
  H207     1.0000 0.18247  0.49881  0.73551  Biso   1.000  H
  H208     1.0000 0.26976  0.11519  0.96459  Biso   1.000  H
  H209     1.0000 0.04763  0.70013  0.34043  Biso   1.000  H
  H210     1.0000 0.68135  0.48885  0.77444  Biso   1.000  H
  H211     1.0000 0.80145  0.62226  0.49413  Biso   1.000  H
  H212     1.0000 0.04834  0.20223  0.16454  Biso   1.000  H
  H213     1.0000 0.38279  0.97669  0.72700  Biso   1.000  H
  H214     1.0000 0.29661  0.61772  0.00068  Biso   1.000  H
  H215     1.0000 0.54663  0.20418  0.35800  Biso   1.000  H
  H216     1.0000 0.89300  0.00041  0.76987  Biso   1.000  H
  H217     1.0000 0.26388  0.44432  0.36539  Biso   1.000  H
  H218     1.0000 0.40395  0.21040  0.49616  Biso   1.000  H
  H219     1.0000 0.54243  0.32653  0.23204  Biso   1.000  H
  H220     1.0000 0.77111  0.47410  0.13891  Biso   1.000  H
  H221     1.0000 0.90369  0.21874  0.01197  Biso   1.000  H
  H222     1.0000 0.02728  0.31838  0.29036  Biso   1.000  H
  H223     1.0000 0.30624  0.98895  0.35250  Biso   1.000  H
  H224     1.0000 0.17272  0.71087  0.48457  Biso   1.000  H
  H225     1.0000 0.02819  0.82049  0.21991  Biso   1.000  H
  H226     1.0000 0.80850  0.99865  0.13954  Biso   1.000  H
  H227     1.0000 0.67127  0.71866  0.00430  Biso   1.000  H
  H228     1.0000 0.56071  0.83308  0.27550  Biso   1.000  H
  H229     1.0000 0.80563  0.48064  0.64382  Biso   1.000  H
  H230     1.0000 0.67588  0.74476  0.51493  Biso   1.000  H
  H231     1.0000 0.54556  0.63628  0.77642  Biso   1.000  H
  H232     1.0000 0.30529  0.48575  0.86660  Biso   1.000  H
  H233     1.0000 0.17294  0.74871  0.97920  Biso   1.000  H
  H234     1.0000 0.04649  0.63865  0.71393  Biso   1.000  H
  H235     1.0000 0.76092  0.97250  0.64855  Biso   1.000  H
  H236     1.0000 0.90000  0.24666  0.51693  Biso   1.000  H
  H237     1.0000 0.01987  0.13746  0.78944  Biso   1.000  H
  H238     1.0000 0.26052  0.94914  0.85777  Biso   1.000  H
  H239     1.0000 0.40153  0.24883  0.00764  Biso   1.000  H
  H240     1.0000 0.52130  0.12585  0.73440  Biso   1.000  H
  H241     1.0000 0.76587  0.48569  0.85588  Biso   1.000  H
  H242     1.0000 0.88523  0.70936  0.48959  Biso   1.000  H
  H243     1.0000 0.54867  0.83727  0.73190  Biso   1.000  H
  H244     1.0000 0.26925  0.50195  0.64773  Biso   1.000  H
  H245     1.0000 0.38384  0.70650  0.00432  Biso   1.000  H
  H246     1.0000 0.03210  0.85114  0.75648  Biso   1.000  H
  H247     1.0000 0.80388  0.99437  0.85823  Biso   1.000  H
  H248     1.0000 0.68911  0.20894  0.49990  Biso   1.000  H
  H249     1.0000 0.03112  0.35150  0.74470  Biso   1.000  H
  H250     1.0000 0.30238  0.97149  0.63755  Biso   1.000  H
  H251     1.0000 0.19281  0.20663  0.99576  Biso   1.000  H
  H252     1.0000 0.51659  0.34204  0.77668  Biso   1.000  H
  H253     1.0000 0.30856  0.46127  0.15512  Biso   1.000  H
  H254     1.0000 0.19280  0.25671  0.51272  Biso   1.000  H
  H255     1.0000 0.54515  0.11948  0.27004  Biso   1.000  H
  H256     1.0000 0.80589  0.48859  0.35417  Biso   1.000  H
  H257     1.0000 0.68453  0.25372  0.98685  Biso   1.000  H
  H258     1.0000 0.04063  0.10378  0.23830  Biso   1.000  H
  H259     1.0000 0.26550  0.98684  0.14358  Biso   1.000  H
  H260     1.0000 0.38672  0.75366  0.50471  Biso   1.000  H
  H261     1.0000 0.04550  0.60652  0.25941  Biso   1.000  H
  H262     1.0000 0.76438  0.97002  0.36057  Biso   1.000  H
  H263     1.0000 0.88578  0.75803  0.99221  Biso   1.000  H
  H264     1.0000 0.54792  0.61711  0.23179  Biso   1.000  H
  H265     1.0000 0.03806  0.22190  0.87426  Biso   1.000  H
  H266     1.0000 0.88735  0.97801  0.23315  Biso   1.000  H
  H267     1.0000 0.25541  0.83231  0.00961  Biso   1.000  H
  H268     1.0000 0.52965  0.21161  0.64425  Biso   1.000  H
  H269     1.0000 0.39302  0.97796  0.26540  Biso   1.000  H
  H270     1.0000 0.76390  0.82503  0.49785  Biso   1.000  H
  H271     1.0000 0.53925  0.71668  0.86277  Biso   1.000  H
  H272     1.0000 0.68686  0.46949  0.22758  Biso   1.000  H
  H273     1.0000 0.31382  0.32938  0.99346  Biso   1.000  H
  H274     1.0000 0.01860  0.71349  0.63021  Biso   1.000  H
  H275     1.0000 0.17910  0.43316  0.27775  Biso   1.000  H
  H276     1.0000 0.81037  0.33018  0.49932  Biso   1.000  H
  H277     1.0000 0.03411  0.73978  0.12438  Biso   1.000  H
  H278     1.0000 0.17965  0.97618  0.76841  Biso   1.000  H
  H279     1.0000 0.81454  0.13513  0.00939  Biso   1.000  H
  H280     1.0000 0.54450  0.74262  0.35730  Biso   1.000  H
  H281     1.0000 0.67421  0.99519  0.73271  Biso   1.000  H
  H282     1.0000 0.31009  0.12831  0.49406  Biso   1.000  H
  H283     1.0000 0.56028  0.24723  0.14433  Biso   1.000  H
  H284     1.0000 0.38881  0.48825  0.78240  Biso   1.000  H
  H285     1.0000 0.76134  0.63095  0.01123  Biso   1.000  H
  H286     1.0000 0.04327  0.23605  0.37800  Biso   1.000  H
  H287     1.0000 0.89433  0.50880  0.72928  Biso   1.000  H
  H288     1.0000 0.25861  0.62956  0.47626  Biso   1.000  H
  H289     1.0000 0.14193  0.21099  0.00702  Biso   1.000  H
  H290     1.0000 0.04054  0.04978  0.23170  Biso   1.000  H
  H291     1.0000 0.26676  0.99805  0.08810  Biso   1.000  H
  H292     1.0000 0.63910  0.20887  0.50562  Biso   1.000  H
  H293     1.0000 0.54629  0.06234  0.27214  Biso   1.000  H
  H294     1.0000 0.76551  0.96959  0.41297  Biso   1.000  H
  H295     1.0000 0.43769  0.70815  0.00756  Biso   1.000  H
  H296     1.0000 0.54018  0.56494  0.23127  Biso   1.000  H
  H297     1.0000 0.30702  0.47328  0.10484  Biso   1.000  H
  H298     1.0000 0.94208  0.71100  0.48168  Biso   1.000  H
  H299     1.0000 0.04739  0.55127  0.26467  Biso   1.000  H
  H300     1.0000 0.80498  0.48177  0.40461  Biso   1.000  H
  H301     1.0000 0.93723  0.75742  0.98173  Biso   1.000  H
  H302     1.0000 0.03451  0.90751  0.76282  Biso   1.000  H
  H303     1.0000 0.80792  0.99232  0.91141  Biso   1.000  H
  H304     1.0000 0.43704  0.75225  0.51018  Biso   1.000  H
  H305     1.0000 0.54791  0.89262  0.73290  Biso   1.000  H
  H306     1.0000 0.30474  0.97717  0.58440  Biso   1.000  H
  H307     1.0000 0.63250  0.25555  0.97972  Biso   1.000  H
  H308     1.0000 0.51698  0.39527  0.77904  Biso   1.000  H
  H309     1.0000 0.76599  0.48300  0.90945  Biso   1.000  H
  H310     1.0000 0.13893  0.25141  0.51626  Biso   1.000  H
  H311     1.0000 0.03667  0.40470  0.73851  Biso   1.000  H
  H312     1.0000 0.26688  0.50037  0.59403  Biso   1.000  H
  H313     1.0000 0.25435  0.94890  0.91052  Biso   1.000  H
  H314     1.0000 0.95836  0.21926  0.01693  Biso   1.000  H
  H315     1.0000 0.03215  0.87446  0.22075  Biso   1.000  H
  H316     1.0000 0.76173  0.96185  0.59722  Biso   1.000  H
  H317     1.0000 0.45524  0.20594  0.50431  Biso   1.000  H
  H318     1.0000 0.54802  0.88369  0.27525  Biso   1.000  H
  H319     1.0000 0.30770  0.47961  0.92196  Biso   1.000  H
  H320     1.0000 0.61793  0.71481  0.00325  Biso   1.000  H
  H321     1.0000 0.53391  0.38041  0.23394  Biso   1.000  H
  H322     1.0000 0.80879  0.46770  0.59349  Biso   1.000  H
  H323     1.0000 0.12057  0.70905  0.49110  Biso   1.000  H
  H324     1.0000 0.02766  0.37345  0.28783  Biso   1.000  H
  H325     1.0000 0.81152  0.99920  0.08919  Biso   1.000  H
  H326     1.0000 0.11998  0.74775  0.97205  Biso   1.000  H
  H327     1.0000 0.02002  0.08747  0.78583  Biso   1.000  H
  H328     1.0000 0.30800  0.97983  0.40517  Biso   1.000  H
  H329     1.0000 0.61863  0.74804  0.51438  Biso   1.000  H
  H330     1.0000 0.52560  0.07222  0.73204  Biso   1.000  H
  H331     1.0000 0.76822  0.47458  0.08460  Biso   1.000  H
  H332     1.0000 0.45414  0.25737  0.01836  Biso   1.000  H
  H333     1.0000 0.54197  0.57948  0.77600  Biso   1.000  H
  H334     1.0000 0.26162  0.45430  0.41929  Biso   1.000  H
  H335     1.0000 0.95536  0.25152  0.51542  Biso   1.000  H
  H336     1.0000 0.05078  0.58409  0.71951  Biso   1.000  H
  H337     1.0000 0.03744  0.21917  0.92867  Biso   1.000  H
  H338     1.0000 0.94408  0.97399  0.23225  Biso   1.000  H
  H339     1.0000 0.25443  0.88388  0.01607  Biso   1.000  H
  H340     1.0000 0.54118  0.20912  0.59185  Biso   1.000  H
  H341     1.0000 0.45067  0.97771  0.26652  Biso   1.000  H
  H342     1.0000 0.76449  0.88256  0.49991  Biso   1.000  H
  H343     1.0000 0.52731  0.71536  0.91684  Biso   1.000  H
  H344     1.0000 0.63091  0.46901  0.22989  Biso   1.000  H
  H345     1.0000 0.30938  0.38251  0.00442  Biso   1.000  H
  H346     1.0000 0.01707  0.71110  0.57719  Biso   1.000  H
  H347     1.0000 0.12413  0.43759  0.28239  Biso   1.000  H
  H348     1.0000 0.80841  0.38045  0.49768  Biso   1.000  H
  H349     1.0000 0.02849  0.74381  0.07078  Biso   1.000  H
  H350     1.0000 0.12658  0.98421  0.76868  Biso   1.000  H
  H351     1.0000 0.81446  0.08225  0.99888  Biso   1.000  H
  H352     1.0000 0.54063  0.74739  0.41171  Biso   1.000  H
  H353     1.0000 0.62229  0.00142  0.73232  Biso   1.000  H
  H354     1.0000 0.31210  0.07451  0.48633  Biso   1.000  H
  H355     1.0000 0.56550  0.25037  0.09060  Biso   1.000  H
  H356     1.0000 0.44289  0.49021  0.78078  Biso   1.000  H
  H357     1.0000 0.76277  0.58006  0.00529  Biso   1.000  H
  H358     1.0000 0.05398  0.24316  0.43134  Biso   1.000  H
  H359     1.0000 0.94995  0.50465  0.72797  Biso   1.000  H
  H360     1.0000 0.26073  0.57491  0.47651  Biso   1.000  H
  H361     1.0000 0.04088  0.70374  0.39562  Biso   1.000  H
  H362     1.0000 0.44299  0.97863  0.72779  Biso   1.000  H
  H363     1.0000 0.76557  0.39419  0.01723  Biso   1.000  H
  H364     1.0000 0.53414  0.70319  0.09671  Biso   1.000  H
  H365     1.0000 0.94904  0.99813  0.77045  Biso   1.000  H
  H366     1.0000 0.27280  0.39513  0.51276  Biso   1.000  H
  H367     1.0000 0.53258  0.20602  0.41250  Biso   1.000  H
  H368     1.0000 0.12481  0.49802  0.73226  Biso   1.000  H
  H369     1.0000 0.80630  0.90235  0.99022  Biso   1.000  H
  H370     1.0000 0.05193  0.20663  0.11156  Biso   1.000  H
  H371     1.0000 0.62598  0.48958  0.77387  Biso   1.000  H
  H372     1.0000 0.30477  0.89247  0.48913  Biso   1.000  H
  H373     1.0000 0.03704  0.25212  0.61256  Biso   1.000  H
  H374     1.0000 0.62707  0.97838  0.27725  Biso   1.000  H
  H375     1.0000 0.29859  0.56776  0.00410  Biso   1.000  H
  H376     1.0000 0.54194  0.25772  0.91373  Biso   1.000  H
  H377     1.0000 0.12638  0.96377  0.22461  Biso   1.000  H
  H378     1.0000 0.80302  0.56956  0.49902  Biso   1.000  H
  H379     1.0000 0.52582  0.75283  0.59287  Biso   1.000  H
  H380     1.0000 0.94552  0.46186  0.27088  Biso   1.000  H
  H381     1.0000 0.26523  0.06293  0.96247  Biso   1.000  H
  H382     1.0000 0.02934  0.75660  0.88603  Biso   1.000  H
  H383     1.0000 0.45068  0.46965  0.23642  Biso   1.000  H
  H384     1.0000 0.76990  0.06047  0.49787  Biso   1.000  H
  H385     1.0000 0.25696  0.41176  0.33497  Biso   1.000  H
  H386     1.0000 0.32813  0.16848  0.45586  Biso   1.000  H
  H387     1.0000 0.50996  0.29285  0.22341  Biso   1.000  H
  H388     1.0000 0.71431  0.49785  0.22465  Biso   1.000  H
  H389     1.0000 0.86725  0.21439  0.04759  Biso   1.000  H
  H390     1.0000 0.01907  0.23756  0.34547  Biso   1.000  H
  H391     1.0000 0.30830  0.95352  0.32271  Biso   1.000  H
  H392     1.0000 0.20364  0.71114  0.45508  Biso   1.000  H
  H393     1.0000 0.00377  0.73516  0.15835  Biso   1.000  H
  H394     1.0000 0.81070  0.95628  0.17359  Biso   1.000  H
  H395     1.0000 0.75501  0.66436  0.04485  Biso   1.000  H
  H396     1.0000 0.58260  0.74656  0.33210  Biso   1.000  H
  H397     1.0000 0.80769  0.51475  0.67249  Biso   1.000  H
  H398     1.0000 0.75216  0.79252  0.53528  Biso   1.000  H
  H399     1.0000 0.58117  0.67007  0.78703  Biso   1.000  H
  H400     1.0000 0.30994  0.51444  0.83557  Biso   1.000  H
  H401     1.0000 0.25721  0.80592  0.97396  Biso   1.000  H
  H402     1.0000 0.06132  0.70944  0.65124  Biso   1.000  H
  H403     1.0000 0.75058  0.94170  0.68729  Biso   1.000  H
  H404     1.0000 0.81637  0.29578  0.53755  Biso   1.000  H
  H405     1.0000 0.00909  0.21725  0.84630  Biso   1.000  H
  H406     1.0000 0.26459  0.98018  0.82831  Biso   1.000  H
  H407     1.0000 0.32248  0.30160  0.95676  Biso   1.000  H
  H408     1.0000 0.48339  0.15948  0.72389  Biso   1.000  H
  H409     1.0000 0.31889  0.42854  0.18031  Biso   1.000  H
  H410     1.0000 0.22107  0.26774  0.47695  Biso   1.000  H
  H411     1.0000 0.51768  0.20102  0.33055  Biso   1.000  H
  H412     1.0000 0.86440  0.43854  0.27735  Biso   1.000  H
  H413     1.0000 0.71078  0.25674  0.02751  Biso   1.000  H
  H414     1.0000 0.02012  0.19459  0.19070  Biso   1.000  H
  H415     1.0000 0.21178  0.94232  0.22069  Biso   1.000  H
  H416     1.0000 0.36220  0.75477  0.46505  Biso   1.000  H
  H417     1.0000 0.01067  0.63695  0.26426  Biso   1.000  H
  H418     1.0000 0.70932  0.94045  0.28151  Biso   1.000  H
  H419     1.0000 0.85951  0.76270  0.02820  Biso   1.000  H
  H420     1.0000 0.52213  0.64907  0.23011  Biso   1.000  H
  H421     1.0000 0.71475  0.52447  0.78411  Biso   1.000  H
  H422     1.0000 0.81378  0.65305  0.52513  Biso   1.000  H
  H423     1.0000 0.56495  0.75246  0.67350  Biso   1.000  H
  H424     1.0000 0.21458  0.52388  0.73354  Biso   1.000  H
  H425     1.0000 0.35180  0.70169  0.96670  Biso   1.000  H
  H426     1.0000 0.05880  0.76383  0.80981  Biso   1.000  H
  H427     1.0000 0.81208  0.03141  0.82332  Biso   1.000  H
  H428     1.0000 0.77341  0.14566  0.52938  Biso   1.000  H
  H429     1.0000 0.05998  0.31881  0.74885  Biso   1.000  H
  H430     1.0000 0.35656  0.93373  0.71297  Biso   1.000  H
  H431     1.0000 0.21542  0.20602  0.95833  Biso   1.000  H
  H432     1.0000 0.49618  0.25802  0.83459  Biso   1.000  H
  H433     1.0000 0.30471  0.00077  0.67220  Biso   1.000  H
  H434     1.0000 0.77384  0.31594  0.98049  Biso   1.000  H
  H435     1.0000 0.07622  0.69494  0.30803  Biso   1.000  H
  H436     1.0000 0.86083  0.96517  0.77673  Biso   1.000  H
  H437     1.0000 0.27022  0.30742  0.54656  Biso   1.000  H
  H438     1.0000 0.58018  0.69975  0.17238  Biso   1.000  H
  H439     1.0000 0.26290  0.46579  0.67477  Biso   1.000  H
  H440     1.0000 0.80325  0.81049  0.96617  Biso   1.000  H
  H441     1.0000 0.57532  0.14843  0.27561  Biso   1.000  H
  H442     1.0000 0.75625  0.45109  0.82288  Biso   1.000  H
  H443     1.0000 0.30274  0.81296  0.50976  Biso   1.000  H
  H444     1.0000 0.07710  0.13538  0.24353  Biso   1.000  H
  H445     1.0000 0.75820  0.00708  0.33002  Biso   1.000  H
  H446     1.0000 0.30372  0.65220  0.03219  Biso   1.000  H
  H447     1.0000 0.00421  0.26246  0.68976  Biso   1.000  H
  H448     1.0000 0.25638  0.01458  0.17402  Biso   1.000  H
  H449     1.0000 0.85310  0.70318  0.45267  Biso   1.000  H
  H450     1.0000 0.54666  0.31176  0.77499  Biso   1.000  H
  H451     1.0000 0.81232  0.51063  0.31902  Biso   1.000  H
  H452     1.0000 0.27829  0.14286  0.99675  Biso   1.000  H
  H453     1.0000 0.51293  0.81403  0.72993  Biso   1.000  H
  H454     1.0000 0.36584  0.47589  0.24510  Biso   1.000  H
  H455     1.0000 0.72027  0.20365  0.47158  Biso   1.000  H
  H456     1.0000 0.00885  0.81773  0.74989  Biso   1.000  H
  H457     1.0000 0.70137  0.74907  0.47103  Biso   1.000  H
  H458     1.0000 0.50482  0.71090  0.82739  Biso   1.000  H
  H459     1.0000 0.86683  0.46527  0.73152  Biso   1.000  H
  H460     1.0000 0.19530  0.74879  0.01620  Biso   1.000  H
  H461     1.0000 0.00566  0.66510  0.71547  Biso   1.000  H
  H462     1.0000 0.36335  0.45198  0.78426  Biso   1.000  H
  H463     1.0000 0.87670  0.25422  0.47572  Biso   1.000  H
  H464     1.0000 0.06032  0.16400  0.78874  Biso   1.000  H
  H465     1.0000 0.71479  0.02765  0.71239  Biso   1.000  H
  H466     1.0000 0.36410  0.25103  0.02858  Biso   1.000  H
  H467     1.0000 0.55857  0.19796  0.68129  Biso   1.000  H
  H468     1.0000 0.20056  0.93674  0.76581  Biso   1.000  H
  H469     1.0000 0.36678  0.19694  0.53517  Biso   1.000  H
  H470     1.0000 0.58301  0.25178  0.17761  Biso   1.000  H
  H471     1.0000 0.20823  0.46908  0.28008  Biso   1.000  H
  H472     1.0000 0.82220  0.16561  0.97717  Biso   1.000  H
  H473     1.0000 0.06345  0.29772  0.28433  Biso   1.000  H
  H474     1.0000 0.76943  0.44310  0.16926  Biso   1.000  H
  H475     1.0000 0.25886  0.65429  0.50701  Biso   1.000  H
  H476     1.0000 0.05925  0.79323  0.21057  Biso   1.000  H
  H477     1.0000 0.36593  0.00706  0.26482  Biso   1.000  H
  H478     1.0000 0.70805  0.70738  0.97499  Biso   1.000  H
  H479     1.0000 0.53334  0.79952  0.27395  Biso   1.000  H
  H480     1.0000 0.85797  0.01597  0.22991  Biso   1.000  H
  N1       1.0000 0.72209  0.15127  0.50192  Biso   1.000  N
  N2       1.0000 0.54811  0.65003  0.18010  Biso   1.000  N
  N3       1.0000 0.21615  0.49572  0.68118  Biso   1.000  N
  N4       1.0000 0.21994  0.15059  0.97978  Biso   1.000  N
  N5       1.0000 0.04213  0.64431  0.31046  Biso   1.000  N
  N6       1.0000 0.71183  0.48591  0.82624  Biso   1.000  N
  N7       1.0000 0.85558  0.65466  0.48821  Biso   1.000  N
  N8       1.0000 0.04938  0.14271  0.18985  Biso   1.000  N
  N9       1.0000 0.35537  0.96875  0.67042  Biso   1.000  N
  N10      1.0000 0.35156  0.65377  0.00028  Biso   1.000  N
  N11      1.0000 0.54429  0.15007  0.32573  Biso   1.000  N
  N12      1.0000 0.85936  0.99606  0.82289  Biso   1.000  N
  N13      1.0000 0.35622  0.80556  0.49071  Biso   1.000  N
  N14      1.0000 0.52557  0.30613  0.82807  Biso   1.000  N
  N15      1.0000 0.86078  0.47885  0.32260  Biso   1.000  N
  N16      1.0000 0.85643  0.81260  0.99487  Biso   1.000  N
  N17      1.0000 0.03327  0.31230  0.69383  Biso   1.000  N
  N18      1.0000 0.36407  0.46205  0.18640  Biso   1.000  N
  N19      1.0000 0.22034  0.31077  0.51533  Biso   1.000  N
  N20      1.0000 0.02921  0.81456  0.80512  Biso   1.000  N
  N21      1.0000 0.71146  0.97442  0.32978  Biso   1.000  N
  N22      1.0000 0.71601  0.30847  0.00158  Biso   1.000  N
  N23      1.0000 0.53942  0.80683  0.67810  Biso   1.000  N
  N24      1.0000 0.21198  0.97691  0.17111  Biso   1.000  N
  N25      1.0000 0.86097  0.49216  0.67776  Biso   1.000  N
  N26      1.0000 0.70872  0.79605  0.50509  Biso   1.000  N
  N27      1.0000 0.54424  0.66429  0.82993  Biso   1.000  N
  N28      1.0000 0.35811  0.48179  0.83357  Biso   1.000  N
  N29      1.0000 0.20336  0.80118  0.99230  Biso   1.000  N
  N30      1.0000 0.03337  0.66402  0.66189  Biso   1.000  N
  N31      1.0000 0.70694  0.98269  0.67963  Biso   1.000  N
  N32      1.0000 0.86647  0.29891  0.50714  Biso   1.000  N
  N33      1.0000 0.03220  0.16709  0.84076  Biso   1.000  N
  N34      1.0000 0.20931  0.95995  0.82181  Biso   1.000  N
  N35      1.0000 0.36636  0.30269  0.99608  Biso   1.000  N
  N36      1.0000 0.52014  0.15840  0.67807  Biso   1.000  N
  N37      1.0000 0.21251  0.44521  0.33075  Biso   1.000  N
  N38      1.0000 0.36737  0.15957  0.49355  Biso   1.000  N
  N39      1.0000 0.54747  0.29789  0.17846  Biso   1.000  N
  N40      1.0000 0.71756  0.46992  0.17289  Biso   1.000  N
  N41      1.0000 0.86898  0.16675  0.01161  Biso   1.000  N
  N42      1.0000 0.03860  0.28934  0.34118  Biso   1.000  N
  N43      1.0000 0.36062  0.98414  0.31894  Biso   1.000  N
  N44      1.0000 0.20758  0.65949  0.48201  Biso   1.000  N
  N45      1.0000 0.02902  0.78940  0.16408  Biso   1.000  N
  N46      1.0000 0.85863  0.98625  0.17852  Biso   1.000  N
  N47      1.0000 0.70637  0.66378  0.00835  Biso   1.000  N
  N48      1.0000 0.55214  0.79798  0.32666  Biso   1.000  N
  O1       1.0000 0.37245  0.52185  0.01442  Biso   1.000  O
  O2       1.0000 0.03768  0.32208  0.55807  Biso   1.000  O
  O3       1.0000 0.57649  0.97197  0.35106  Biso   1.000  O
  O4       1.0000 0.87679  0.52084  0.49654  Biso   1.000  O
  O5       1.0000 0.53536  0.32777  0.96502  Biso   1.000  O
  O6       1.0000 0.07797  0.96763  0.15189  Biso   1.000  O
  O7       1.0000 0.19271  0.01766  0.98789  Biso   1.000  O
  O8       1.0000 0.53620  0.82445  0.54564  Biso   1.000  O
  O9       1.0000 0.99091  0.47073  0.34791  Biso   1.000  O
  O10      1.0000 0.69580  0.01615  0.50631  Biso   1.000  O
  O11      1.0000 0.03177  0.82422  0.94206  Biso   1.000  O
  O12      1.0000 0.49525  0.47550  0.16198  Biso   1.000  O
  O13      1.0000 0.69271  0.44082  0.01073  Biso   1.000  O
  O14      1.0000 0.03827  0.63337  0.44560  Biso   1.000  O
  O15      1.0000 0.49440  0.97275  0.65635  Biso   1.000  O
  O16      1.0000 0.19734  0.44404  0.51443  Biso   1.000  O
  O17      1.0000 0.53272  0.63543  0.04321  Biso   1.000  O
  O18      1.0000 0.99220  0.98610  0.84438  Biso   1.000  O
  O19      1.0000 0.88353  0.94555  0.99643  Biso   1.000  O
  O20      1.0000 0.54031  0.13446  0.45961  Biso   1.000  O
  O21      1.0000 0.08071  0.49046  0.66180  Biso   1.000  O
  O22      1.0000 0.37571  0.93970  0.49678  Biso   1.000  O
  O23      1.0000 0.04735  0.13765  0.05345  Biso   1.000  O
  O24      1.0000 0.57622  0.48389  0.84706  Biso   1.000  O
  O25      1.0000 0.99244  0.97388  0.15737  Biso   1.000  O
  O26      1.0000 0.18545  0.93626  0.00480  Biso   1.000  O
  O27      1.0000 0.03838  0.14513  0.97275  Biso   1.000  O
  O28      1.0000 0.49043  0.97472  0.33958  Biso   1.000  O
  O29      1.0000 0.69546  0.93230  0.50213  Biso   1.000  O
  O30      1.0000 0.54476  0.13536  0.54409  Biso   1.000  O
  O31      1.0000 0.57926  0.46970  0.15900  Biso   1.000  O
  O32      1.0000 0.38073  0.43621  0.00625  Biso   1.000  O
  O33      1.0000 0.52816  0.64128  0.96268  Biso   1.000  O
  O34      1.0000 0.07751  0.46832  0.34695  Biso   1.000  O
  O35      1.0000 0.87830  0.43664  0.49972  Biso   1.000  O
  O36      1.0000 0.02435  0.63515  0.52699  Biso   1.000  O
  O37      1.0000 0.07615  0.98175  0.84166  Biso   1.000  O
  O38      1.0000 0.88629  0.03231  0.99773  Biso   1.000  O
  O39      1.0000 0.02590  0.82333  0.02714  Biso   1.000  O
  O40      1.0000 0.57490  0.99560  0.65973  Biso   1.000  O
  O41      1.0000 0.38453  0.02356  0.49120  Biso   1.000  O
  O42      1.0000 0.53099  0.82052  0.46174  Biso   1.000  O
  O43      1.0000 0.49220  0.48879  0.85358  Biso   1.000  O
  O44      1.0000 0.69070  0.52734  0.00103  Biso   1.000  O
  O45      1.0000 0.55024  0.32154  0.04500  Biso   1.000  O
  O46      1.0000 0.99627  0.48902  0.65353  Biso   1.000  O
  O47      1.0000 0.19395  0.52281  0.49666  Biso   1.000  O
  O48      1.0000 0.04484  0.31873  0.47413  Biso   1.000  O
  O49      1.0000 0.03193  0.92638  0.15103  Biso   1.000  O
  O50      1.0000 0.18487  0.97022  0.95517  Biso   1.000  O
  O51      1.0000 0.00392  0.14564  0.01585  Biso   1.000  O
  O52      1.0000 0.53217  0.93283  0.34585  Biso   1.000  O
  O53      1.0000 0.69612  0.97402  0.54498  Biso   1.000  O
  O54      1.0000 0.49970  0.13117  0.50254  Biso   1.000  O
  O55      1.0000 0.53047  0.43095  0.16313  Biso   1.000  O
  O56      1.0000 0.38064  0.48557  0.96912  Biso   1.000  O
  O57      1.0000 0.57167  0.64153  0.00286  Biso   1.000  O
  O58      1.0000 0.03808  0.42845  0.35301  Biso   1.000  O
  O59      1.0000 0.87894  0.47714  0.54151  Biso   1.000  O
  O60      1.0000 0.07253  0.63692  0.49075  Biso   1.000  O
  O61      1.0000 0.03815  0.02815  0.85163  Biso   1.000  O
  O62      1.0000 0.88550  0.98459  0.04066  Biso   1.000  O
  O63      1.0000 0.07095  0.82007  0.98625  Biso   1.000  O
  O64      1.0000 0.52646  0.02292  0.65941  Biso   1.000  O
  O65      1.0000 0.38177  0.98438  0.45263  Biso   1.000  O
  O66      1.0000 0.57227  0.81937  0.50411  Biso   1.000  O
  O67      1.0000 0.53876  0.52981  0.84871  Biso   1.000  O
  O68      1.0000 0.69297  0.48723  0.04275  Biso   1.000  O
  O69      1.0000 0.49950  0.32649  0.01465  Biso   1.000  O
  O70      1.0000 0.04594  0.52871  0.65176  Biso   1.000  O
  O71      1.0000 0.19224  0.47303  0.46414  Biso   1.000  O
  O72      1.0000 0.00079  0.32237  0.51351  Biso   1.000  O
  O73      1.0000 0.03824  0.44288  0.66211  Biso   1.000  O
  O74      1.0000 0.69405  0.97534  0.46425  Biso   1.000  O
  O75      1.0000 0.48793  0.63995  0.00589  Biso   1.000  O
  O76      1.0000 0.53108  0.44642  0.84915  Biso   1.000  O
  O77      1.0000 0.19283  0.98684  0.03783  Biso   1.000  O
  O78      1.0000 0.98999  0.63711  0.47865  Biso   1.000  O
  O79      1.0000 0.54363  0.94099  0.65961  Biso   1.000  O
  O80      1.0000 0.87862  0.47749  0.45663  Biso   1.000  O
  O81      1.0000 0.08636  0.14083  0.00559  Biso   1.000  O
  O82      1.0000 0.03146  0.94525  0.83916  Biso   1.000  O
  O83      1.0000 0.37768  0.47998  0.05356  Biso   1.000  O
  O84      1.0000 0.58790  0.13812  0.49938  Biso   1.000  O
  O85      1.0000 0.03517  0.51035  0.33508  Biso   1.000  O
  O86      1.0000 0.37816  0.98170  0.53721  Biso   1.000  O
  O87      1.0000 0.58120  0.32562  0.99686  Biso   1.000  O
  O88      1.0000 0.53861  0.51327  0.15518  Biso   1.000  O
  O89      1.0000 0.88148  0.98630  0.95676  Biso   1.000  O
  O90      1.0000 0.08400  0.32178  0.52031  Biso   1.000  O
  O91      1.0000 0.53443  0.01515  0.34244  Biso   1.000  O
  O92      1.0000 0.19351  0.49020  0.54786  Biso   1.000  O
  O93      1.0000 0.98920  0.82868  0.98259  Biso   1.000  O
  O94      1.0000 0.03709  0.00996  0.15552  Biso   1.000  O
  O95      1.0000 0.69226  0.48078  0.95856  Biso   1.000  O
  O96      1.0000 0.49022  0.82529  0.51121  Biso   1.000  O
  O97      1.0000 0.50196  0.17975  0.50518  Biso   1.000  O
  O98      1.0000 0.53639  0.43216  0.21139  Biso   1.000  O
  O99      1.0000 0.24016  0.48015  0.46018  Biso   1.000  O
  O100     1.0000 0.00438  0.19369  0.02361  Biso   1.000  O
  O101     1.0000 0.03602  0.42227  0.30534  Biso   1.000  O
  O102     1.0000 0.74272  0.48498  0.04051  Biso   1.000  O
  O103     1.0000 0.07216  0.68436  0.48911  Biso   1.000  O
  O104     1.0000 0.03639  0.92380  0.20006  Biso   1.000  O
  O105     1.0000 0.33294  0.98198  0.45254  Biso   1.000  O
  O106     1.0000 0.57071  0.68919  0.01112  Biso   1.000  O
  O107     1.0000 0.53346  0.93317  0.29709  Biso   1.000  O
  O108     1.0000 0.83645  0.99143  0.04068  Biso   1.000  O
  O109     1.0000 0.57289  0.77214  0.49958  Biso   1.000  O
  O110     1.0000 0.53327  0.52985  0.80170  Biso   1.000  O
  O111     1.0000 0.82923  0.47421  0.54370  Biso   1.000  O
  O112     1.0000 0.06855  0.77255  0.98346  Biso   1.000  O
  O113     1.0000 0.03785  0.53399  0.69882  Biso   1.000  O
  O114     1.0000 0.33218  0.47408  0.97101  Biso   1.000  O
  O115     1.0000 0.00333  0.27443  0.51912  Biso   1.000  O
  O116     1.0000 0.03745  0.03537  0.80302  Biso   1.000  O
  O117     1.0000 0.74421  0.96759  0.54748  Biso   1.000  O
  O118     1.0000 0.49978  0.27867  0.00515  Biso   1.000  O
  O119     1.0000 0.52839  0.02495  0.70865  Biso   1.000  O
  O120     1.0000 0.23229  0.95901  0.95636  Biso   1.000  O
  O121     1.0000 0.07750  0.49098  0.71070  Biso   1.000  O
  O122     1.0000 0.74462  0.01432  0.50933  Biso   1.000  O
  O123     1.0000 0.52926  0.68332  0.04843  Biso   1.000  O
  O124     1.0000 0.57574  0.48874  0.79894  Biso   1.000  O
  O125     1.0000 0.24105  0.01358  0.98360  Biso   1.000  O
  O126     1.0000 0.03460  0.68229  0.44508  Biso   1.000  O
  O127     1.0000 0.49235  0.97276  0.70390  Biso   1.000  O
  O128     1.0000 0.82859  0.51758  0.49966  Biso   1.000  O
  O129     1.0000 0.05273  0.18523  0.05851  Biso   1.000  O
  O130     1.0000 0.99561  0.99461  0.79802  Biso   1.000  O
  O131     1.0000 0.32544  0.51902  0.01317  Biso   1.000  O
  O132     1.0000 0.53751  0.18373  0.45994  Biso   1.000  O
  O133     1.0000 0.99353  0.46339  0.29819  Biso   1.000  O
  O134     1.0000 0.32689  0.94134  0.49224  Biso   1.000  O
  O135     1.0000 0.53785  0.27876  0.96159  Biso   1.000  O
  O136     1.0000 0.49711  0.47909  0.20976  Biso   1.000  O
  O137     1.0000 0.83488  0.94994  0.99497  Biso   1.000  O
  O138     1.0000 0.04395  0.27371  0.56105  Biso   1.000  O
  O139     1.0000 0.57728  0.97274  0.30301  Biso   1.000  O
  O140     1.0000 0.24670  0.44503  0.51235  Biso   1.000  O
  O141     1.0000 0.02842  0.77555  0.93879  Biso   1.000  O
  O142     1.0000 0.07726  0.96491  0.19998  Biso   1.000  O
  O143     1.0000 0.74019  0.44694  0.99898  Biso   1.000  O
  O144     1.0000 0.53520  0.77580  0.54583  Biso   1.000  O
  O145     1.0000 0.58176  0.47055  0.20709  Biso   1.000  O
  O146     1.0000 0.24166  0.52913  0.49843  Biso   1.000  O
  O147     1.0000 0.54422  0.18436  0.54485  Biso   1.000  O
  O148     1.0000 0.07992  0.46372  0.29816  Biso   1.000  O
  O149     1.0000 0.74022  0.53007  0.00126  Biso   1.000  O
  O150     1.0000 0.04288  0.19404  0.97706  Biso   1.000  O
  O151     1.0000 0.99463  0.96833  0.20611  Biso   1.000  O
  O152     1.0000 0.33530  0.02501  0.49196  Biso   1.000  O
  O153     1.0000 0.02186  0.68446  0.52684  Biso   1.000  O
  O154     1.0000 0.49508  0.97845  0.29032  Biso   1.000  O
  O155     1.0000 0.83701  0.03317  0.99774  Biso   1.000  O
  O156     1.0000 0.53161  0.68951  0.96662  Biso   1.000  O
  O157     1.0000 0.49358  0.48581  0.80459  Biso   1.000  O
  O158     1.0000 0.82899  0.43227  0.49933  Biso   1.000  O
  O159     1.0000 0.52698  0.77011  0.45840  Biso   1.000  O
  O160     1.0000 0.99385  0.49309  0.70305  Biso   1.000  O
  O161     1.0000 0.33162  0.43321  0.01078  Biso   1.000  O
  O162     1.0000 0.02483  0.77470  0.02375  Biso   1.000  O
  O163     1.0000 0.07668  0.98834  0.79231  Biso   1.000  O
  O164     1.0000 0.74347  0.93186  0.50041  Biso   1.000  O
  O165     1.0000 0.04456  0.26999  0.47724  Biso   1.000  O
  O166     1.0000 0.57363  0.99108  0.70842  Biso   1.000  O
  O167     1.0000 0.23418  0.93409  0.00708  Biso   1.000  O
  O168     1.0000 0.54629  0.27305  0.04236  Biso   1.000  O
  O169     1.0000 0.04220  0.00740  0.20302  Biso   1.000  O
  O170     1.0000 0.24291  0.98429  0.03657  Biso   1.000  O
  O171     1.0000 0.09008  0.19040  0.00894  Biso   1.000  O
  O172     1.0000 0.53947  0.01640  0.29550  Biso   1.000  O
  O173     1.0000 0.74253  0.97318  0.46339  Biso   1.000  O
  O174     1.0000 0.58584  0.18610  0.49955  Biso   1.000  O
  O175     1.0000 0.54377  0.51522  0.20332  Biso   1.000  O
  O176     1.0000 0.33025  0.47313  0.05379  Biso   1.000  O
  O177     1.0000 0.48855  0.68629  0.00856  Biso   1.000  O
  O178     1.0000 0.03970  0.50480  0.28720  Biso   1.000  O
  O179     1.0000 0.83049  0.48121  0.45688  Biso   1.000  O
  O180     1.0000 0.98927  0.68487  0.48063  Biso   1.000  O
  O181     1.0000 0.03055  0.95175  0.79177  Biso   1.000  O
  O182     1.0000 0.83335  0.99065  0.95883  Biso   1.000  O
  O183     1.0000 0.98594  0.77972  0.97865  Biso   1.000  O
  O184     1.0000 0.53866  0.94077  0.70832  Biso   1.000  O
  O185     1.0000 0.32976  0.98843  0.53571  Biso   1.000  O
  O186     1.0000 0.48954  0.77634  0.50880  Biso   1.000  O
  O187     1.0000 0.53295  0.44321  0.80043  Biso   1.000  O
  O188     1.0000 0.73973  0.48865  0.95881  Biso   1.000  O
  O189     1.0000 0.58431  0.27686  0.99973  Biso   1.000  O
  O190     1.0000 0.03138  0.45030  0.70912  Biso   1.000  O
  O191     1.0000 0.24196  0.49441  0.54436  Biso   1.000  O
  O192     1.0000 0.08725  0.27346  0.51740  Biso   1.000  O
