data_image0
_cell_length_a       47.5661
_cell_length_b       47.0649
_cell_length_c       46.468
_cell_angle_alpha    90
_cell_angle_beta     90
_cell_angle_gamma    90

_symmetry_space_group_name_H-M    "P 1"
_symmetry_int_tables_number       1

loop_
  _symmetry_equiv_pos_as_xyz
  'x, y, z'

loop_
  _atom_site_label
  _atom_site_occupancy
  _atom_site_fract_x
  _atom_site_fract_y
  _atom_site_fract_z
  _atom_site_thermal_displace_type
  _atom_site_B_iso_or_equiv
  _atom_site_type_symbol
  C1       1.0000 0.56499  0.95190  0.34097  Biso   1.000  C
  C2       1.0000 0.33249  0.50429  0.02483  Biso   1.000  C
  C3       1.0000 0.00680  0.27781  0.58684  Biso   1.000  C
  C4       1.0000 0.06498  0.95097  0.20652  Biso   1.000  C
  C5       1.0000 0.83024  0.50204  0.52636  Biso   1.000  C
  C6       1.0000 0.50766  0.26684  0.97021  Biso   1.000  C
  C7       1.0000 0.95788  0.45012  0.34827  Biso   1.000  C
  C8       1.0000 0.19513  0.99954  0.02589  Biso   1.000  C
  C9       1.0000 0.50270  0.77065  0.58044  Biso   1.000  C
  C10      1.0000 0.45958  0.44334  0.20498  Biso   1.000  C
  C11      1.0000 0.69276  0.00043  0.51722  Biso   1.000  C
  C12      1.0000 0.01285  0.77499  0.96630  Biso   1.000  C
  C13      1.0000 0.46006  0.95540  0.70802  Biso   1.000  C
  C14      1.0000 0.69333  0.39488  0.03276  Biso   1.000  C
  C15      1.0000 0.00652  0.62838  0.46494  Biso   1.000  C
  C16      1.0000 0.95922  0.95356  0.83955  Biso   1.000  C
  C17      1.0000 0.18937  0.40537  0.51182  Biso   1.000  C
  C18      1.0000 0.52165  0.63471  0.08205  Biso   1.000  C
  C19      1.0000 0.06825  0.45989  0.70122  Biso   1.000  C
  C20      1.0000 0.83281  0.89914  0.02020  Biso   1.000  C
  C21      1.0000 0.51462  0.13569  0.47280  Biso   1.000  C
  C22      1.0000 0.56845  0.44556  0.84986  Biso   1.000  C
  C23      1.0000 0.32390  0.90289  0.52295  Biso   1.000  C
  C24      1.0000 0.01290  0.13173  0.08041  Biso   1.000  C
  C25      1.0000 0.32617  0.00833  0.53306  Biso   1.000  C
  C26      1.0000 0.52478  0.27257  0.07647  Biso   1.000  C
  C27      1.0000 0.06532  0.44533  0.34405  Biso   1.000  C
  C28      1.0000 0.83868  0.00492  0.01735  Biso   1.000  C
  C29      1.0000 0.01709  0.27657  0.47629  Biso   1.000  C
  C30      1.0000 0.56708  0.46077  0.21423  Biso   1.000  C
  C31      1.0000 0.19343  0.51248  0.53059  Biso   1.000  C
  C32      1.0000 0.00282  0.77012  0.07505  Biso   1.000  C
  C33      1.0000 0.45403  0.95489  0.34791  Biso   1.000  C
  C34      1.0000 0.70235  0.50377  0.03606  Biso   1.000  C
  C35      1.0000 0.50302  0.77509  0.47205  Biso   1.000  C
  C36      1.0000 0.95620  0.95968  0.20269  Biso   1.000  C
  C37      1.0000 0.69111  0.89169  0.52207  Biso   1.000  C
  C38      1.0000 0.50654  0.62749  0.97590  Biso   1.000  C
  C39      1.0000 0.95917  0.45329  0.70737  Biso   1.000  C
  C40      1.0000 0.19136  0.89449  0.02685  Biso   1.000  C
  C41      1.0000 0.01776  0.63417  0.57266  Biso   1.000  C
  C42      1.0000 0.45757  0.44220  0.84747  Biso   1.000  C
  C43      1.0000 0.82861  0.39525  0.53278  Biso   1.000  C
  C44      1.0000 0.02647  0.12940  0.97127  Biso   1.000  C
  C45      1.0000 0.56602  0.93681  0.70548  Biso   1.000  C
  C46      1.0000 0.33387  0.39753  0.02243  Biso   1.000  C
  C47      1.0000 0.50511  0.12497  0.58057  Biso   1.000  C
  C48      1.0000 0.06878  0.95903  0.84352  Biso   1.000  C
  C49      1.0000 0.01322  0.00816  0.84281  Biso   1.000  C
  C50      1.0000 0.83561  0.94760  0.07271  Biso   1.000  C
  C51      1.0000 0.06397  0.77551  0.02260  Biso   1.000  C
  C52      1.0000 0.51875  0.99624  0.70720  Biso   1.000  C
  C53      1.0000 0.32620  0.95909  0.47474  Biso   1.000  C
  C54      1.0000 0.55989  0.77206  0.52789  Biso   1.000  C
  C55      1.0000 0.51104  0.49768  0.84922  Biso   1.000  C
  C56      1.0000 0.69402  0.44706  0.09052  Biso   1.000  C
  C57      1.0000 0.46100  0.27248  0.03212  Biso   1.000  C
  C58      1.0000 0.01401  0.51249  0.70148  Biso   1.000  C
  C59      1.0000 0.19086  0.46959  0.46968  Biso   1.000  C
  C60      1.0000 0.95763  0.27312  0.52732  Biso   1.000  C
  C61      1.0000 0.01170  0.89949  0.20276  Biso   1.000  C
  C62      1.0000 0.19275  0.95010  0.97181  Biso   1.000  C
  C63      1.0000 0.96489  0.13152  0.01981  Biso   1.000  C
  C64      1.0000 0.51067  0.89831  0.34302  Biso   1.000  C
  C65      1.0000 0.69023  0.94991  0.57398  Biso   1.000  C
  C66      1.0000 0.45591  0.13005  0.52252  Biso   1.000  C
  C67      1.0000 0.52077  0.40026  0.20716  Biso   1.000  C
  C68      1.0000 0.32749  0.45012  0.96907  Biso   1.000  C
  C69      1.0000 0.56759  0.62663  0.02352  Biso   1.000  C
  C70      1.0000 0.01167  0.39272  0.34029  Biso   1.000  C
  C71      1.0000 0.82838  0.45117  0.58458  Biso   1.000  C
  C72      1.0000 0.06362  0.63348  0.50987  Biso   1.000  C
  C73      1.0000 0.01055  0.50013  0.34161  Biso   1.000  C
  C74      1.0000 0.32790  0.94969  0.58444  Biso   1.000  C
  C75      1.0000 0.56900  0.26777  0.01633  Biso   1.000  C
  C76      1.0000 0.50462  0.50568  0.21300  Biso   1.000  C
  C77      1.0000 0.83104  0.95490  0.96414  Biso   1.000  C
  C78      1.0000 0.06532  0.28047  0.53572  Biso   1.000  C
  C79      1.0000 0.51269  0.00598  0.34560  Biso   1.000  C
  C80      1.0000 0.19304  0.44980  0.57385  Biso   1.000  C
  C81      1.0000 0.95393  0.77118  0.01612  Biso   1.000  C
  C82      1.0000 0.00905  0.00739  0.20936  Biso   1.000  C
  C83      1.0000 0.69492  0.45070  0.98200  Biso   1.000  C
  C84      1.0000 0.44954  0.77525  0.52093  Biso   1.000  C
  C85      1.0000 0.01747  0.40454  0.70574  Biso   1.000  C
  C86      1.0000 0.69160  0.94035  0.46471  Biso   1.000  C
  C87      1.0000 0.45679  0.63069  0.03409  Biso   1.000  C
  C88      1.0000 0.51249  0.38986  0.84735  Biso   1.000  C
  C89      1.0000 0.19055  0.94318  0.08042  Biso   1.000  C
  C90      1.0000 0.95517  0.62753  0.52495  Biso   1.000  C
  C91      1.0000 0.50901  0.88980  0.71000  Biso   1.000  C
  C92      1.0000 0.82879  0.44403  0.47525  Biso   1.000  C
  C93      1.0000 0.07374  0.12984  0.03299  Biso   1.000  C
  C94      1.0000 0.02018  0.90214  0.84066  Biso   1.000  C
  C95      1.0000 0.33380  0.44663  0.07759  Biso   1.000  C
  C96      1.0000 0.56357  0.12631  0.53532  Biso   1.000  C
  C97      1.0000 0.69159  0.03259  0.52097  Biso   1.000  C
  C98      1.0000 0.52115  0.63303  0.11349  Biso   1.000  C
  C99      1.0000 0.09993  0.45682  0.70357  Biso   1.000  C
  C100     1.0000 0.19436  0.03131  0.02075  Biso   1.000  C
  C101     1.0000 0.01070  0.62742  0.43265  Biso   1.000  C
  C102     1.0000 0.59958  0.44945  0.85168  Biso   1.000  C
  C103     1.0000 0.82897  0.53363  0.52415  Biso   1.000  C
  C104     1.0000 0.01273  0.13271  0.11334  Biso   1.000  C
  C105     1.0000 0.42788  0.96221  0.70741  Biso   1.000  C
  C106     1.0000 0.33424  0.53538  0.02959  Biso   1.000  C
  C107     1.0000 0.51796  0.13646  0.43904  Biso   1.000  C
  C108     1.0000 0.92759  0.95911  0.83880  Biso   1.000  C
  C109     1.0000 0.32167  0.87207  0.52611  Biso   1.000  C
  C110     1.0000 0.50971  0.26404  0.93800  Biso   1.000  C
  C111     1.0000 0.92563  0.45155  0.35000  Biso   1.000  C
  C112     1.0000 0.83068  0.86819  0.02376  Biso   1.000  C
  C113     1.0000 0.00863  0.27728  0.61829  Biso   1.000  C
  C114     1.0000 0.42812  0.44008  0.20387  Biso   1.000  C
  C115     1.0000 0.19000  0.37356  0.51158  Biso   1.000  C
  C116     1.0000 0.01678  0.77399  0.93420  Biso   1.000  C
  C117     1.0000 0.59771  0.95127  0.33921  Biso   1.000  C
  C118     1.0000 0.69246  0.36248  0.02744  Biso   1.000  C
  C119     1.0000 0.50474  0.76919  0.61226  Biso   1.000  C
  C120     1.0000 0.09724  0.95179  0.20670  Biso   1.000  C
  C121     1.0000 0.83720  0.93608  0.10367  Biso   1.000  C
  C122     1.0000 0.09638  0.77451  0.03009  Biso   1.000  C
  C123     1.0000 0.01774  0.04040  0.84238  Biso   1.000  C
  C124     1.0000 0.32405  0.96095  0.44262  Biso   1.000  C
  C125     1.0000 0.59198  0.76952  0.52541  Biso   1.000  C
  C126     1.0000 0.51909  0.02732  0.70546  Biso   1.000  C
  C127     1.0000 0.69429  0.44663  0.12345  Biso   1.000  C
  C128     1.0000 0.42884  0.27468  0.03178  Biso   1.000  C
  C129     1.0000 0.51202  0.53045  0.84908  Biso   1.000  C
  C130     1.0000 0.19080  0.46940  0.43773  Biso   1.000  C
  C131     1.0000 0.92484  0.26975  0.53132  Biso   1.000  C
  C132     1.0000 0.01789  0.54373  0.70016  Biso   1.000  C
  C133     1.0000 0.19265  0.95599  0.93979  Biso   1.000  C
  C134     1.0000 0.93271  0.13316  0.01654  Biso   1.000  C
  C135     1.0000 0.01210  0.86822  0.19946  Biso   1.000  C
  C136     1.0000 0.69083  0.95059  0.60589  Biso   1.000  C
  C137     1.0000 0.42379  0.13326  0.52442  Biso   1.000  C
  C138     1.0000 0.51028  0.86602  0.34369  Biso   1.000  C
  C139     1.0000 0.32825  0.45215  0.93676  Biso   1.000  C
  C140     1.0000 0.60023  0.62628  0.02183  Biso   1.000  C
  C141     1.0000 0.52330  0.36813  0.20570  Biso   1.000  C
  C142     1.0000 0.82847  0.45140  0.61645  Biso   1.000  C
  C143     1.0000 0.09592  0.63649  0.51048  Biso   1.000  C
  C144     1.0000 0.01329  0.35965  0.34063  Biso   1.000  C
  C145     1.0000 0.33188  0.44734  0.11013  Biso   1.000  C
  C146     1.0000 0.09780  0.28235  0.54070  Biso   1.000  C
  C147     1.0000 0.51995  0.03782  0.34641  Biso   1.000  C
  C148     1.0000 0.83009  0.44115  0.44349  Biso   1.000  C
  C149     1.0000 0.60050  0.26878  0.01219  Biso   1.000  C
  C150     1.0000 0.00177  0.03789  0.21086  Biso   1.000  C
  C151     1.0000 0.19416  0.94794  0.11310  Biso   1.000  C
  C152     1.0000 0.41763  0.77684  0.51917  Biso   1.000  C
  C153     1.0000 0.00685  0.53071  0.34046  Biso   1.000  C
  C154     1.0000 0.69189  0.93896  0.43280  Biso   1.000  C
  C155     1.0000 0.92208  0.77146  0.01497  Biso   1.000  C
  C156     1.0000 0.51054  0.53756  0.21306  Biso   1.000  C
  C157     1.0000 0.69424  0.45055  0.94892  Biso   1.000  C
  C158     1.0000 0.92193  0.62689  0.52401  Biso   1.000  C
  C159     1.0000 0.51326  0.85773  0.70715  Biso   1.000  C
  C160     1.0000 0.19467  0.45044  0.60620  Biso   1.000  C
  C161     1.0000 0.42446  0.63083  0.03935  Biso   1.000  C
  C162     1.0000 0.02011  0.87066  0.83823  Biso   1.000  C
  C163     1.0000 0.83035  0.96277  0.93324  Biso   1.000  C
  C164     1.0000 0.59445  0.12507  0.53837  Biso   1.000  C
  C165     1.0000 0.01543  0.37363  0.70908  Biso   1.000  C
  C166     1.0000 0.32985  0.94965  0.61687  Biso   1.000  C
  C167     1.0000 0.10544  0.12910  0.03482  Biso   1.000  C
  C168     1.0000 0.51227  0.35839  0.84623  Biso   1.000  C
  C169     1.0000 0.99920  0.77050  0.10787  Biso   1.000  C
  C170     1.0000 0.09905  0.96656  0.84233  Biso   1.000  C
  C171     1.0000 0.83966  0.03745  0.01989  Biso   1.000  C
  C172     1.0000 0.50390  0.77462  0.44076  Biso   1.000  C
  C173     1.0000 0.59755  0.93670  0.70251  Biso   1.000  C
  C174     1.0000 0.32732  0.04119  0.53499  Biso   1.000  C
  C175     1.0000 0.52693  0.27467  0.10940  Biso   1.000  C
  C176     1.0000 0.42554  0.44300  0.84720  Biso   1.000  C
  C177     1.0000 0.70348  0.53504  0.03540  Biso   1.000  C
  C178     1.0000 0.01734  0.27387  0.44444  Biso   1.000  C
  C179     1.0000 0.92730  0.45207  0.70879  Biso   1.000  C
  C180     1.0000 0.19377  0.54306  0.52215  Biso   1.000  C
  C181     1.0000 0.02946  0.12989  0.93854  Biso   1.000  C
  C182     1.0000 0.92481  0.95872  0.20027  Biso   1.000  C
  C183     1.0000 0.19122  0.86399  0.03417  Biso   1.000  C
  C184     1.0000 0.49828  0.12333  0.61107  Biso   1.000  C
  C185     1.0000 0.42256  0.95404  0.34837  Biso   1.000  C
  C186     1.0000 0.68897  0.85973  0.52322  Biso   1.000  C
  C187     1.0000 0.50412  0.62651  0.94333  Biso   1.000  C
  C188     1.0000 0.59906  0.45887  0.21723  Biso   1.000  C
  C189     1.0000 0.33359  0.36576  0.02112  Biso   1.000  C
  C190     1.0000 0.02977  0.63566  0.60205  Biso   1.000  C
  C191     1.0000 0.09822  0.44525  0.34395  Biso   1.000  C
  C192     1.0000 0.82780  0.36306  0.53182  Biso   1.000  C
  C193     1.0000 0.85785  0.96069  0.91658  Biso   1.000  C
  C194     1.0000 0.90601  0.79713  0.01818  Biso   1.000  C
  C195     1.0000 0.01824  0.85310  0.86432  Biso   1.000  C
  C196     1.0000 0.35861  0.95432  0.62997  Biso   1.000  C
  C197     1.0000 0.40140  0.80324  0.52376  Biso   1.000  C
  C198     1.0000 0.51224  0.84180  0.67946  Biso   1.000  C
  C199     1.0000 0.66653  0.45005  0.93373  Biso   1.000  C
  C200     1.0000 0.61494  0.29548  0.01540  Biso   1.000  C
  C201     1.0000 0.51168  0.34116  0.87160  Biso   1.000  C
  C202     1.0000 0.16738  0.45512  0.62272  Biso   1.000  C
  C203     1.0000 0.11299  0.30683  0.52929  Biso   1.000  C
  C204     1.0000 0.00923  0.35806  0.68278  Biso   1.000  C
  C205     1.0000 0.16687  0.94812  0.12902  Biso   1.000  C
  C206     1.0000 0.12157  0.10140  0.03035  Biso   1.000  C
  C207     1.0000 0.00065  0.05253  0.18257  Biso   1.000  C
  C208     1.0000 0.66445  0.94246  0.41748  Biso   1.000  C
  C209     1.0000 0.61226  0.09893  0.53346  Biso   1.000  C
  C210     1.0000 0.51929  0.05466  0.37476  Biso   1.000  C
  C211     1.0000 0.35731  0.44445  0.12667  Biso   1.000  C
  C212     1.0000 0.41023  0.60397  0.03561  Biso   1.000  C
  C213     1.0000 0.51482  0.55134  0.18524  Biso   1.000  C
  C214     1.0000 0.85761  0.44073  0.42914  Biso   1.000  C
  C215     1.0000 0.90711  0.60063  0.51943  Biso   1.000  C
  C216     1.0000 0.01143  0.54700  0.36664  Biso   1.000  C
  C217     1.0000 0.11526  0.96060  0.86924  Biso   1.000  C
  C218     1.0000 0.86566  0.05435  0.02061  Biso   1.000  C
  C219     1.0000 0.00202  0.79807  0.12191  Biso   1.000  C
  C220     1.0000 0.61285  0.94165  0.67533  Biso   1.000  C
  C221     1.0000 0.35277  0.05627  0.52691  Biso   1.000  C
  C222     1.0000 0.50829  0.80079  0.42321  Biso   1.000  C
  C223     1.0000 0.40909  0.44403  0.87455  Biso   1.000  C
  C224     1.0000 0.67690  0.55019  0.03242  Biso   1.000  C
  C225     1.0000 0.52576  0.30161  0.12431  Biso   1.000  C
  C226     1.0000 0.90883  0.44732  0.68341  Biso   1.000  C
  C227     1.0000 0.16653  0.55928  0.51885  Biso   1.000  C
  C228     1.0000 0.01560  0.29961  0.42703  Biso   1.000  C
  C229     1.0000 0.91096  0.95312  0.17196  Biso   1.000  C
  C230     1.0000 0.16396  0.84814  0.03451  Biso   1.000  C
  C231     1.0000 0.02681  0.10263  0.92316  Biso   1.000  C
  C232     1.0000 0.40617  0.95329  0.37517  Biso   1.000  C
  C233     1.0000 0.66156  0.84473  0.52498  Biso   1.000  C
  C234     1.0000 0.50216  0.09536  0.62797  Biso   1.000  C
  C235     1.0000 0.61421  0.45367  0.19096  Biso   1.000  C
  C236     1.0000 0.36197  0.35141  0.02091  Biso   1.000  C
  C237     1.0000 0.50441  0.59885  0.92738  Biso   1.000  C
  C238     1.0000 0.11311  0.45237  0.37055  Biso   1.000  C
  C239     1.0000 0.85570  0.34586  0.53221  Biso   1.000  C
  C240     1.0000 0.02664  0.60804  0.61811  Biso   1.000  C
  C241     1.0000 0.61421  0.45033  0.87917  Biso   1.000  C
  C242     1.0000 0.85533  0.54938  0.52576  Biso   1.000  C
  C243     1.0000 0.50670  0.79424  0.62990  Biso   1.000  C
  C244     1.0000 0.11583  0.45592  0.67579  Biso   1.000  C
  C245     1.0000 0.36094  0.55390  0.02817  Biso   1.000  C
  C246     1.0000 0.01930  0.80111  0.91804  Biso   1.000  C
  C247     1.0000 0.91047  0.95821  0.86650  Biso   1.000  C
  C248     1.0000 0.66370  0.04706  0.52533  Biso   1.000  C
  C249     1.0000 0.00701  0.30482  0.63313  Biso   1.000  C
  C250     1.0000 0.41297  0.96072  0.68064  Biso   1.000  C
  C251     1.0000 0.16781  0.04842  0.02616  Biso   1.000  C
  C252     1.0000 0.51038  0.29074  0.92132  Biso   1.000  C
  C253     1.0000 0.41177  0.44224  0.17620  Biso   1.000  C
  C254     1.0000 0.16354  0.35744  0.51790  Biso   1.000  C
  C255     1.0000 0.51708  0.10884  0.42479  Biso   1.000  C
  C256     1.0000 0.90963  0.44471  0.37553  Biso   1.000  C
  C257     1.0000 0.66465  0.34667  0.02663  Biso   1.000  C
  C258     1.0000 0.00987  0.10591  0.12954  Biso   1.000  C
  C259     1.0000 0.11416  0.94779  0.17967  Biso   1.000  C
  C260     1.0000 0.34789  0.85601  0.52883  Biso   1.000  C
  C261     1.0000 0.01117  0.59960  0.41692  Biso   1.000  C
  C262     1.0000 0.61483  0.94653  0.36596  Biso   1.000  C
  C263     1.0000 0.85633  0.85068  0.02198  Biso   1.000  C
  C264     1.0000 0.52272  0.60563  0.13080  Biso   1.000  C
  C265     1.0000 0.02031  0.05663  0.86925  Biso   1.000  C
  C266     1.0000 0.86250  0.94327  0.12002  Biso   1.000  C
  C267     1.0000 0.11375  0.80019  0.03128  Biso   1.000  C
  C268     1.0000 0.51571  0.04277  0.67949  Biso   1.000  C
  C269     1.0000 0.35058  0.95421  0.42575  Biso   1.000  C
  C270     1.0000 0.60855  0.79634  0.52331  Biso   1.000  C
  C271     1.0000 0.51099  0.54668  0.87600  Biso   1.000  C
  C272     1.0000 0.66655  0.44707  0.13987  Biso   1.000  C
  C273     1.0000 0.41190  0.30214  0.02849  Biso   1.000  C
  C274     1.0000 0.02047  0.55708  0.67278  Biso   1.000  C
  C275     1.0000 0.16392  0.46629  0.42296  Biso   1.000  C
  C276     1.0000 0.90671  0.29601  0.53190  Biso   1.000  C
  C277     1.0000 0.01090  0.85068  0.17086  Biso   1.000  C
  C278     1.0000 0.16635  0.95825  0.92197  Biso   1.000  C
  C279     1.0000 0.91804  0.10545  0.01464  Biso   1.000  C
  C280     1.0000 0.51352  0.84956  0.37027  Biso   1.000  C
  C281     1.0000 0.66378  0.94676  0.62223  Biso   1.000  C
  C282     1.0000 0.40750  0.10568  0.52453  Biso   1.000  C
  C283     1.0000 0.52383  0.35384  0.17868  Biso   1.000  C
  C284     1.0000 0.35534  0.44596  0.92087  Biso   1.000  C
  C285     1.0000 0.61729  0.59983  0.02347  Biso   1.000  C
  C286     1.0000 0.01601  0.34728  0.37029  Biso   1.000  C
  C287     1.0000 0.85762  0.45122  0.63063  Biso   1.000  C
  C288     1.0000 0.11418  0.61011  0.51171  Biso   1.000  C
  C289     1.0000 0.34639  0.82620  0.52230  Biso   1.000  C
  C290     1.0000 0.51308  0.28842  0.89033  Biso   1.000  C
  C291     1.0000 0.87876  0.44726  0.37612  Biso   1.000  C
  C292     1.0000 0.85394  0.81964  0.01988  Biso   1.000  C
  C293     1.0000 0.01340  0.30636  0.66377  Biso   1.000  C
  C294     1.0000 0.38039  0.44143  0.17768  Biso   1.000  C
  C295     1.0000 0.16676  0.32611  0.52483  Biso   1.000  C
  C296     1.0000 0.01887  0.80109  0.88642  Biso   1.000  C
  C297     1.0000 0.64547  0.94157  0.36551  Biso   1.000  C
  C298     1.0000 0.66647  0.31621  0.02032  Biso   1.000  C
  C299     1.0000 0.50867  0.79048  0.66070  Biso   1.000  C
  C300     1.0000 0.14501  0.94704  0.18144  Biso   1.000  C
  C301     1.0000 0.66573  0.07925  0.52720  Biso   1.000  C
  C302     1.0000 0.51685  0.60488  0.16206  Biso   1.000  C
  C303     1.0000 0.14714  0.45600  0.67494  Biso   1.000  C
  C304     1.0000 0.17196  0.07958  0.02705  Biso   1.000  C
  C305     1.0000 0.00699  0.60016  0.38593  Biso   1.000  C
  C306     1.0000 0.64517  0.45210  0.87866  Biso   1.000  C
  C307     1.0000 0.85354  0.58067  0.52733  Biso   1.000  C
  C308     1.0000 0.00848  0.10485  0.16039  Biso   1.000  C
  C309     1.0000 0.38106  0.96145  0.68165  Biso   1.000  C
  C310     1.0000 0.35829  0.58430  0.03062  Biso   1.000  C
  C311     1.0000 0.51883  0.10884  0.39242  Biso   1.000  C
  C312     1.0000 0.87923  0.95998  0.86442  Biso   1.000  C
  C313     1.0000 0.16547  0.45688  0.39179  Biso   1.000  C
  C314     1.0000 0.37645  0.10794  0.52857  Biso   1.000  C
  C315     1.0000 0.52538  0.32170  0.17979  Biso   1.000  C
  C316     1.0000 0.66848  0.45086  0.17157  Biso   1.000  C
  C317     1.0000 0.88586  0.10647  0.01443  Biso   1.000  C
  C318     1.0000 0.01360  0.31653  0.37233  Biso   1.000  C
  C319     1.0000 0.35073  0.95979  0.39488  Biso   1.000  C
  C320     1.0000 0.14469  0.61214  0.51117  Biso   1.000  C
  C321     1.0000 0.00894  0.81980  0.17448  Biso   1.000  C
  C322     1.0000 0.86129  0.94159  0.15149  Biso   1.000  C
  C323     1.0000 0.64946  0.60254  0.02246  Biso   1.000  C
  C324     1.0000 0.50938  0.81962  0.36954  Biso   1.000  C
  C325     1.0000 0.85726  0.44861  0.66235  Biso   1.000  C
  C326     1.0000 0.63941  0.79295  0.52591  Biso   1.000  C
  C327     1.0000 0.51194  0.57716  0.87455  Biso   1.000  C
  C328     1.0000 0.35498  0.44964  0.89017  Biso   1.000  C
  C329     1.0000 0.14377  0.79669  0.03835  Biso   1.000  C
  C330     1.0000 0.02378  0.58855  0.67290  Biso   1.000  C
  C331     1.0000 0.66452  0.94712  0.65409  Biso   1.000  C
  C332     1.0000 0.87621  0.29241  0.53235  Biso   1.000  C
  C333     1.0000 0.02497  0.08724  0.86848  Biso   1.000  C
  C334     1.0000 0.16786  0.95995  0.88967  Biso   1.000  C
  C335     1.0000 0.38172  0.29864  0.02466  Biso   1.000  C
  C336     1.0000 0.51012  0.07393  0.68017  Biso   1.000  C
  C337     1.0000 0.66649  0.45442  0.90169  Biso   1.000  C
  C338     1.0000 0.87592  0.60186  0.52505  Biso   1.000  C
  C339     1.0000 0.51103  0.81122  0.68174  Biso   1.000  C
  C340     1.0000 0.16910  0.45648  0.65370  Biso   1.000  C
  C341     1.0000 0.37924  0.60546  0.03175  Biso   1.000  C
  C342     1.0000 0.02006  0.82215  0.86385  Biso   1.000  C
  C343     1.0000 0.85665  0.96130  0.88522  Biso   1.000  C
  C344     1.0000 0.64439  0.10058  0.53024  Biso   1.000  C
  C345     1.0000 0.01409  0.32752  0.68481  Biso   1.000  C
  C346     1.0000 0.35874  0.95950  0.66113  Biso   1.000  C
  C347     1.0000 0.15204  0.10239  0.03045  Biso   1.000  C
  C348     1.0000 0.51328  0.31018  0.86898  Biso   1.000  C
  C349     1.0000 0.35856  0.44331  0.15745  Biso   1.000  C
  C350     1.0000 0.14467  0.30530  0.52943  Biso   1.000  C
  C351     1.0000 0.51917  0.08614  0.37220  Biso   1.000  C
  C352     1.0000 0.85674  0.44700  0.39722  Biso   1.000  C
  C353     1.0000 0.64575  0.29501  0.01475  Biso   1.000  C
  C354     1.0000 0.00470  0.08240  0.18271  Biso   1.000  C
  C355     1.0000 0.16807  0.94915  0.16018  Biso   1.000  C
  C356     1.0000 0.36857  0.80460  0.51978  Biso   1.000  C
  C357     1.0000 0.01043  0.57813  0.36490  Biso   1.000  C
  C358     1.0000 0.66639  0.93957  0.38610  Biso   1.000  C
  C359     1.0000 0.87424  0.79747  0.02018  Biso   1.000  C
  C360     1.0000 0.51364  0.58285  0.18422  Biso   1.000  C
  C361     1.0000 0.02899  0.10753  0.89117  Biso   1.000  C
  C362     1.0000 0.88137  0.94575  0.17311  Biso   1.000  C
  C363     1.0000 0.16542  0.81752  0.03832  Biso   1.000  C
  C364     1.0000 0.50512  0.09613  0.65921  Biso   1.000  C
  C365     1.0000 0.37411  0.95711  0.37498  Biso   1.000  C
  C366     1.0000 0.66203  0.81403  0.52718  Biso   1.000  C
  C367     1.0000 0.51066  0.59950  0.89600  Biso   1.000  C
  C368     1.0000 0.64525  0.45437  0.19305  Biso   1.000  C
  C369     1.0000 0.35981  0.32072  0.02376  Biso   1.000  C
  C370     1.0000 0.02552  0.60928  0.65055  Biso   1.000  C
  C371     1.0000 0.14474  0.45136  0.37055  Biso   1.000  C
  C372     1.0000 0.85478  0.31437  0.53370  Biso   1.000  C
  C373     1.0000 0.00372  0.79773  0.15402  Biso   1.000  C
  C374     1.0000 0.14633  0.96252  0.86836  Biso   1.000  C
  C375     1.0000 0.86404  0.08550  0.01699  Biso   1.000  C
  C376     1.0000 0.50809  0.79854  0.39177  Biso   1.000  C
  C377     1.0000 0.64402  0.94386  0.67659  Biso   1.000  C
  C378     1.0000 0.35411  0.08735  0.52907  Biso   1.000  C
  C379     1.0000 0.52526  0.30055  0.15786  Biso   1.000  C
  C380     1.0000 0.37791  0.44870  0.87015  Biso   1.000  C
  C381     1.0000 0.67296  0.58186  0.02622  Biso   1.000  C
  C382     1.0000 0.01321  0.29682  0.39574  Biso   1.000  C
  C383     1.0000 0.87800  0.44864  0.68383  Biso   1.000  C
  C384     1.0000 0.16626  0.59054  0.51426  Biso   1.000  C
  C385     1.0000 0.19948  0.09429  0.02464  Biso   1.000  C
  C386     1.0000 0.00986  0.13097  0.17709  Biso   1.000  C
  C387     1.0000 0.16070  0.94875  0.20855  Biso   1.000  C
  C388     1.0000 0.69189  0.09430  0.52709  Biso   1.000  C
  C389     1.0000 0.52061  0.13468  0.37512  Biso   1.000  C
  C390     1.0000 0.66017  0.93916  0.33755  Biso   1.000  C
  C391     1.0000 0.33001  0.59914  0.03184  Biso   1.000  C
  C392     1.0000 0.51488  0.63143  0.17784  Biso   1.000  C
  C393     1.0000 0.36466  0.43683  0.20521  Biso   1.000  C
  C394     1.0000 0.82594  0.59713  0.52771  Biso   1.000  C
  C395     1.0000 0.00652  0.62616  0.36853  Biso   1.000  C
  C396     1.0000 0.86257  0.45614  0.35010  Biso   1.000  C
  C397     1.0000 0.82625  0.80443  0.02046  Biso   1.000  C
  C398     1.0000 0.01783  0.77355  0.87179  Biso   1.000  C
  C399     1.0000 0.86495  0.96314  0.83744  Biso   1.000  C
  C400     1.0000 0.32008  0.81170  0.51594  Biso   1.000  C
  C401     1.0000 0.50866  0.76317  0.67531  Biso   1.000  C
  C402     1.0000 0.36501  0.96775  0.70866  Biso   1.000  C
  C403     1.0000 0.69466  0.30127  0.01814  Biso   1.000  C
  C404     1.0000 0.51821  0.26234  0.87546  Biso   1.000  C
  C405     1.0000 0.66160  0.45386  0.85189  Biso   1.000  C
  C406     1.0000 0.19312  0.31141  0.52553  Biso   1.000  C
  C407     1.0000 0.01630  0.27911  0.68037  Biso   1.000  C
  C408     1.0000 0.16395  0.45415  0.70179  Biso   1.000  C
  C409     1.0000 0.16285  0.96788  0.84266  Biso   1.000  C
  C410     1.0000 0.83691  0.09951  0.01513  Biso   1.000  C
  C411     1.0000 0.00135  0.77134  0.17094  Biso   1.000  C
  C412     1.0000 0.66073  0.94235  0.70344  Biso   1.000  C
  C413     1.0000 0.32865  0.10399  0.53412  Biso   1.000  C
  C414     1.0000 0.50364  0.77172  0.37650  Biso   1.000  C
  C415     1.0000 0.36270  0.45020  0.84224  Biso   1.000  C
  C416     1.0000 0.69875  0.59901  0.02488  Biso   1.000  C
  C417     1.0000 0.52668  0.27274  0.17375  Biso   1.000  C
  C418     1.0000 0.86399  0.45093  0.71174  Biso   1.000  C
  C419     1.0000 0.19324  0.60698  0.51082  Biso   1.000  C
  C420     1.0000 0.01364  0.26941  0.38172  Biso   1.000  C
  C421     1.0000 0.86585  0.93997  0.20062  Biso   1.000  C
  C422     1.0000 0.19199  0.80167  0.04310  Biso   1.000  C
  C423     1.0000 0.03184  0.13424  0.87587  Biso   1.000  C
  C424     1.0000 0.35985  0.96305  0.34865  Biso   1.000  C
  C425     1.0000 0.68815  0.79763  0.53102  Biso   1.000  C
  C426     1.0000 0.50356  0.12276  0.67559  Biso   1.000  C
  C427     1.0000 0.66073  0.46107  0.21857  Biso   1.000  C
  C428     1.0000 0.33273  0.30558  0.02289  Biso   1.000  C
  C429     1.0000 0.51337  0.62620  0.88009  Biso   1.000  C
  C430     1.0000 0.16098  0.44448  0.34441  Biso   1.000  C
  C431     1.0000 0.82830  0.29867  0.53077  Biso   1.000  C
  C432     1.0000 0.02705  0.63583  0.66567  Biso   1.000  C
  C433     1.0000 0.02720  0.10260  0.84122  Biso   1.000  C
  C434     1.0000 0.83503  0.93207  0.16662  Biso   1.000  C
  C435     1.0000 0.15877  0.77019  0.04297  Biso   1.000  C
  C436     1.0000 0.51129  0.08924  0.70734  Biso   1.000  C
  C437     1.0000 0.32517  0.96866  0.37997  Biso   1.000  C
  C438     1.0000 0.65416  0.76561  0.53021  Biso   1.000  C
  C439     1.0000 0.51601  0.59295  0.84770  Biso   1.000  C
  C440     1.0000 0.69544  0.45675  0.18612  Biso   1.000  C
  C441     1.0000 0.36676  0.27285  0.02584  Biso   1.000  C
  C442     1.0000 0.02349  0.60467  0.69912  Biso   1.000  C
  C443     1.0000 0.19463  0.45295  0.37721  Biso   1.000  C
  C444     1.0000 0.86127  0.26571  0.53299  Biso   1.000  C
  C445     1.0000 0.00821  0.80501  0.20250  Biso   1.000  C
  C446     1.0000 0.19550  0.96568  0.87613  Biso   1.000  C
  C447     1.0000 0.86889  0.13307  0.01530  Biso   1.000  C
  C448     1.0000 0.50741  0.80404  0.34322  Biso   1.000  C
  C449     1.0000 0.69183  0.95023  0.66933  Biso   1.000  C
  C450     1.0000 0.36168  0.13539  0.53394  Biso   1.000  C
  C451     1.0000 0.52499  0.30551  0.20716  Biso   1.000  C
  C452     1.0000 0.32897  0.45483  0.87301  Biso   1.000  C
  C453     1.0000 0.66378  0.62949  0.02109  Biso   1.000  C
  C454     1.0000 0.01190  0.29840  0.34602  Biso   1.000  C
  C455     1.0000 0.83057  0.44984  0.67866  Biso   1.000  C
  C456     1.0000 0.16012  0.63875  0.50887  Biso   1.000  C
  C457     1.0000 0.00709  0.59292  0.33759  Biso   1.000  C
  C458     1.0000 0.33245  0.96111  0.67718  Biso   1.000  C
  C459     1.0000 0.66287  0.26851  0.01196  Biso   1.000  C
  C460     1.0000 0.51141  0.59917  0.21081  Biso   1.000  C
  C461     1.0000 0.83102  0.96329  0.86877  Biso   1.000  C
  C462     1.0000 0.16119  0.27842  0.53626  Biso   1.000  C
  C463     1.0000 0.52153  0.10096  0.34365  Biso   1.000  C
  C464     1.0000 0.19659  0.45120  0.66741  Biso   1.000  C
  C465     1.0000 0.85892  0.77106  0.01695  Biso   1.000  C
  C466     1.0000 0.00535  0.09922  0.21035  Biso   1.000  C
  C467     1.0000 0.69362  0.45670  0.88667  Biso   1.000  C
  C468     1.0000 0.35293  0.77977  0.51158  Biso   1.000  C
  C469     1.0000 0.01948  0.31268  0.71219  Biso   1.000  C
  C470     1.0000 0.69338  0.93242  0.36916  Biso   1.000  C
  C471     1.0000 0.36200  0.63178  0.03352  Biso   1.000  C
  C472     1.0000 0.52014  0.29463  0.84257  Biso   1.000  C
  C473     1.0000 0.19466  0.94999  0.17596  Biso   1.000  C
  C474     1.0000 0.85904  0.62969  0.52827  Biso   1.000  C
  C475     1.0000 0.51224  0.79490  0.70810  Biso   1.000  C
  C476     1.0000 0.82839  0.45337  0.38210  Biso   1.000  C
  C477     1.0000 0.16760  0.12862  0.03119  Biso   1.000  C
  C478     1.0000 0.02059  0.80645  0.83655  Biso   1.000  C
  C479     1.0000 0.33156  0.44143  0.17452  Biso   1.000  C
  C480     1.0000 0.65902  0.12767  0.53286  Biso   1.000  C
  C481     1.0000 0.36961  0.75305  0.50641  Biso   1.000  C
  C482     1.0000 0.52440  0.31242  0.81705  Biso   1.000  C
  C483     1.0000 0.80122  0.45096  0.39703  Biso   1.000  C
  C484     1.0000 0.87473  0.74492  0.01405  Biso   1.000  C
  C485     1.0000 0.02276  0.32861  0.73878  Biso   1.000  C
  C486     1.0000 0.30574  0.44669  0.15763  Biso   1.000  C
  C487     1.0000 0.14449  0.25296  0.54752  Biso   1.000  C
  C488     1.0000 0.02300  0.82424  0.81038  Biso   1.000  C
  C489     1.0000 0.72001  0.92818  0.38683  Biso   1.000  C
  C490     1.0000 0.64667  0.24023  0.01120  Biso   1.000  C
  C491     1.0000 0.51638  0.80882  0.73468  Biso   1.000  C
  C492     1.0000 0.22236  0.94639  0.15959  Biso   1.000  C
  C493     1.0000 0.64050  0.15304  0.53883  Biso   1.000  C
  C494     1.0000 0.50899  0.58587  0.23964  Biso   1.000  C
  C495     1.0000 0.22502  0.44942  0.65125  Biso   1.000  C
  C496     1.0000 0.15084  0.15597  0.03675  Biso   1.000  C
  C497     1.0000 0.00593  0.57709  0.31195  Biso   1.000  C
  C498     1.0000 0.72073  0.45688  0.90229  Biso   1.000  C
  C499     1.0000 0.87465  0.65658  0.53016  Biso   1.000  C
  C500     1.0000 0.00280  0.08235  0.23898  Biso   1.000  C
  C501     1.0000 0.30476  0.95527  0.66384  Biso   1.000  C
  C502     1.0000 0.37838  0.65909  0.03669  Biso   1.000  C
  C503     1.0000 0.52200  0.08404  0.31577  Biso   1.000  C
  C504     1.0000 0.80324  0.96382  0.88391  Biso   1.000  C
  C505     1.0000 0.64707  0.45337  0.82409  Biso   1.000  C
  C506     1.0000 0.79924  0.58025  0.52296  Biso   1.000  C
  C507     1.0000 0.50485  0.73820  0.65770  Biso   1.000  C
  C508     1.0000 0.14966  0.45242  0.73019  Biso   1.000  C
  C509     1.0000 0.30556  0.58162  0.02697  Biso   1.000  C
  C510     1.0000 0.01591  0.74756  0.88888  Biso   1.000  C
  C511     1.0000 0.88150  0.96584  0.81119  Biso   1.000  C
  C512     1.0000 0.71813  0.07816  0.52143  Biso   1.000  C
  C513     1.0000 0.01489  0.25156  0.66610  Biso   1.000  C
  C514     1.0000 0.38237  0.97506  0.73446  Biso   1.000  C
  C515     1.0000 0.22534  0.07613  0.01642  Biso   1.000  C
  C516     1.0000 0.52062  0.23546  0.89118  Biso   1.000  C
  C517     1.0000 0.38200  0.43050  0.23051  Biso   1.000  C
  C518     1.0000 0.22042  0.32658  0.51843  Biso   1.000  C
  C519     1.0000 0.52353  0.16234  0.39089  Biso   1.000  C
  C520     1.0000 0.87826  0.46205  0.32299  Biso   1.000  C
  C521     1.0000 0.72190  0.31626  0.01935  Biso   1.000  C
  C522     1.0000 0.01360  0.15823  0.16200  Biso   1.000  C
  C523     1.0000 0.14342  0.95284  0.23563  Biso   1.000  C
  C524     1.0000 0.29331  0.82706  0.51297  Biso   1.000  C
  C525     1.0000 0.00634  0.65531  0.38407  Biso   1.000  C
  C526     1.0000 0.64363  0.94349  0.30935  Biso   1.000  C
  C527     1.0000 0.79959  0.82292  0.02435  Biso   1.000  C
  C528     1.0000 0.51355  0.65879  0.16241  Biso   1.000  C
  C529     1.0000 0.81032  0.08289  0.01787  Biso   1.000  C
  C530     1.0000 0.99840  0.74361  0.15553  Biso   1.000  C
  C531     1.0000 0.14749  0.97324  0.81562  Biso   1.000  C
  C532     1.0000 0.30212  0.08944  0.54258  Biso   1.000  C
  C533     1.0000 0.49965  0.74487  0.39333  Biso   1.000  C
  C534     1.0000 0.64459  0.93614  0.73037  Biso   1.000  C
  C535     1.0000 0.72735  0.58343  0.02507  Biso   1.000  C
  C536     1.0000 0.52550  0.24613  0.15801  Biso   1.000  C
  C537     1.0000 0.38039  0.44334  0.81629  Biso   1.000  C
  C538     1.0000 0.22008  0.59071  0.51273  Biso   1.000  C
  C539     1.0000 0.01785  0.24365  0.39965  Biso   1.000  C
  C540     1.0000 0.88153  0.45398  0.73819  Biso   1.000  C
  C541     1.0000 0.21919  0.81676  0.04335  Biso   1.000  C
  C542     1.0000 0.03657  0.16082  0.89195  Biso   1.000  C
  C543     1.0000 0.87648  0.94845  0.22899  Biso   1.000  C
  C544     1.0000 0.71516  0.81240  0.52888  Biso   1.000  C
  C545     1.0000 0.49583  0.14952  0.66054  Biso   1.000  C
  C546     1.0000 0.37647  0.96587  0.32189  Biso   1.000  C
  C547     1.0000 0.30515  0.32077  0.02366  Biso   1.000  C
  C548     1.0000 0.51256  0.65447  0.89646  Biso   1.000  C
  C549     1.0000 0.64356  0.46588  0.24586  Biso   1.000  C
  C550     1.0000 0.80022  0.31475  0.52734  Biso   1.000  C
  C551     1.0000 0.03138  0.66134  0.64912  Biso   1.000  C
  C552     1.0000 0.14511  0.43785  0.31781  Biso   1.000  C
  C553     1.0000 0.02200  0.08774  0.81347  Biso   1.000  C
  C554     1.0000 0.81074  0.92209  0.14925  Biso   1.000  C
  C555     1.0000 0.14195  0.74430  0.04429  Biso   1.000  C
  C556     1.0000 0.51411  0.07315  0.73422  Biso   1.000  C
  C557     1.0000 0.29957  0.97656  0.39609  Biso   1.000  C
  C558     1.0000 0.63776  0.73897  0.53248  Biso   1.000  C
  C559     1.0000 0.51897  0.57594  0.82102  Biso   1.000  C
  C560     1.0000 0.72233  0.45472  0.16992  Biso   1.000  C
  C561     1.0000 0.38229  0.24602  0.02789  Biso   1.000  C
  C562     1.0000 0.02137  0.59037  0.72708  Biso   1.000  C
  C563     1.0000 0.22202  0.45733  0.39335  Biso   1.000  C
  C564     1.0000 0.87861  0.23938  0.53486  Biso   1.000  C
  C565     1.0000 0.00970  0.82171  0.22904  Biso   1.000  C
  C566     1.0000 0.22102  0.96485  0.89402  Biso   1.000  C
  C567     1.0000 0.88466  0.16039  0.01411  Biso   1.000  C
  C568     1.0000 0.50410  0.81924  0.31595  Biso   1.000  C
  C569     1.0000 0.71757  0.95646  0.65363  Biso   1.000  C
  C570     1.0000 0.37855  0.16170  0.53245  Biso   1.000  C
  C571     1.0000 0.52518  0.32077  0.23363  Biso   1.000  C
  C572     1.0000 0.30242  0.46108  0.88952  Biso   1.000  C
  C573     1.0000 0.64675  0.65503  0.01729  Biso   1.000  C
  C574     1.0000 0.00941  0.31256  0.31771  Biso   1.000  C
  C575     1.0000 0.80133  0.44742  0.66428  Biso   1.000  C
  C576     1.0000 0.14289  0.66481  0.51048  Biso   1.000  C
  C577     1.0000 0.30519  0.44837  0.12680  Biso   1.000  C
  C578     1.0000 0.11240  0.25561  0.55048  Biso   1.000  C
  C579     1.0000 0.52072  0.05288  0.31821  Biso   1.000  C
  C580     1.0000 0.80315  0.44266  0.42764  Biso   1.000  C
  C581     1.0000 0.61530  0.24052  0.00772  Biso   1.000  C
  C582     1.0000 0.99988  0.05246  0.23795  Biso   1.000  C
  C583     1.0000 0.22180  0.94840  0.12715  Biso   1.000  C
  C584     1.0000 0.40238  0.75157  0.51115  Biso   1.000  C
  C585     1.0000 0.00591  0.54584  0.31285  Biso   1.000  C
  C586     1.0000 0.72002  0.93385  0.41777  Biso   1.000  C
  C587     1.0000 0.90596  0.74522  0.01218  Biso   1.000  C
  C588     1.0000 0.50896  0.55320  0.24085  Biso   1.000  C
  C589     1.0000 0.72285  0.45315  0.93344  Biso   1.000  C
  C590     1.0000 0.90645  0.65382  0.52941  Biso   1.000  C
  C591     1.0000 0.51709  0.84058  0.73484  Biso   1.000  C
  C592     1.0000 0.22264  0.44780  0.61920  Biso   1.000  C
  C593     1.0000 0.40882  0.65822  0.03992  Biso   1.000  C
  C594     1.0000 0.02488  0.85606  0.81049  Biso   1.000  C
  C595     1.0000 0.80150  0.96317  0.91634  Biso   1.000  C
  C596     1.0000 0.61001  0.15295  0.54254  Biso   1.000  C
  C597     1.0000 0.02272  0.35902  0.73663  Biso   1.000  C
  C598     1.0000 0.30302  0.94683  0.63298  Biso   1.000  C
  C599     1.0000 0.11997  0.15608  0.03723  Biso   1.000  C
  C600     1.0000 0.51946  0.34361  0.81993  Biso   1.000  C
  C601     1.0000 0.22048  0.95832  0.92442  Biso   1.000  C
  C602     1.0000 0.91688  0.16064  0.01567  Biso   1.000  C
  C603     1.0000 0.01304  0.85189  0.22658  Biso   1.000  C
  C604     1.0000 0.71840  0.95452  0.62132  Biso   1.000  C
  C605     1.0000 0.41071  0.16093  0.52892  Biso   1.000  C
  C606     1.0000 0.50650  0.85098  0.31572  Biso   1.000  C
  C607     1.0000 0.30170  0.45930  0.92028  Biso   1.000  C
  C608     1.0000 0.61443  0.65348  0.01921  Biso   1.000  C
  C609     1.0000 0.52293  0.35129  0.23367  Biso   1.000  C
  C610     1.0000 0.80119  0.44890  0.63261  Biso   1.000  C
  C611     1.0000 0.11096  0.66310  0.50822  Biso   1.000  C
  C612     1.0000 0.00920  0.34346  0.31423  Biso   1.000  C
  C613     1.0000 0.81321  0.92290  0.11759  Biso   1.000  C
  C614     1.0000 0.10966  0.74650  0.03984  Biso   1.000  C
  C615     1.0000 0.01863  0.05580  0.81504  Biso   1.000  C
  C616     1.0000 0.29897  0.97237  0.42838  Biso   1.000  C
  C617     1.0000 0.60707  0.74163  0.52879  Biso   1.000  C
  C618     1.0000 0.51772  0.04287  0.73322  Biso   1.000  C
  C619     1.0000 0.72135  0.44918  0.13855  Biso   1.000  C
  C620     1.0000 0.41365  0.24670  0.03245  Biso   1.000  C
  C621     1.0000 0.51741  0.54510  0.82117  Biso   1.000  C
  C622     1.0000 0.21945  0.46491  0.42417  Biso   1.000  C
  C623     1.0000 0.91140  0.24126  0.53474  Biso   1.000  C
  C624     1.0000 0.01722  0.55919  0.72746  Biso   1.000  C
  C625     1.0000 0.03448  0.15668  0.92303  Biso   1.000  C
  C626     1.0000 0.90850  0.95774  0.22850  Biso   1.000  C
  C627     1.0000 0.21976  0.84718  0.03901  Biso   1.000  C
  C628     1.0000 0.49188  0.14883  0.62893  Biso   1.000  C
  C629     1.0000 0.40702  0.95904  0.32125  Biso   1.000  C
  C630     1.0000 0.71553  0.84273  0.52469  Biso   1.000  C
  C631     1.0000 0.50730  0.65379  0.92744  Biso   1.000  C
  C632     1.0000 0.61242  0.46651  0.24505  Biso   1.000  C
  C633     1.0000 0.30529  0.35059  0.02278  Biso   1.000  C
  C634     1.0000 0.03458  0.66306  0.61825  Biso   1.000  C
  C635     1.0000 0.11414  0.43797  0.31776  Biso   1.000  C
  C636     1.0000 0.79985  0.34776  0.52906  Biso   1.000  C
  C637     1.0000 0.99788  0.74499  0.12419  Biso   1.000  C
  C638     1.0000 0.11563  0.97473  0.81574  Biso   1.000  C
  C639     1.0000 0.81166  0.05249  0.01988  Biso   1.000  C
  C640     1.0000 0.49927  0.74724  0.42542  Biso   1.000  C
  C641     1.0000 0.61309  0.93365  0.72990  Biso   1.000  C
  C642     1.0000 0.30150  0.05655  0.54236  Biso   1.000  C
  C643     1.0000 0.52780  0.24793  0.12613  Biso   1.000  C
  C644     1.0000 0.41190  0.44133  0.81876  Biso   1.000  C
  C645     1.0000 0.72977  0.55260  0.03084  Biso   1.000  C
  C646     1.0000 0.02044  0.24625  0.43079  Biso   1.000  C
  C647     1.0000 0.91418  0.45513  0.73753  Biso   1.000  C
  C648     1.0000 0.22120  0.55949  0.51876  Biso   1.000  C
  C649     1.0000 0.01013  0.65504  0.41614  Biso   1.000  C
  C650     1.0000 0.41346  0.97201  0.73315  Biso   1.000  C
  C651     1.0000 0.72009  0.34645  0.02471  Biso   1.000  C
  C652     1.0000 0.51612  0.65809  0.13069  Biso   1.000  C
  C653     1.0000 0.91236  0.96317  0.81252  Biso   1.000  C
  C654     1.0000 0.21716  0.35823  0.51100  Biso   1.000  C
  C655     1.0000 0.51947  0.16502  0.42368  Biso   1.000  C
  C656     1.0000 0.11763  0.45380  0.73053  Biso   1.000  C
  C657     1.0000 0.80206  0.85478  0.02665  Biso   1.000  C
  C658     1.0000 0.01417  0.15923  0.12978  Biso   1.000  C
  C659     1.0000 0.61503  0.45112  0.82394  Biso   1.000  C
  C660     1.0000 0.29495  0.85786  0.51777  Biso   1.000  C
  C661     1.0000 0.01140  0.25064  0.63469  Biso   1.000  C
  C662     1.0000 0.61204  0.94769  0.31020  Biso   1.000  C
  C663     1.0000 0.30712  0.55028  0.02870  Biso   1.000  C
  C664     1.0000 0.51309  0.23621  0.92165  Biso   1.000  C
  C665     1.0000 0.11235  0.95374  0.23492  Biso   1.000  C
  C666     1.0000 0.80065  0.54820  0.52368  Biso   1.000  C
  C667     1.0000 0.50199  0.74097  0.62703  Biso   1.000  C
  C668     1.0000 0.91029  0.45936  0.32235  Biso   1.000  C
  C669     1.0000 0.22304  0.04579  0.01350  Biso   1.000  C
  C670     1.0000 0.01519  0.74760  0.91980  Biso   1.000  C
  C671     1.0000 0.41283  0.43389  0.23147  Biso   1.000  C
  C672     1.0000 0.71827  0.04615  0.51908  Biso   1.000  C
  C673     1.0000 0.21085  0.97356  0.83002  Biso   1.000  C
  C674     1.0000 0.82227  0.14676  0.01516  Biso   1.000  C
  C675     1.0000 0.00319  0.75792  0.21729  Biso   1.000  C
  C676     1.0000 0.70681  0.94754  0.71631  Biso   1.000  C
  C677     1.0000 0.31594  0.15117  0.53829  Biso   1.000  C
  C678     1.0000 0.50113  0.75847  0.33018  Biso   1.000  C
  C679     1.0000 0.31647  0.45680  0.82642  Biso   1.000  C
  C680     1.0000 0.70933  0.64521  0.01740  Biso   1.000  C
  C681     1.0000 0.52351  0.25984  0.22068  Biso   1.000  C
  C682     1.0000 0.81700  0.45112  0.72768  Biso   1.000  C
  C683     1.0000 0.20707  0.65411  0.50636  Biso   1.000  C
  C684     1.0000 0.01124  0.24877  0.33739  Biso   1.000  C
  C685     1.0000 0.81981  0.92846  0.21453  Biso   1.000  C
  C686     1.0000 0.20553  0.75507  0.04378  Biso   1.000  C
  C687     1.0000 0.02595  0.14987  0.82911  Biso   1.000  C
  C688     1.0000 0.31572  0.97067  0.33071  Biso   1.000  C
  C689     1.0000 0.70159  0.75010  0.53641  Biso   1.000  C
  C690     1.0000 0.51149  0.13658  0.72172  Biso   1.000  C
  C691     1.0000 0.70750  0.46347  0.23233  Biso   1.000  C
  C692     1.0000 0.31825  0.25877  0.02172  Biso   1.000  C
  C693     1.0000 0.51387  0.63827  0.83242  Biso   1.000  C
  C694     1.0000 0.20897  0.44327  0.33189  Biso   1.000  C
  C695     1.0000 0.81481  0.25152  0.53065  Biso   1.000  C
  C696     1.0000 0.02544  0.65072  0.71421  Biso   1.000  C
  C697     1.0000 0.70855  0.93405  0.32221  Biso   1.000  C
  C698     1.0000 0.31533  0.64530  0.03561  Biso   1.000  C
  C699     1.0000 0.02087  0.26686  0.72693  Biso   1.000  C
  C700     1.0000 0.20876  0.95541  0.22203  Biso   1.000  C
  C701     1.0000 0.81157  0.64274  0.53307  Biso   1.000  C
  C702     1.0000 0.52058  0.24656  0.82846  Biso   1.000  C
  C703     1.0000 0.81620  0.46362  0.33613  Biso   1.000  C
  C704     1.0000 0.21305  0.14259  0.02461  Biso   1.000  C
  C705     1.0000 0.51341  0.74935  0.72295  Biso   1.000  C
  C706     1.0000 0.31828  0.43745  0.22222  Biso   1.000  C
  C707     1.0000 0.70586  0.14247  0.53034  Biso   1.000  C
  C708     1.0000 0.02082  0.76133  0.82269  Biso   1.000  C
  C709     1.0000 0.32066  0.97740  0.72365  Biso   1.000  C
  C710     1.0000 0.71014  0.25447  0.01252  Biso   1.000  C
  C711     1.0000 0.00667  0.64008  0.32209  Biso   1.000  C
  C712     1.0000 0.81827  0.96118  0.82160  Biso   1.000  C
  C713     1.0000 0.20732  0.26409  0.53211  Biso   1.000  C
  C714     1.0000 0.50817  0.64603  0.22338  Biso   1.000  C
  C715     1.0000 0.21213  0.45410  0.71365  Biso   1.000  C
  C716     1.0000 0.81215  0.75754  0.01890  Biso   1.000  C
  C717     1.0000 0.52319  0.14619  0.32827  Biso   1.000  C
  C718     1.0000 0.70778  0.45600  0.84000  Biso   1.000  C
  C719     1.0000 0.30623  0.76588  0.50875  Biso   1.000  C
  C720     1.0000 0.00860  0.14512  0.22554  Biso   1.000  C
  C721     1.0000 0.52237  0.75932  0.30670  Biso   1.000  C
  C722     1.0000 0.32211  0.47388  0.79971  Biso   1.000  C
  C723     1.0000 0.78524  0.25428  0.54252  Biso   1.000  C
  C724     1.0000 0.98220  0.73448  0.21490  Biso   1.000  C
  C725     1.0000 0.79034  0.46815  0.72628  Biso   1.000  C
  C726     1.0000 0.29231  0.25836  0.00318  Biso   1.000  C
  C727     1.0000 0.99580  0.22271  0.34346  Biso   1.000  C
  C728     1.0000 0.23300  0.99447  0.83478  Biso   1.000  C
  C729     1.0000 0.72880  0.75630  0.55258  Biso   1.000  C
  C730     1.0000 0.50286  0.26108  0.24514  Biso   1.000  C
  C731     1.0000 0.73575  0.93476  0.70914  Biso   1.000  C
  C732     1.0000 0.22875  0.75867  0.02276  Biso   1.000  C
  C733     1.0000 0.50128  0.13259  0.75201  Biso   1.000  C
  C734     1.0000 0.70384  0.44983  0.26119  Biso   1.000  C
  C735     1.0000 0.20093  0.68073  0.49080  Biso   1.000  C
  C736     1.0000 0.01036  0.17740  0.83516  Biso   1.000  C
  C737     1.0000 0.23863  0.43156  0.33786  Biso   1.000  C
  C738     1.0000 0.73482  0.64541  0.03557  Biso   1.000  C
  C739     1.0000 0.04154  0.64699  0.74189  Biso   1.000  C
  C740     1.0000 0.82626  0.91730  0.24357  Biso   1.000  C
  C741     1.0000 0.28751  0.14738  0.52380  Biso   1.000  C
  C742     1.0000 0.53092  0.63668  0.80585  Biso   1.000  C
  C743     1.0000 0.31947  0.95181  0.30547  Biso   1.000  C
  C744     1.0000 0.82166  0.16900  0.03636  Biso   1.000  C
  C745     1.0000 0.02395  0.66496  0.32480  Biso   1.000  C
  C746     1.0000 0.29553  0.99379  0.71609  Biso   1.000  C
  C747     1.0000 0.73569  0.25604  0.03090  Biso   1.000  C
  C748     1.0000 0.52787  0.66968  0.22237  Biso   1.000  C
  C749     1.0000 0.82151  0.94113  0.79758  Biso   1.000  C
  C750     1.0000 0.23724  0.26829  0.54391  Biso   1.000  C
  C751     1.0000 0.54042  0.14402  0.30130  Biso   1.000  C
  C752     1.0000 0.23997  0.43846  0.70996  Biso   1.000  C
  C753     1.0000 0.78198  0.76300  0.00693  Biso   1.000  C
  C754     1.0000 0.02511  0.14219  0.25249  Biso   1.000  C
  C755     1.0000 0.70719  0.43777  0.81504  Biso   1.000  C
  C756     1.0000 0.28232  0.76418  0.52994  Biso   1.000  C
  C757     1.0000 0.00202  0.24317  0.72479  Biso   1.000  C
  C758     1.0000 0.70950  0.95158  0.29481  Biso   1.000  C
  C759     1.0000 0.28727  0.64020  0.05074  Biso   1.000  C
  C760     1.0000 0.53956  0.24895  0.80346  Biso   1.000  C
  C761     1.0000 0.23175  0.97432  0.21638  Biso   1.000  C
  C762     1.0000 0.81386  0.67198  0.52042  Biso   1.000  C
  C763     1.0000 0.49936  0.75301  0.75162  Biso   1.000  C
  C764     1.0000 0.78932  0.47731  0.34398  Biso   1.000  C
  C765     1.0000 0.24338  0.13643  0.03350  Biso   1.000  C
  C766     1.0000 0.00705  0.76640  0.79437  Biso   1.000  C
  C767     1.0000 0.32572  0.44999  0.25050  Biso   1.000  C
  C768     1.0000 0.70035  0.16948  0.51580  Biso   1.000  C
  C769     1.0000 0.49444  0.66315  0.83608  Biso   1.000  C
  C770     1.0000 0.82185  0.43504  0.75509  Biso   1.000  C
  C771     1.0000 0.69852  0.72101  0.52246  Biso   1.000  C
  C772     1.0000 0.01069  0.67766  0.71010  Biso   1.000  C
  C773     1.0000 0.28795  0.44171  0.82784  Biso   1.000  C
  C774     1.0000 0.20240  0.72883  0.05999  Biso   1.000  C
  C775     1.0000 0.04094  0.14880  0.80067  Biso   1.000  C
  C776     1.0000 0.70242  0.95983  0.74449  Biso   1.000  C
  C777     1.0000 0.82199  0.22336  0.51646  Biso   1.000  C
  C778     1.0000 0.52648  0.16520  0.71650  Biso   1.000  C
  C779     1.0000 0.21130  0.96276  0.79996  Biso   1.000  C
  C780     1.0000 0.32320  0.23249  0.03991  Biso   1.000  C
  C781     1.0000 0.53912  0.23209  0.21780  Biso   1.000  C
  C782     1.0000 0.20442  0.45258  0.30167  Biso   1.000  C
  C783     1.0000 0.31980  0.17777  0.55528  Biso   1.000  C
  C784     1.0000 0.02584  0.25067  0.30800  Biso   1.000  C
  C785     1.0000 0.73261  0.48091  0.22743  Biso   1.000  C
  C786     1.0000 0.79923  0.14536  0.99212  Biso   1.000  C
  C787     1.0000 0.02157  0.75761  0.24166  Biso   1.000  C
  C788     1.0000 0.28889  0.98681  0.33036  Biso   1.000  C
  C789     1.0000 0.23292  0.65118  0.52421  Biso   1.000  C
  C790     1.0000 0.48124  0.73450  0.33187  Biso   1.000  C
  C791     1.0000 0.78901  0.93655  0.20939  Biso   1.000  C
  C792     1.0000 0.70600  0.66753  0.99601  Biso   1.000  C
  C793     1.0000 0.50509  0.17156  0.33093  Biso   1.000  C
  C794     1.0000 0.28946  0.42715  0.21793  Biso   1.000  C
  C795     1.0000 0.20085  0.23361  0.52357  Biso   1.000  C
  C796     1.0000 0.99224  0.17200  0.22240  Biso   1.000  C
  C797     1.0000 0.82025  0.45348  0.30661  Biso   1.000  C
  C798     1.0000 0.70716  0.22774  0.99511  Biso   1.000  C
  C799     1.0000 0.98658  0.63834  0.29752  Biso   1.000  C
  C800     1.0000 0.20739  0.93975  0.25056  Biso   1.000  C
  C801     1.0000 0.31060  0.74272  0.48781  Biso   1.000  C
  C802     1.0000 0.48551  0.64604  0.24612  Biso   1.000  C
  C803     1.0000 0.73194  0.91363  0.32830  Biso   1.000  C
  C804     1.0000 0.81755  0.72857  0.03056  Biso   1.000  C
  C805     1.0000 0.52609  0.72009  0.71772  Biso   1.000  C
  C806     1.0000 0.73395  0.47400  0.84322  Biso   1.000  C
  C807     1.0000 0.78641  0.63711  0.55233  Biso   1.000  C
  C808     1.0000 0.03834  0.73509  0.82686  Biso   1.000  C
  C809     1.0000 0.20805  0.47277  0.74035  Biso   1.000  C
  C810     1.0000 0.31847  0.67349  0.02041  Biso   1.000  C
  C811     1.0000 0.03856  0.26804  0.75430  Biso   1.000  C
  C812     1.0000 0.78999  0.97656  0.82305  Biso   1.000  C
  C813     1.0000 0.73511  0.13869  0.54294  Biso   1.000  C
  C814     1.0000 0.50414  0.22178  0.83239  Biso   1.000  C
  C815     1.0000 0.32407  0.96744  0.75447  Biso   1.000  C
  C816     1.0000 0.20579  0.17075  0.01334  Biso   1.000  C
  C817     1.0000 0.00812  0.19947  0.81357  Biso   1.000  C
  C818     1.0000 0.80580  0.91749  0.26553  Biso   1.000  C
  C819     1.0000 0.24935  0.73750  0.02231  Biso   1.000  C
  C820     1.0000 0.50524  0.15336  0.77326  Biso   1.000  C
  C821     1.0000 0.29868  0.95129  0.28372  Biso   1.000  C
  C822     1.0000 0.75024  0.73424  0.55363  Biso   1.000  C
  C823     1.0000 0.53093  0.65959  0.78607  Biso   1.000  C
  C824     1.0000 0.72513  0.45509  0.28151  Biso   1.000  C
  C825     1.0000 0.27355  0.23351  0.00499  Biso   1.000  C
  C826     1.0000 0.04248  0.67050  0.76149  Biso   1.000  C
  C827     1.0000 0.26000  0.42871  0.31675  Biso   1.000  C
  C828     1.0000 0.76448  0.23247  0.53842  Biso   1.000  C
  C829     1.0000 0.98340  0.71257  0.23569  Biso   1.000  C
  C830     1.0000 0.25309  0.00414  0.81282  Biso   1.000  C
  C831     1.0000 0.79904  0.18920  0.03546  Biso   1.000  C
  C832     1.0000 0.52148  0.73866  0.28434  Biso   1.000  C
  C833     1.0000 0.75717  0.93818  0.72990  Biso   1.000  C
  C834     1.0000 0.26741  0.16970  0.52253  Biso   1.000  C
  C835     1.0000 0.49920  0.23857  0.26310  Biso   1.000  C
  C836     1.0000 0.30151  0.47267  0.77680  Biso   1.000  C
  C837     1.0000 0.75555  0.66653  0.03351  Biso   1.000  C
  C838     1.0000 0.99274  0.20158  0.32208  Biso   1.000  C
  C839     1.0000 0.76928  0.46942  0.74973  Biso   1.000  C
  C840     1.0000 0.22143  0.70244  0.49029  Biso   1.000  C
  C841     1.0000 0.23152  0.97149  0.77933  Biso   1.000  C
  C842     1.0000 0.77829  0.16665  0.99109  Biso   1.000  C
  C843     1.0000 0.02289  0.73366  0.26078  Biso   1.000  C
  C844     1.0000 0.72339  0.96031  0.76539  Biso   1.000  C
  C845     1.0000 0.29600  0.19783  0.55636  Biso   1.000  C
  C846     1.0000 0.48113  0.71326  0.31040  Biso   1.000  C
  C847     1.0000 0.27162  0.43865  0.80436  Biso   1.000  C
  C848     1.0000 0.72625  0.69100  0.99665  Biso   1.000  C
  C849     1.0000 0.53587  0.21022  0.23780  Biso   1.000  C
  C850     1.0000 0.80117  0.43492  0.77804  Biso   1.000  C
  C851     1.0000 0.25277  0.67357  0.52386  Biso   1.000  C
  C852     1.0000 0.02174  0.23072  0.28878  Biso   1.000  C
  C853     1.0000 0.76730  0.93513  0.23264  Biso   1.000  C
  C854     1.0000 0.22163  0.70674  0.05394  Biso   1.000  C
  C855     1.0000 0.03942  0.17235  0.78067  Biso   1.000  C
  C856     1.0000 0.27002  0.98594  0.30720  Biso   1.000  C
  C857     1.0000 0.72041  0.69995  0.52703  Biso   1.000  C
  C858     1.0000 0.52833  0.18492  0.73754  Biso   1.000  C
  C859     1.0000 0.75282  0.48463  0.24840  Biso   1.000  C
  C860     1.0000 0.30375  0.20922  0.03995  Biso   1.000  C
  C861     1.0000 0.49254  0.68310  0.81352  Biso   1.000  C
  C862     1.0000 0.22671  0.45127  0.28099  Biso   1.000  C
  C863     1.0000 0.80026  0.20315  0.51262  Biso   1.000  C
  C864     1.0000 0.01076  0.69882  0.73165  Biso   1.000  C
  C865     1.0000 0.72944  0.43669  0.79467  Biso   1.000  C
  C866     1.0000 0.79223  0.69206  0.52381  Biso   1.000  C
  C867     1.0000 0.49907  0.73036  0.77194  Biso   1.000  C
  C868     1.0000 0.26271  0.44094  0.73167  Biso   1.000  C
  C869     1.0000 0.26622  0.66249  0.05048  Biso   1.000  C
  C870     1.0000 0.00984  0.74593  0.77382  Biso   1.000  C
  C871     1.0000 0.80060  0.93860  0.77633  Biso   1.000  C
  C872     1.0000 0.72268  0.18880  0.51125  Biso   1.000  C
  C873     1.0000 0.00424  0.22133  0.74544  Biso   1.000  C
  C874     1.0000 0.27362  0.00051  0.73693  Biso   1.000  C
  C875     1.0000 0.26552  0.15769  0.03176  Biso   1.000  C
  C876     1.0000 0.53990  0.22525  0.78472  Biso   1.000  C
  C877     1.0000 0.30481  0.44819  0.27315  Biso   1.000  C
  C878     1.0000 0.25713  0.24475  0.54466  Biso   1.000  C
  C879     1.0000 0.53841  0.16469  0.27940  Biso   1.000  C
  C880     1.0000 0.76762  0.47924  0.32418  Biso   1.000  C
  C881     1.0000 0.75714  0.23512  0.03108  Biso   1.000  C
  C882     1.0000 0.02201  0.16057  0.27541  Biso   1.000  C
  C883     1.0000 0.25154  0.98023  0.23833  Biso   1.000  C
  C884     1.0000 0.26212  0.74332  0.52763  Biso   1.000  C
  C885     1.0000 0.02088  0.68877  0.30491  Biso   1.000  C
  C886     1.0000 0.73387  0.95095  0.27733  Biso   1.000  C
  C887     1.0000 0.76296  0.74115  0.00604  Biso   1.000  C
  C888     1.0000 0.52476  0.69347  0.24096  Biso   1.000  C
  C889     1.0000 0.75646  0.91458  0.30898  Biso   1.000  C
  C890     1.0000 0.29530  0.69386  0.02214  Biso   1.000  C
  C891     1.0000 0.03982  0.24526  0.77411  Biso   1.000  C
  C892     1.0000 0.22977  0.94332  0.26974  Biso   1.000  C
  C893     1.0000 0.76536  0.65861  0.55564  Biso   1.000  C
  C894     1.0000 0.50321  0.20130  0.81131  Biso   1.000  C
  C895     1.0000 0.79781  0.45697  0.28690  Biso   1.000  C
  C896     1.0000 0.22661  0.19218  0.01672  Biso   1.000  C
  C897     1.0000 0.52356  0.69898  0.73835  Biso   1.000  C
  C898     1.0000 0.26862  0.42796  0.24084  Biso   1.000  C
  C899     1.0000 0.75629  0.16000  0.53780  Biso   1.000  C
  C900     1.0000 0.03607  0.71371  0.80617  Biso   1.000  C
  C901     1.0000 0.30231  0.97577  0.77542  Biso   1.000  C
  C902     1.0000 0.72928  0.20601  0.99606  Biso   1.000  C
  C903     1.0000 0.98724  0.66069  0.27632  Biso   1.000  C
  C904     1.0000 0.76914  0.97206  0.80290  Biso   1.000  C
  C905     1.0000 0.22179  0.21135  0.52693  Biso   1.000  C
  C906     1.0000 0.48491  0.66827  0.26650  Biso   1.000  C
  C907     1.0000 0.23053  0.47312  0.76139  Biso   1.000  C
  C908     1.0000 0.79717  0.70739  0.02916  Biso   1.000  C
  C909     1.0000 0.50355  0.19150  0.30915  Biso   1.000  C
  C910     1.0000 0.75537  0.47331  0.82181  Biso   1.000  C
  C911     1.0000 0.28836  0.72282  0.48628  Biso   1.000  C
  C912     1.0000 0.99064  0.19228  0.24523  Biso   1.000  C
  C913     1.0000 0.77579  0.45260  0.77392  Biso   1.000  C
  C914     1.0000 0.74556  0.70715  0.54168  Biso   1.000  C
  C915     1.0000 0.51251  0.68319  0.79002  Biso   1.000  C
  C916     1.0000 0.27820  0.45429  0.78032  Biso   1.000  C
  C917     1.0000 0.24646  0.71266  0.03802  Biso   1.000  C
  C918     1.0000 0.02637  0.69537  0.75815  Biso   1.000  C
  C919     1.0000 0.75097  0.95132  0.75707  Biso   1.000  C
  C920     1.0000 0.77191  0.20896  0.52171  Biso   1.000  C
  C921     1.0000 0.02498  0.19768  0.78894  Biso   1.000  C
  C922     1.0000 0.25206  0.99240  0.78547  Biso   1.000  C
  C923     1.0000 0.27770  0.20867  0.02211  Biso   1.000  C
  C924     1.0000 0.51853  0.17955  0.76602  Biso   1.000  C
  C925     1.0000 0.25453  0.44090  0.28899  Biso   1.000  C
  C926     1.0000 0.27192  0.19475  0.53794  Biso   1.000  C
  C927     1.0000 0.51651  0.21245  0.26113  Biso   1.000  C
  C928     1.0000 0.74833  0.47265  0.27571  Biso   1.000  C
  C929     1.0000 0.77902  0.18867  0.01252  Biso   1.000  C
  C930     1.0000 0.00558  0.20606  0.29507  Biso   1.000  C
  C931     1.0000 0.27371  0.96687  0.28455  Biso   1.000  C
  C932     1.0000 0.24635  0.69860  0.50675  Biso   1.000  C
  C933     1.0000 0.00426  0.71108  0.25811  Biso   1.000  C
  C934     1.0000 0.77750  0.92728  0.25985  Biso   1.000  C
  C935     1.0000 0.75043  0.69004  0.01394  Biso   1.000  C
  C936     1.0000 0.50050  0.71548  0.28584  Biso   1.000  C
  C937     1.0000 0.75388  0.21060  0.01362  Biso   1.000  C
  C938     1.0000 0.00285  0.68654  0.28137  Biso   1.000  C
  C939     1.0000 0.27874  0.99182  0.76627  Biso   1.000  C
  C940     1.0000 0.25018  0.21771  0.53524  Biso   1.000  C
  C941     1.0000 0.50487  0.69081  0.26448  Biso   1.000  C
  C942     1.0000 0.77433  0.95626  0.77803  Biso   1.000  C
  C943     1.0000 0.77083  0.71394  0.01567  Biso   1.000  C
  C944     1.0000 0.52122  0.18973  0.28327  Biso   1.000  C
  C945     1.0000 0.25642  0.45703  0.75740  Biso   1.000  C
  C946     1.0000 0.26578  0.72250  0.50640  Biso   1.000  C
  C947     1.0000 0.00488  0.18546  0.27179  Biso   1.000  C
  C948     1.0000 0.75319  0.45449  0.79711  Biso   1.000  C
  C949     1.0000 0.26948  0.68766  0.03591  Biso   1.000  C
  C950     1.0000 0.02209  0.22245  0.76818  Biso   1.000  C
  C951     1.0000 0.75500  0.93071  0.28293  Biso   1.000  C
  C952     1.0000 0.76831  0.68533  0.54154  Biso   1.000  C
  C953     1.0000 0.52024  0.20275  0.78763  Biso   1.000  C
  C954     1.0000 0.24977  0.96416  0.26396  Biso   1.000  C
  C955     1.0000 0.25651  0.18558  0.02530  Biso   1.000  C
  C956     1.0000 0.51029  0.70419  0.76630  Biso   1.000  C
  C957     1.0000 0.77268  0.47133  0.29645  Biso   1.000  C
  C958     1.0000 0.75159  0.18415  0.52182  Biso   1.000  C
  C959     1.0000 0.02419  0.71977  0.77967  Biso   1.000  C
  C960     1.0000 0.27611  0.43921  0.26640  Biso   1.000  C
  Cu1      1.0000 0.01285  0.45471  0.67737  Biso   1.000  Cu
  Cu2      1.0000 0.66416  0.94526  0.51879  Biso   1.000  Cu
  Cu3      1.0000 0.51162  0.60232  0.03130  Biso   1.000  Cu
  Cu4      1.0000 0.51215  0.44217  0.87636  Biso   1.000  Cu
  Cu5      1.0000 0.16513  0.94621  0.02953  Biso   1.000  Cu
  Cu6      1.0000 0.01247  0.60437  0.51915  Biso   1.000  Cu
  Cu7      1.0000 0.51261  0.94304  0.68024  Biso   1.000  Cu
  Cu8      1.0000 0.85584  0.44697  0.53070  Biso   1.000  Cu
  Cu9      1.0000 0.02005  0.10353  0.02493  Biso   1.000  Cu
  Cu10     1.0000 0.01526  0.95552  0.86971  Biso   1.000  Cu
  Cu11     1.0000 0.35847  0.45160  0.02179  Biso   1.000  Cu
  Cu12     1.0000 0.50973  0.10353  0.52399  Biso   1.000  Cu
  Cu13     1.0000 0.01353  0.44518  0.37058  Biso   1.000  Cu
  Cu14     1.0000 0.35440  0.95469  0.53056  Biso   1.000  Cu
  Cu15     1.0000 0.51724  0.29793  0.02100  Biso   1.000  Cu
  Cu16     1.0000 0.51533  0.45290  0.18132  Biso   1.000  Cu
  Cu17     1.0000 0.86028  0.94991  0.01735  Biso   1.000  Cu
  Cu18     1.0000 0.00754  0.30405  0.53091  Biso   1.000  Cu
  Cu19     1.0000 0.51024  0.95107  0.37091  Biso   1.000  Cu
  Cu20     1.0000 0.16476  0.45975  0.52291  Biso   1.000  Cu
  Cu21     1.0000 0.00634  0.80010  0.02161  Biso   1.000  Cu
  Cu22     1.0000 0.01274  0.95689  0.17752  Biso   1.000  Cu
  Cu23     1.0000 0.66825  0.44950  0.03614  Biso   1.000  Cu
  Cu24     1.0000 0.50529  0.80250  0.52760  Biso   1.000  Cu
  Cu25     1.0000 0.21947  0.94366  0.02441  Biso   1.000  Cu
  Cu26     1.0000 0.01948  0.15839  0.02650  Biso   1.000  Cu
  Cu27     1.0000 0.00984  0.95090  0.23336  Biso   1.000  Cu
  Cu28     1.0000 0.71860  0.94530  0.52015  Biso   1.000  Cu
  Cu29     1.0000 0.51239  0.15767  0.52858  Biso   1.000  Cu
  Cu30     1.0000 0.50762  0.95266  0.31618  Biso   1.000  Cu
  Cu31     1.0000 0.30428  0.44913  0.02351  Biso   1.000  Cu
  Cu32     1.0000 0.51120  0.65682  0.02665  Biso   1.000  Cu
  Cu33     1.0000 0.51023  0.45141  0.23669  Biso   1.000  Cu
  Cu34     1.0000 0.80289  0.44888  0.52881  Biso   1.000  Cu
  Cu35     1.0000 0.00748  0.65725  0.51721  Biso   1.000  Cu
  Cu36     1.0000 0.01228  0.44750  0.31579  Biso   1.000  Cu
  Cu37     1.0000 0.80641  0.95358  0.02016  Biso   1.000  Cu
  Cu38     1.0000 0.01180  0.74540  0.02043  Biso   1.000  Cu
  Cu39     1.0000 0.01385  0.95433  0.81488  Biso   1.000  Cu
  Cu40     1.0000 0.29911  0.95741  0.53090  Biso   1.000  Cu
  Cu41     1.0000 0.50394  0.74774  0.52554  Biso   1.000  Cu
  Cu42     1.0000 0.51283  0.94467  0.73752  Biso   1.000  Cu
  Cu43     1.0000 0.72236  0.44743  0.03517  Biso   1.000  Cu
  Cu44     1.0000 0.51434  0.24488  0.02509  Biso   1.000  Cu
  Cu45     1.0000 0.51336  0.44517  0.82263  Biso   1.000  Cu
  Cu46     1.0000 0.21847  0.45769  0.51923  Biso   1.000  Cu
  Cu47     1.0000 0.01342  0.25120  0.53209  Biso   1.000  Cu
  Cu48     1.0000 0.01432  0.45865  0.73078  Biso   1.000  Cu
  H1       1.0000 0.24374  0.74360  0.54252  Biso   1.000  H
  H2       1.0000 0.55777  0.22979  0.76819  Biso   1.000  H
  H3       1.0000 0.74482  0.48565  0.32932  Biso   1.000  H
  H4       1.0000 0.74095  0.74557  0.99720  Biso   1.000  H
  H5       1.0000 0.98967  0.20318  0.74514  Biso   1.000  H
  H6       1.0000 0.31042  0.46101  0.29210  Biso   1.000  H
  H7       1.0000 0.27902  0.24975  0.55092  Biso   1.000  H
  H8       1.0000 0.00162  0.74959  0.75181  Biso   1.000  H
  H9       1.0000 0.73638  0.96766  0.26048  Biso   1.000  H
  H10      1.0000 0.77759  0.24111  0.04189  Biso   1.000  H
  H11      1.0000 0.49197  0.73709  0.79284  Biso   1.000  H
  H12      1.0000 0.26721  0.99724  0.23509  Biso   1.000  H
  H13      1.0000 0.71633  0.20967  0.50182  Biso   1.000  H
  H14      1.0000 0.53672  0.71159  0.23797  Biso   1.000  H
  H15      1.0000 0.28338  0.42929  0.73148  Biso   1.000  H
  H16      1.0000 0.28648  0.15583  0.04039  Biso   1.000  H
  H17      1.0000 0.03416  0.70644  0.30895  Biso   1.000  H
  H18      1.0000 0.72472  0.42576  0.77530  Biso   1.000  H
  H19      1.0000 0.79506  0.71296  0.51363  Biso   1.000  H
  H20      1.0000 0.03586  0.15709  0.29490  Biso   1.000  H
  H21      1.0000 0.25419  0.01463  0.72977  Biso   1.000  H
  H22      1.0000 0.24675  0.65901  0.06451  Biso   1.000  H
  H23      1.0000 0.55029  0.16214  0.25952  Biso   1.000  H
  H24      1.0000 0.80350  0.92311  0.75956  Biso   1.000  H
  H25      1.0000 0.27062  0.01982  0.81707  Biso   1.000  H
  H26      1.0000 0.80090  0.20860  0.04879  Biso   1.000  H
  H27      1.0000 0.96893  0.69346  0.23467  Biso   1.000  H
  H28      1.0000 0.78016  0.93274  0.72242  Biso   1.000  H
  H29      1.0000 0.24882  0.16515  0.50767  Biso   1.000  H
  H30      1.0000 0.53638  0.74125  0.26496  Biso   1.000  H
  H31      1.0000 0.30562  0.48461  0.75645  Biso   1.000  H
  H32      1.0000 0.77338  0.66453  0.04670  Biso   1.000  H
  H33      1.0000 0.48591  0.24329  0.28275  Biso   1.000  H
  H34      1.0000 0.75121  0.48518  0.74802  Biso   1.000  H
  H35      1.0000 0.21642  0.72203  0.47689  Biso   1.000  H
  H36      1.0000 0.98011  0.18302  0.32855  Biso   1.000  H
  H37      1.0000 0.81417  0.90970  0.28610  Biso   1.000  H
  H38      1.0000 0.26873  0.74286  0.00898  Biso   1.000  H
  H39      1.0000 0.99222  0.21696  0.81772  Biso   1.000  H
  H40      1.0000 0.30171  0.93626  0.26567  Biso   1.000  H
  H41      1.0000 0.77129  0.73757  0.56468  Biso   1.000  H
  H42      1.0000 0.49666  0.14902  0.79424  Biso   1.000  H
  H43      1.0000 0.72339  0.44178  0.30280  Biso   1.000  H
  H44      1.0000 0.25548  0.23351  0.99087  Biso   1.000  H
  H45      1.0000 0.54858  0.66078  0.77048  Biso   1.000  H
  H46      1.0000 0.28113  0.42053  0.32177  Biso   1.000  H
  H47      1.0000 0.74163  0.23556  0.54561  Biso   1.000  H
  H48      1.0000 0.05338  0.66670  0.78223  Biso   1.000  H
  H49      1.0000 0.22354  0.46178  0.26022  Biso   1.000  H
  H50      1.0000 0.29624  0.21653  0.57042  Biso   1.000  H
  H51      1.0000 0.54859  0.19051  0.23518  Biso   1.000  H
  H52      1.0000 0.77402  0.49487  0.24483  Biso   1.000  H
  H53      1.0000 0.75964  0.16265  0.97745  Biso   1.000  H
  H54      1.0000 0.03432  0.23350  0.26809  Biso   1.000  H
  H55      1.0000 0.25073  0.00069  0.30842  Biso   1.000  H
  H56      1.0000 0.27051  0.67342  0.54002  Biso   1.000  H
  H57      1.0000 0.03617  0.73513  0.27953  Biso   1.000  H
  H58      1.0000 0.74610  0.94107  0.22669  Biso   1.000  H
  H59      1.0000 0.72485  0.70730  0.97936  Biso   1.000  H
  H60      1.0000 0.46585  0.69598  0.31138  Biso   1.000  H
  H61      1.0000 0.80647  0.42456  0.79733  Biso   1.000  H
  H62      1.0000 0.71753  0.67835  0.51706  Biso   1.000  H
  H63      1.0000 0.47872  0.70243  0.81781  Biso   1.000  H
  H64      1.0000 0.25112  0.42840  0.80439  Biso   1.000  H
  H65      1.0000 0.21683  0.68575  0.06496  Biso   1.000  H
  H66      1.0000 0.99826  0.71932  0.72603  Biso   1.000  H
  H67      1.0000 0.71660  0.96645  0.78775  Biso   1.000  H
  H68      1.0000 0.80394  0.18185  0.50370  Biso   1.000  H
  H69      1.0000 0.05127  0.17250  0.76077  Biso   1.000  H
  H70      1.0000 0.23173  0.96124  0.75812  Biso   1.000  H
  H71      1.0000 0.30946  0.19126  0.05447  Biso   1.000  H
  H72      1.0000 0.53886  0.20455  0.73072  Biso   1.000  H
  H73      1.0000 0.77427  0.48802  0.82626  Biso   1.000  H
  H74      1.0000 0.74589  0.65483  0.56894  Biso   1.000  H
  H75      1.0000 0.52878  0.67616  0.73382  Biso   1.000  H
  H76      1.0000 0.22747  0.48452  0.78253  Biso   1.000  H
  H77      1.0000 0.29933  0.71380  0.01077  Biso   1.000  H
  H78      1.0000 0.04660  0.69328  0.80912  Biso   1.000  H
  H79      1.0000 0.74980  0.98454  0.80540  Biso   1.000  H
  H80      1.0000 0.77691  0.15761  0.54730  Biso   1.000  H
  H81      1.0000 0.05168  0.24574  0.79254  Biso   1.000  H
  H82      1.0000 0.30372  0.96781  0.79804  Biso   1.000  H
  H83      1.0000 0.22422  0.21553  0.01265  Biso   1.000  H
  H84      1.0000 0.48549  0.18678  0.81365  Biso   1.000  H
  H85      1.0000 0.24719  0.42312  0.23545  Biso   1.000  H
  H86      1.0000 0.21530  0.18990  0.51881  Biso   1.000  H
  H87      1.0000 0.48895  0.20958  0.31454  Biso   1.000  H
  H88      1.0000 0.79776  0.45152  0.26435  Biso   1.000  H
  H89      1.0000 0.72602  0.18765  0.98080  Biso   1.000  H
  H90      1.0000 0.97715  0.21220  0.24295  Biso   1.000  H
  H91      1.0000 0.23284  0.92952  0.28836  Biso   1.000  H
  H92      1.0000 0.29051  0.70530  0.47092  Biso   1.000  H
  H93      1.0000 0.97339  0.65737  0.25849  Biso   1.000  H
  H94      1.0000 0.77565  0.90128  0.31242  Biso   1.000  H
  H95      1.0000 0.80279  0.68725  0.03721  Biso   1.000  H
  H96      1.0000 0.46959  0.66538  0.28422  Biso   1.000  H
  H97      1.0000 0.87812  0.96024  0.92744  Biso   1.000  H
  H98      1.0000 0.91645  0.81836  0.01624  Biso   1.000  H
  H99      1.0000 0.01414  0.86260  0.88614  Biso   1.000  H
  H100     1.0000 0.37887  0.95159  0.61762  Biso   1.000  H
  H101     1.0000 0.41242  0.82349  0.52972  Biso   1.000  H
  H102     1.0000 0.50999  0.85305  0.65878  Biso   1.000  H
  H103     1.0000 0.64904  0.44362  0.94765  Biso   1.000  H
  H104     1.0000 0.60293  0.31592  0.01550  Biso   1.000  H
  H105     1.0000 0.51250  0.35061  0.89222  Biso   1.000  H
  H106     1.0000 0.14634  0.45284  0.61188  Biso   1.000  H
  H107     1.0000 0.10129  0.32651  0.52504  Biso   1.000  H
  H108     1.0000 0.00256  0.36717  0.66215  Biso   1.000  H
  H109     1.0000 0.14692  0.94715  0.11806  Biso   1.000  H
  H110     1.0000 0.10855  0.08176  0.02742  Biso   1.000  H
  H111     1.0000 0.99770  0.03984  0.16153  Biso   1.000  H
  H112     1.0000 0.64437  0.94715  0.43002  Biso   1.000  H
  H113     1.0000 0.60166  0.07762  0.53161  Biso   1.000  H
  H114     1.0000 0.51686  0.04583  0.39713  Biso   1.000  H
  H115     1.0000 0.37743  0.44143  0.11356  Biso   1.000  H
  H116     1.0000 0.42169  0.58377  0.03625  Biso   1.000  H
  H117     1.0000 0.51767  0.53965  0.16573  Biso   1.000  H
  H118     1.0000 0.87844  0.43631  0.43954  Biso   1.000  H
  H119     1.0000 0.91809  0.58079  0.51321  Biso   1.000  H
  H120     1.0000 0.00946  0.53890  0.38847  Biso   1.000  H
  H121     1.0000 0.10714  0.95420  0.88999  Biso   1.000  H
  H122     1.0000 0.88587  0.04191  0.02402  Biso   1.000  H
  H123     1.0000 0.00521  0.81867  0.10929  Biso   1.000  H
  H124     1.0000 0.60172  0.94178  0.65567  Biso   1.000  H
  H125     1.0000 0.37203  0.04488  0.51949  Biso   1.000  H
  H126     1.0000 0.51317  0.82062  0.43527  Biso   1.000  H
  H127     1.0000 0.41821  0.44339  0.89768  Biso   1.000  H
  H128     1.0000 0.65760  0.53794  0.03699  Biso   1.000  H
  H129     1.0000 0.52473  0.32079  0.10935  Biso   1.000  H
  H130     1.0000 0.91854  0.44055  0.66246  Biso   1.000  H
  H131     1.0000 0.14432  0.54877  0.52105  Biso   1.000  H
  H132     1.0000 0.01603  0.32075  0.43545  Biso   1.000  H
  H133     1.0000 0.91942  0.95482  0.14873  Biso   1.000  H
  H134     1.0000 0.14366  0.85738  0.02909  Biso   1.000  H
  H135     1.0000 0.02333  0.08167  0.93405  Biso   1.000  H
  H136     1.0000 0.41424  0.94944  0.39747  Biso   1.000  H
  H137     1.0000 0.64123  0.85615  0.52130  Biso   1.000  H
  H138     1.0000 0.50422  0.07420  0.61737  Biso   1.000  H
  H139     1.0000 0.60656  0.45026  0.16851  Biso   1.000  H
  H140     1.0000 0.38316  0.36183  0.02141  Biso   1.000  H
  H141     1.0000 0.50192  0.57895  0.93954  Biso   1.000  H
  H142     1.0000 0.10266  0.45643  0.39098  Biso   1.000  H
  H143     1.0000 0.87694  0.35665  0.53126  Biso   1.000  H
  H144     1.0000 0.02588  0.58610  0.60745  Biso   1.000  H
  H145     1.0000 0.60411  0.44853  0.90081  Biso   1.000  H
  H146     1.0000 0.87615  0.53730  0.52536  Biso   1.000  H
  H147     1.0000 0.51006  0.81487  0.61929  Biso   1.000  H
  H148     1.0000 0.10576  0.45990  0.65447  Biso   1.000  H
  H149     1.0000 0.38285  0.54410  0.02371  Biso   1.000  H
  H150     1.0000 0.01964  0.82206  0.92719  Biso   1.000  H
  H151     1.0000 0.92425  0.95928  0.88556  Biso   1.000  H
  H152     1.0000 0.64350  0.03485  0.52870  Biso   1.000  H
  H153     1.0000 0.00106  0.32505  0.62189  Biso   1.000  H
  H154     1.0000 0.42629  0.96024  0.66046  Biso   1.000  H
  H155     1.0000 0.14589  0.04012  0.02837  Biso   1.000  H
  H156     1.0000 0.50891  0.31208  0.93111  Biso   1.000  H
  H157     1.0000 0.42382  0.44586  0.15532  Biso   1.000  H
  H158     1.0000 0.14150  0.36619  0.51652  Biso   1.000  H
  H159     1.0000 0.51706  0.08812  0.43571  Biso   1.000  H
  H160     1.0000 0.92200  0.44369  0.39549  Biso   1.000  H
  H161     1.0000 0.64359  0.35700  0.02953  Biso   1.000  H
  H162     1.0000 0.01461  0.08485  0.11765  Biso   1.000  H
  H163     1.0000 0.10581  0.94683  0.15736  Biso   1.000  H
  H164     1.0000 0.36847  0.86521  0.53685  Biso   1.000  H
  H165     1.0000 0.01425  0.57865  0.42637  Biso   1.000  H
  H166     1.0000 0.60501  0.94773  0.38629  Biso   1.000  H
  H167     1.0000 0.87751  0.86001  0.02526  Biso   1.000  H
  H168     1.0000 0.52610  0.58582  0.11996  Biso   1.000  H
  H169     1.0000 0.01981  0.04433  0.89008  Biso   1.000  H
  H170     1.0000 0.88193  0.95328  0.11095  Biso   1.000  H
  H171     1.0000 0.10232  0.81896  0.02384  Biso   1.000  H
  H172     1.0000 0.51801  0.03101  0.65792  Biso   1.000  H
  H173     1.0000 0.37069  0.94206  0.43353  Biso   1.000  H
  H174     1.0000 0.59910  0.81699  0.51932  Biso   1.000  H
  H175     1.0000 0.50816  0.53615  0.89743  Biso   1.000  H
  H176     1.0000 0.64667  0.44537  0.12719  Biso   1.000  H
  H177     1.0000 0.42095  0.32352  0.02894  Biso   1.000  H
  H178     1.0000 0.02243  0.54512  0.65234  Biso   1.000  H
  H179     1.0000 0.14244  0.46991  0.43229  Biso   1.000  H
  H180     1.0000 0.91517  0.31841  0.53453  Biso   1.000  H
  H181     1.0000 0.01137  0.85957  0.14899  Biso   1.000  H
  H182     1.0000 0.14513  0.95654  0.93246  Biso   1.000  H
  H183     1.0000 0.92946  0.08628  0.01162  Biso   1.000  H
  H184     1.0000 0.51958  0.85991  0.39000  Biso   1.000  H
  H185     1.0000 0.64239  0.94210  0.61376  Biso   1.000  H
  H186     1.0000 0.41694  0.08402  0.51997  Biso   1.000  H
  H187     1.0000 0.52228  0.36567  0.15752  Biso   1.000  H
  H188     1.0000 0.37482  0.43604  0.93106  Biso   1.000  H
  H189     1.0000 0.60870  0.57862  0.02465  Biso   1.000  H
  H190     1.0000 0.01810  0.36279  0.38938  Biso   1.000  H
  H191     1.0000 0.87857  0.45005  0.62014  Biso   1.000  H
  H192     1.0000 0.10414  0.58890  0.51412  Biso   1.000  H
  H193     1.0000 0.27214  0.81566  0.51140  Biso   1.000  H
  H194     1.0000 0.52526  0.21387  0.88163  Biso   1.000  H
  H195     1.0000 0.87010  0.47056  0.30206  Biso   1.000  H
  H196     1.0000 0.78001  0.81337  0.02816  Biso   1.000  H
  H197     1.0000 0.01625  0.23241  0.67862  Biso   1.000  H
  H198     1.0000 0.37181  0.42534  0.25362  Biso   1.000  H
  H199     1.0000 0.24222  0.31675  0.51520  Biso   1.000  H
  H200     1.0000 0.01386  0.72752  0.87679  Biso   1.000  H
  H201     1.0000 0.65527  0.94302  0.28911  Biso   1.000  H
  H202     1.0000 0.74302  0.30581  0.01530  Biso   1.000  H
  H203     1.0000 0.50168  0.71773  0.66846  Biso   1.000  H
  H204     1.0000 0.15459  0.95571  0.25588  Biso   1.000  H
  H205     1.0000 0.74015  0.08699  0.51958  Biso   1.000  H
  H206     1.0000 0.50637  0.67780  0.17533  Biso   1.000  H
  H207     1.0000 0.16140  0.45059  0.75045  Biso   1.000  H
  H208     1.0000 0.24646  0.08607  0.01018  Biso   1.000  H
  H209     1.0000 0.00763  0.67635  0.37283  Biso   1.000  H
  H210     1.0000 0.65840  0.45594  0.80431  Biso   1.000  H
  H211     1.0000 0.77858  0.59010  0.51696  Biso   1.000  H
  H212     1.0000 0.01538  0.17778  0.17516  Biso   1.000  H
  H213     1.0000 0.37236  0.98449  0.75413  Biso   1.000  H
  H214     1.0000 0.28341  0.59109  0.02749  Biso   1.000  H
  H215     1.0000 0.52860  0.17994  0.37728  Biso   1.000  H
  H216     1.0000 0.87035  0.96779  0.79066  Biso   1.000  H
  H217     1.0000 0.24432  0.45649  0.38419  Biso   1.000  H
  H218     1.0000 0.36735  0.18181  0.53538  Biso   1.000  H
  H219     1.0000 0.52825  0.31104  0.25495  Biso   1.000  H
  H220     1.0000 0.74311  0.45833  0.18085  Biso   1.000  H
  H221     1.0000 0.87184  0.18030  0.01241  Biso   1.000  H
  H222     1.0000 0.00663  0.29897  0.29895  Biso   1.000  H
  H223     1.0000 0.28012  0.97980  0.38669  Biso   1.000  H
  H224     1.0000 0.15407  0.68519  0.51056  Biso   1.000  H
  H225     1.0000 0.00651  0.81237  0.25103  Biso   1.000  H
  H226     1.0000 0.79053  0.91612  0.15995  Biso   1.000  H
  H227     1.0000 0.65589  0.67626  0.01467  Biso   1.000  H
  H228     1.0000 0.50202  0.80989  0.29361  Biso   1.000  H
  H229     1.0000 0.78178  0.44839  0.67784  Biso   1.000  H
  H230     1.0000 0.64713  0.71810  0.53822  Biso   1.000  H
  H231     1.0000 0.52322  0.58768  0.80171  Biso   1.000  H
  H232     1.0000 0.28167  0.46551  0.87752  Biso   1.000  H
  H233     1.0000 0.15000  0.72204  0.04473  Biso   1.000  H
  H234     1.0000 0.02112  0.60123  0.74753  Biso   1.000  H
  H235     1.0000 0.73727  0.96050  0.66440  Biso   1.000  H
  H236     1.0000 0.86960  0.21743  0.53454  Biso   1.000  H
  H237     1.0000 0.02308  0.09903  0.79230  Biso   1.000  H
  H238     1.0000 0.24154  0.97149  0.88617  Biso   1.000  H
  H239     1.0000 0.37185  0.22526  0.02800  Biso   1.000  H
  H240     1.0000 0.51729  0.08399  0.75367  Biso   1.000  H
  H241     1.0000 0.74003  0.45869  0.89140  Biso   1.000  H
  H242     1.0000 0.86492  0.67742  0.53286  Biso   1.000  H
  H243     1.0000 0.52077  0.79782  0.75415  Biso   1.000  H
  H244     1.0000 0.24638  0.44977  0.66135  Biso   1.000  H
  H245     1.0000 0.36649  0.67983  0.04154  Biso   1.000  H
  H246     1.0000 0.02317  0.81406  0.78905  Biso   1.000  H
  H247     1.0000 0.78343  0.96438  0.87189  Biso   1.000  H
  H248     1.0000 0.65142  0.17252  0.54393  Biso   1.000  H
  H249     1.0000 0.02529  0.31762  0.76006  Biso   1.000  H
  H250     1.0000 0.28439  0.95794  0.67419  Biso   1.000  H
  H251     1.0000 0.16342  0.17577  0.03819  Biso   1.000  H
  H252     1.0000 0.52765  0.30465  0.79532  Biso   1.000  H
  H253     1.0000 0.28470  0.44826  0.16900  Biso   1.000  H
  H254     1.0000 0.15586  0.23277  0.55277  Biso   1.000  H
  H255     1.0000 0.52364  0.09413  0.29378  Biso   1.000  H
  H256     1.0000 0.78049  0.45034  0.38724  Biso   1.000  H
  H257     1.0000 0.65850  0.22016  0.01330  Biso   1.000  H
  H258     1.0000 0.00317  0.09291  0.25987  Biso   1.000  H
  H259     1.0000 0.24157  0.94160  0.17055  Biso   1.000  H
  H260     1.0000 0.35865  0.73150  0.50058  Biso   1.000  H
  H261     1.0000 0.00528  0.58726  0.29233  Biso   1.000  H
  H262     1.0000 0.74086  0.92377  0.37822  Biso   1.000  H
  H263     1.0000 0.86528  0.72378  0.00885  Biso   1.000  H
  H264     1.0000 0.50667  0.59823  0.26110  Biso   1.000  H
  H265     1.0000 0.04109  0.18188  0.88164  Biso   1.000  H
  H266     1.0000 0.86279  0.94840  0.24847  Biso   1.000  H
  H267     1.0000 0.23857  0.80505  0.04375  Biso   1.000  H
  H268     1.0000 0.49167  0.16761  0.67442  Biso   1.000  H
  H269     1.0000 0.36602  0.97254  0.30201  Biso   1.000  H
  H270     1.0000 0.73553  0.80107  0.52881  Biso   1.000  H
  H271     1.0000 0.51609  0.67524  0.88393  Biso   1.000  H
  H272     1.0000 0.65388  0.46985  0.26728  Biso   1.000  H
  H273     1.0000 0.28386  0.30863  0.02390  Biso   1.000  H
  H274     1.0000 0.03312  0.68210  0.66125  Biso   1.000  H
  H275     1.0000 0.15426  0.43637  0.29607  Biso   1.000  H
  H276     1.0000 0.77905  0.30493  0.52505  Biso   1.000  H
  H277     1.0000 0.99801  0.72093  0.16417  Biso   1.000  H
  H278     1.0000 0.16073  0.97547  0.79651  Biso   1.000  H
  H279     1.0000 0.78865  0.09607  0.01566  Biso   1.000  H
  H280     1.0000 0.49830  0.72428  0.38176  Biso   1.000  H
  H281     1.0000 0.65549  0.93374  0.75157  Biso   1.000  H
  H282     1.0000 0.28055  0.09826  0.54926  Biso   1.000  H
  H283     1.0000 0.52234  0.22619  0.16888  Biso   1.000  H
  H284     1.0000 0.37012  0.44260  0.79525  Biso   1.000  H
  H285     1.0000 0.74677  0.59617  0.02140  Biso   1.000  H
  H286     1.0000 0.02074  0.22426  0.38798  Biso   1.000  H
  H287     1.0000 0.87235  0.45579  0.76064  Biso   1.000  H
  H288     1.0000 0.24042  0.60018  0.51163  Biso   1.000  H
  H289     1.0000 0.10863  0.17669  0.04231  Biso   1.000  H
  H290     1.0000 0.99771  0.03980  0.25778  Biso   1.000  H
  H291     1.0000 0.24099  0.94378  0.11556  Biso   1.000  H
  H292     1.0000 0.59894  0.17287  0.54836  Biso   1.000  H
  H293     1.0000 0.52201  0.03829  0.29954  Biso   1.000  H
  H294     1.0000 0.73951  0.93099  0.42957  Biso   1.000  H
  H295     1.0000 0.42011  0.67975  0.04145  Biso   1.000  H
  H296     1.0000 0.50548  0.54162  0.26095  Biso   1.000  H
  H297     1.0000 0.28418  0.45190  0.11431  Biso   1.000  H
  H298     1.0000 0.91825  0.67510  0.53228  Biso   1.000  H
  H299     1.0000 0.00361  0.53559  0.29073  Biso   1.000  H
  H300     1.0000 0.78309  0.43891  0.44043  Biso   1.000  H
  H301     1.0000 0.91602  0.72368  0.01075  Biso   1.000  H
  H302     1.0000 0.03038  0.86748  0.79041  Biso   1.000  H
  H303     1.0000 0.78153  0.96627  0.92772  Biso   1.000  H
  H304     1.0000 0.41273  0.73085  0.50985  Biso   1.000  H
  H305     1.0000 0.51790  0.85153  0.75493  Biso   1.000  H
  H306     1.0000 0.28253  0.94134  0.62446  Biso   1.000  H
  H307     1.0000 0.60405  0.22131  0.00530  Biso   1.000  H
  H308     1.0000 0.51739  0.35651  0.79993  Biso   1.000  H
  H309     1.0000 0.74413  0.45302  0.94492  Biso   1.000  H
  H310     1.0000 0.10067  0.23741  0.55872  Biso   1.000  H
  H311     1.0000 0.02599  0.37107  0.75786  Biso   1.000  H
  H312     1.0000 0.24136  0.44455  0.60552  Biso   1.000  H
  H313     1.0000 0.24048  0.95778  0.93633  Biso   1.000  H
  H314     1.0000 0.92646  0.18015  0.01978  Biso   1.000  H
  H315     1.0000 0.01473  0.86094  0.24911  Biso   1.000  H
  H316     1.0000 0.73811  0.95988  0.60992  Biso   1.000  H
  H317     1.0000 0.42412  0.18041  0.53028  Biso   1.000  H
  H318     1.0000 0.50552  0.86247  0.29461  Biso   1.000  H
  H319     1.0000 0.28244  0.46518  0.93224  Biso   1.000  H
  H320     1.0000 0.60250  0.67270  0.01363  Biso   1.000  H
  H321     1.0000 0.51982  0.36131  0.25497  Biso   1.000  H
  H322     1.0000 0.78129  0.45494  0.62279  Biso   1.000  H
  H323     1.0000 0.09988  0.68298  0.50369  Biso   1.000  H
  H324     1.0000 0.00678  0.35379  0.29341  Biso   1.000  H
  H325     1.0000 0.79766  0.91350  0.10421  Biso   1.000  H
  H326     1.0000 0.09740  0.72695  0.04326  Biso   1.000  H
  H327     1.0000 0.01587  0.04426  0.79397  Biso   1.000  H
  H328     1.0000 0.27870  0.97816  0.43986  Biso   1.000  H
  H329     1.0000 0.59411  0.72223  0.52696  Biso   1.000  H
  H330     1.0000 0.51549  0.03151  0.75391  Biso   1.000  H
  H331     1.0000 0.74366  0.44931  0.12794  Biso   1.000  H
  H332     1.0000 0.42583  0.22665  0.03944  Biso   1.000  H
  H333     1.0000 0.51836  0.53313  0.79954  Biso   1.000  H
  H334     1.0000 0.24026  0.46879  0.43546  Biso   1.000  H
  H335     1.0000 0.92730  0.22308  0.53648  Biso   1.000  H
  H336     1.0000 0.01342  0.54754  0.74795  Biso   1.000  H
  H337     1.0000 0.03739  0.17535  0.93641  Biso   1.000  H
  H338     1.0000 0.91949  0.96202  0.24727  Biso   1.000  H
  H339     1.0000 0.24205  0.85560  0.03691  Biso   1.000  H
  H340     1.0000 0.48446  0.16828  0.61842  Biso   1.000  H
  H341     1.0000 0.41774  0.95748  0.29957  Biso   1.000  H
  H342     1.0000 0.73630  0.85319  0.52304  Biso   1.000  H
  H343     1.0000 0.50827  0.67384  0.93923  Biso   1.000  H
  H344     1.0000 0.60070  0.47325  0.26391  Biso   1.000  H
  H345     1.0000 0.28223  0.35981  0.02251  Biso   1.000  H
  H346     1.0000 0.03851  0.68282  0.60655  Biso   1.000  H
  H347     1.0000 0.10291  0.43390  0.29843  Biso   1.000  H
  H348     1.0000 0.77917  0.35948  0.52823  Biso   1.000  H
  H349     1.0000 0.99698  0.72469  0.11127  Biso   1.000  H
  H350     1.0000 0.10535  0.97832  0.79648  Biso   1.000  H
  H351     1.0000 0.79013  0.03995  0.01795  Biso   1.000  H
  H352     1.0000 0.49823  0.72714  0.43827  Biso   1.000  H
  H353     1.0000 0.60142  0.93034  0.74914  Biso   1.000  H
  H354     1.0000 0.28118  0.04706  0.55019  Biso   1.000  H
  H355     1.0000 0.53034  0.22776  0.11411  Biso   1.000  H
  H356     1.0000 0.42372  0.43868  0.79824  Biso   1.000  H
  H357     1.0000 0.74990  0.53873  0.02930  Biso   1.000  H
  H358     1.0000 0.02343  0.22759  0.44541  Biso   1.000  H
  H359     1.0000 0.92579  0.45547  0.75748  Biso   1.000  H
  H360     1.0000 0.24117  0.54789  0.52176  Biso   1.000  H
  H361     1.0000 0.01266  0.67495  0.42907  Biso   1.000  H
  H362     1.0000 0.42594  0.97920  0.75021  Biso   1.000  H
  H363     1.0000 0.73906  0.35921  0.02446  Biso   1.000  H
  H364     1.0000 0.51501  0.67948  0.11877  Biso   1.000  H
  H365     1.0000 0.92547  0.96429  0.79197  Biso   1.000  H
  H366     1.0000 0.23745  0.36937  0.50239  Biso   1.000  H
  H367     1.0000 0.52334  0.18491  0.43447  Biso   1.000  H
  H368     1.0000 0.10730  0.45082  0.75121  Biso   1.000  H
  H369     1.0000 0.78171  0.86751  0.02925  Biso   1.000  H
  H370     1.0000 0.01518  0.17863  0.11695  Biso   1.000  H
  H371     1.0000 0.60253  0.45370  0.80266  Biso   1.000  H
  H372     1.0000 0.27358  0.86969  0.52009  Biso   1.000  H
  H373     1.0000 0.01438  0.23047  0.62413  Biso   1.000  H
  H374     1.0000 0.60215  0.94625  0.28866  Biso   1.000  H
  H375     1.0000 0.28902  0.53687  0.03010  Biso   1.000  H
  H376     1.0000 0.51180  0.21509  0.93261  Biso   1.000  H
  H377     1.0000 0.10120  0.95644  0.25489  Biso   1.000  H
  H378     1.0000 0.78192  0.53352  0.52130  Biso   1.000  H
  H379     1.0000 0.49899  0.72261  0.61448  Biso   1.000  H
  H380     1.0000 0.92236  0.46355  0.30236  Biso   1.000  H
  H381     1.0000 0.24166  0.03191  0.00782  Biso   1.000  H
  H382     1.0000 0.01312  0.72852  0.93250  Biso   1.000  H
  H383     1.0000 0.42238  0.42719  0.25146  Biso   1.000  H
  H384     1.0000 0.73947  0.03385  0.51737  Biso   1.000  H
  H385     1.0000 0.24100  0.42383  0.36037  Biso   1.000  H
  H386     1.0000 0.28378  0.12969  0.50947  Biso   1.000  H
  H387     1.0000 0.48811  0.27903  0.24724  Biso   1.000  H
  H388     1.0000 0.68827  0.43258  0.26318  Biso   1.000  H
  H389     1.0000 0.83962  0.16783  0.05199  Biso   1.000  H
  H390     1.0000 0.98835  0.21524  0.36409  Biso   1.000  H
  H391     1.0000 0.33754  0.93569  0.30445  Biso   1.000  H
  H392     1.0000 0.18176  0.68431  0.47689  Biso   1.000  H
  H393     1.0000 0.96651  0.73473  0.19847  Biso   1.000  H
  H394     1.0000 0.84584  0.90578  0.25092  Biso   1.000  H
  H395     1.0000 0.73641  0.62814  0.05191  Biso   1.000  H
  H396     1.0000 0.54033  0.77569  0.30544  Biso   1.000  H
  H397     1.0000 0.78775  0.48126  0.70699  Biso   1.000  H
  H398     1.0000 0.73554  0.77738  0.55943  Biso   1.000  H
  H399     1.0000 0.54439  0.61864  0.80216  Biso   1.000  H
  H400     1.0000 0.34084  0.48666  0.79740  Biso   1.000  H
  H401     1.0000 0.23011  0.77471  0.00774  Biso   1.000  H
  H402     1.0000 0.05340  0.62710  0.74685  Biso   1.000  H
  H403     1.0000 0.74166  0.92367  0.68901  Biso   1.000  H
  H404     1.0000 0.77939  0.27207  0.55705  Biso   1.000  H
  H405     1.0000 0.99789  0.17921  0.85415  Biso   1.000  H
  H406     1.0000 0.23286  0.00344  0.85544  Biso   1.000  H
  H407     1.0000 0.28809  0.27552  0.98794  Biso   1.000  H
  H408     1.0000 0.48940  0.11468  0.75729  Biso   1.000  H
  H409     1.0000 0.28435  0.41519  0.19832  Biso   1.000  H
  H410     1.0000 0.18072  0.22693  0.51416  Biso   1.000  H
  H411     1.0000 0.48741  0.17160  0.34732  Biso   1.000  H
  H412     1.0000 0.83824  0.44186  0.29552  Biso   1.000  H
  H413     1.0000 0.68963  0.22615  0.97931  Biso   1.000  H
  H414     1.0000 0.97951  0.17482  0.20348  Biso   1.000  H
  H415     1.0000 0.19332  0.92244  0.25636  Biso   1.000  H
  H416     1.0000 0.32975  0.74066  0.47308  Biso   1.000  H
  H417     1.0000 0.97181  0.62163  0.29280  Biso   1.000  H
  H418     1.0000 0.73149  0.89868  0.34606  Biso   1.000  H
  H419     1.0000 0.83781  0.72150  0.04169  Biso   1.000  H
  H420     1.0000 0.46958  0.62843  0.25020  Biso   1.000  H
  H421     1.0000 0.73489  0.48863  0.86167  Biso   1.000  H
  H422     1.0000 0.78199  0.61609  0.56247  Biso   1.000  H
  H423     1.0000 0.53743  0.71445  0.69849  Biso   1.000  H
  H424     1.0000 0.18757  0.48422  0.74514  Biso   1.000  H
  H425     1.0000 0.33795  0.67612  0.00486  Biso   1.000  H
  H426     1.0000 0.05137  0.73218  0.84634  Biso   1.000  H
  H427     1.0000 0.78737  0.99476  0.83725  Biso   1.000  H
  H428     1.0000 0.73979  0.11841  0.55482  Biso   1.000  H
  H429     1.0000 0.05398  0.28484  0.75858  Biso   1.000  H
  H430     1.0000 0.34289  0.95426  0.76206  Biso   1.000  H
  H431     1.0000 0.18646  0.17679  0.00200  Biso   1.000  H
  H432     1.0000 0.49068  0.21987  0.85124  Biso   1.000  H
  H433     1.0000 0.29166  0.00039  0.69346  Biso   1.000  H
  H434     1.0000 0.73859  0.27244  0.04775  Biso   1.000  H
  H435     1.0000 0.03888  0.66605  0.34287  Biso   1.000  H
  H436     1.0000 0.84140  0.92781  0.79785  Biso   1.000  H
  H437     1.0000 0.24367  0.28819  0.55465  Biso   1.000  H
  H438     1.0000 0.54621  0.67288  0.20562  Biso   1.000  H
  H439     1.0000 0.24527  0.42322  0.69238  Biso   1.000  H
  H440     1.0000 0.77363  0.78479  0.00052  Biso   1.000  H
  H441     1.0000 0.55500  0.12597  0.29680  Biso   1.000  H
  H442     1.0000 0.69129  0.42070  0.81129  Biso   1.000  H
  H443     1.0000 0.27922  0.77743  0.54972  Biso   1.000  H
  H444     1.0000 0.03895  0.12389  0.25370  Biso   1.000  H
  H445     1.0000 0.69148  0.96478  0.28844  Biso   1.000  H
  H446     1.0000 0.28617  0.62084  0.06425  Biso   1.000  H
  H447     1.0000 0.98523  0.24288  0.70865  Biso   1.000  H
  H448     1.0000 0.23257  0.98814  0.19657  Biso   1.000  H
  H449     1.0000 0.83269  0.67731  0.50694  Biso   1.000  H
  H450     1.0000 0.55559  0.26422  0.80146  Biso   1.000  H
  H451     1.0000 0.78639  0.48757  0.36650  Biso   1.000  H
  H452     1.0000 0.25014  0.11640  0.04319  Biso   1.000  H
  H453     1.0000 0.48787  0.77253  0.75609  Biso   1.000  H
  H454     1.0000 0.34546  0.46165  0.25528  Biso   1.000  H
  H455     1.0000 0.67912  0.17596  0.50754  Biso   1.000  H
  H456     1.0000 0.99339  0.78537  0.78830  Biso   1.000  H
  H457     1.0000 0.68029  0.71914  0.50874  Biso   1.000  H
  H458     1.0000 0.48112  0.66691  0.85429  Biso   1.000  H
  H459     1.0000 0.84243  0.42352  0.76218  Biso   1.000  H
  H460     1.0000 0.18305  0.72695  0.07317  Biso   1.000  H
  H461     1.0000 0.99856  0.68005  0.69072  Biso   1.000  H
  H462     1.0000 0.28097  0.43117  0.84816  Biso   1.000  H
  H463     1.0000 0.84415  0.22115  0.50769  Biso   1.000  H
  H464     1.0000 0.05135  0.12877  0.79660  Biso   1.000  H
  H465     1.0000 0.68043  0.96854  0.74937  Biso   1.000  H
  H466     1.0000 0.33986  0.23016  0.05526  Biso   1.000  H
  H467     1.0000 0.53742  0.16853  0.69530  Biso   1.000  H
  H468     1.0000 0.19541  0.94658  0.79372  Biso   1.000  H
  H469     1.0000 0.33798  0.18188  0.57083  Biso   1.000  H
  H470     1.0000 0.55570  0.22822  0.20154  Biso   1.000  H
  H471     1.0000 0.18433  0.46299  0.29627  Biso   1.000  H
  H472     1.0000 0.79863  0.12778  0.97758  Biso   1.000  H
  H473     1.0000 0.04070  0.26994  0.30172  Biso   1.000  H
  H474     1.0000 0.73662  0.49062  0.20609  Biso   1.000  H
  H475     1.0000 0.23688  0.63305  0.53950  Biso   1.000  H
  H476     1.0000 0.03613  0.77460  0.24690  Biso   1.000  H
  H477     1.0000 0.28655  0.00258  0.34780  Biso   1.000  H
  H478     1.0000 0.68903  0.66654  0.97981  Biso   1.000  H
  H479     1.0000 0.46505  0.73042  0.34925  Biso   1.000  H
  H480     1.0000 0.78233  0.94640  0.18920  Biso   1.000  H
  N1       1.0000 0.68622  0.12300  0.53035  Biso   1.000  N
  N2       1.0000 0.51144  0.62630  0.20390  Biso   1.000  N
  N3       1.0000 0.19095  0.45195  0.69573  Biso   1.000  N
  N4       1.0000 0.19478  0.12316  0.02630  Biso   1.000  N
  N5       1.0000 0.00737  0.62125  0.34124  Biso   1.000  N
  N6       1.0000 0.68838  0.45666  0.85937  Biso   1.000  N
  N7       1.0000 0.83185  0.62398  0.52872  Biso   1.000  N
  N8       1.0000 0.00826  0.12597  0.20541  Biso   1.000  N
  N9       1.0000 0.33791  0.96982  0.70393  Biso   1.000  N
  N10      1.0000 0.33479  0.62601  0.03489  Biso   1.000  N
  N11      1.0000 0.52130  0.12824  0.34844  Biso   1.000  N
  N12      1.0000 0.83786  0.96376  0.84086  Biso   1.000  N
  N13      1.0000 0.32603  0.78490  0.51182  Biso   1.000  N
  N14      1.0000 0.52025  0.26751  0.84794  Biso   1.000  N
  N15      1.0000 0.83496  0.45744  0.35545  Biso   1.000  N
  N16      1.0000 0.83115  0.77691  0.01896  Biso   1.000  N
  N17      1.0000 0.02082  0.28610  0.70780  Biso   1.000  N
  N18      1.0000 0.33597  0.43856  0.20163  Biso   1.000  N
  N19      1.0000 0.18878  0.28447  0.53169  Biso   1.000  N
  N20      1.0000 0.01943  0.77912  0.84352  Biso   1.000  N
  N21      1.0000 0.68801  0.93463  0.34188  Biso   1.000  N
  N22      1.0000 0.68999  0.27408  0.01313  Biso   1.000  N
  N23      1.0000 0.51200  0.76854  0.70252  Biso   1.000  N
  N24      1.0000 0.18822  0.95098  0.20316  Biso   1.000  N
  N25      1.0000 0.83640  0.45090  0.70733  Biso   1.000  N
  N26      1.0000 0.68264  0.77013  0.53285  Biso   1.000  N
  N27      1.0000 0.51497  0.61981  0.85288  Biso   1.000  N
  N28      1.0000 0.33574  0.45446  0.84625  Biso   1.000  N
  N29      1.0000 0.18635  0.77472  0.04468  Biso   1.000  N
  N30      1.0000 0.02565  0.63159  0.69331  Biso   1.000  N
  N31      1.0000 0.68699  0.94840  0.69682  Biso   1.000  N
  N32      1.0000 0.83363  0.27157  0.53255  Biso   1.000  N
  N33      1.0000 0.02841  0.12993  0.84803  Biso   1.000  N
  N34      1.0000 0.19061  0.96840  0.84928  Biso   1.000  N
  N35      1.0000 0.33841  0.27819  0.02374  Biso   1.000  N
  N36      1.0000 0.50887  0.11668  0.70256  Biso   1.000  N
  N37      1.0000 0.18893  0.44601  0.35093  Biso   1.000  N
  N38      1.0000 0.33408  0.13076  0.53603  Biso   1.000  N
  N39      1.0000 0.52450  0.27868  0.20114  Biso   1.000  N
  N40      1.0000 0.68898  0.46137  0.21260  Biso   1.000  N
  N41      1.0000 0.84161  0.12682  0.01405  Biso   1.000  N
  N42      1.0000 0.01296  0.27127  0.35344  Biso   1.000  N
  N43      1.0000 0.33202  0.96898  0.35274  Biso   1.000  N
  N44      1.0000 0.18803  0.63380  0.50749  Biso   1.000  N
  N45      1.0000 0.00424  0.77774  0.19823  Biso   1.000  N
  N46      1.0000 0.83965  0.93310  0.19479  Biso   1.000  N
  N47      1.0000 0.69147  0.62484  0.02005  Biso   1.000  N
  N48      1.0000 0.50377  0.77802  0.34964  Biso   1.000  N
  O1       1.0000 0.35626  0.49257  0.02129  Biso   1.000  O
  O2       1.0000 0.00694  0.30189  0.57382  Biso   1.000  O
  O3       1.0000 0.55385  0.95416  0.36639  Biso   1.000  O
  O4       1.0000 0.85450  0.48884  0.52901  Biso   1.000  O
  O5       1.0000 0.51362  0.29161  0.97965  Biso   1.000  O
  O6       1.0000 0.05353  0.95209  0.18208  Biso   1.000  O
  O7       1.0000 0.17077  0.98777  0.02615  Biso   1.000  O
  O8       1.0000 0.50104  0.79546  0.56916  Biso   1.000  O
  O9       1.0000 0.97094  0.44827  0.37199  Biso   1.000  O
  O10      1.0000 0.66913  0.98774  0.51424  Biso   1.000  O
  O11      1.0000 0.00866  0.79854  0.97893  Biso   1.000  O
  O12      1.0000 0.47444  0.44763  0.18156  Biso   1.000  O
  O13      1.0000 0.66892  0.40758  0.03430  Biso   1.000  O
  O14      1.0000 0.00973  0.60356  0.47879  Biso   1.000  O
  O15      1.0000 0.47173  0.95313  0.68290  Biso   1.000  O
  O16      1.0000 0.16635  0.41936  0.51738  Biso   1.000  O
  O17      1.0000 0.51875  0.60989  0.07086  Biso   1.000  O
  O18      1.0000 0.97141  0.95968  0.86327  Biso   1.000  O
  O19      1.0000 0.85769  0.90902  0.01747  Biso   1.000  O
  O20      1.0000 0.51794  0.11121  0.48394  Biso   1.000  O
  O21      1.0000 0.05620  0.45868  0.67659  Biso   1.000  O
  O22      1.0000 0.34792  0.91262  0.52802  Biso   1.000  O
  O23      1.0000 0.01807  0.10751  0.06683  Biso   1.000  O
  O24      1.0000 0.55491  0.44583  0.87425  Biso   1.000  O
  O25      1.0000 0.97096  0.96052  0.17991  Biso   1.000  O
  O26      1.0000 0.16656  0.90585  0.02584  Biso   1.000  O
  O27      1.0000 0.02573  0.10526  0.98313  Biso   1.000  O
  O28      1.0000 0.46749  0.95428  0.37195  Biso   1.000  O
  O29      1.0000 0.66648  0.90396  0.52204  Biso   1.000  O
  O30      1.0000 0.50771  0.10190  0.56646  Biso   1.000  O
  O31      1.0000 0.55652  0.45976  0.18872  Biso   1.000  O
  O32      1.0000 0.35747  0.41058  0.02113  Biso   1.000  O
  O33      1.0000 0.50848  0.60384  0.98898  Biso   1.000  O
  O34      1.0000 0.05510  0.44374  0.36901  Biso   1.000  O
  O35      1.0000 0.85250  0.40720  0.53658  Biso   1.000  O
  O36      1.0000 0.01553  0.60947  0.56130  Biso   1.000  O
  O37      1.0000 0.05688  0.95605  0.86746  Biso   1.000  O
  O38      1.0000 0.86247  0.99045  0.01687  Biso   1.000  O
  O39      1.0000 0.00259  0.79382  0.06326  Biso   1.000  O
  O40      1.0000 0.55243  0.93588  0.68157  Biso   1.000  O
  O41      1.0000 0.34969  0.99506  0.53111  Biso   1.000  O
  O42      1.0000 0.50187  0.79954  0.48510  Biso   1.000  O
  O43      1.0000 0.47141  0.44054  0.87064  Biso   1.000  O
  O44      1.0000 0.67717  0.49306  0.03561  Biso   1.000  O
  O45      1.0000 0.52018  0.29634  0.06244  Biso   1.000  O
  O46      1.0000 0.97030  0.45449  0.68214  Biso   1.000  O
  O47      1.0000 0.16803  0.50264  0.53185  Biso   1.000  O
  O48      1.0000 0.00994  0.30056  0.48727  Biso   1.000  O
  O49      1.0000 0.01318  0.91268  0.17914  Biso   1.000  O
  O50      1.0000 0.16861  0.95149  0.98502  Biso   1.000  O
  O51      1.0000 0.97756  0.10706  0.01950  Biso   1.000  O
  O52      1.0000 0.51310  0.91085  0.36761  Biso   1.000  O
  O53      1.0000 0.66629  0.95237  0.56172  Biso   1.000  O
  O54      1.0000 0.46796  0.10639  0.51898  Biso   1.000  O
  O55      1.0000 0.51972  0.41227  0.18244  Biso   1.000  O
  O56      1.0000 0.35257  0.45339  0.98081  Biso   1.000  O
  O57      1.0000 0.55576  0.60236  0.02896  Biso   1.000  O
  O58      1.0000 0.01098  0.40608  0.36433  Biso   1.000  O
  O59      1.0000 0.85314  0.45072  0.57207  Biso   1.000  O
  O60      1.0000 0.05295  0.60873  0.51512  Biso   1.000  O
  O61      1.0000 0.01266  0.99586  0.86713  Biso   1.000  O
  O62      1.0000 0.85966  0.94662  0.05942  Biso   1.000  O
  O63      1.0000 0.05084  0.79948  0.02303  Biso   1.000  O
  O64      1.0000 0.51868  0.98252  0.68382  Biso   1.000  O
  O65      1.0000 0.35110  0.95792  0.48797  Biso   1.000  O
  O66      1.0000 0.54662  0.79673  0.52833  Biso   1.000  O
  O67      1.0000 0.51093  0.48411  0.87333  Biso   1.000  O
  O68      1.0000 0.67073  0.45029  0.07764  Biso   1.000  O
  O69      1.0000 0.47533  0.29523  0.02527  Biso   1.000  O
  O70      1.0000 0.01259  0.49912  0.67797  Biso   1.000  O
  O71      1.0000 0.16567  0.46557  0.48247  Biso   1.000  O
  O72      1.0000 0.96708  0.29826  0.52670  Biso   1.000  O
  O73      1.0000 0.01264  0.41589  0.68152  Biso   1.000  O
  O74      1.0000 0.66754  0.93723  0.47668  Biso   1.000  O
  O75      1.0000 0.47054  0.60679  0.03437  Biso   1.000  O
  O76      1.0000 0.51212  0.40074  0.87222  Biso   1.000  O
  O77      1.0000 0.16503  0.94644  0.06985  Biso   1.000  O
  O78      1.0000 0.97000  0.60411  0.52693  Biso   1.000  O
  O79      1.0000 0.50782  0.90258  0.68607  Biso   1.000  O
  O80      1.0000 0.85267  0.44373  0.48854  Biso   1.000  O
  O81      1.0000 0.06087  0.10618  0.03088  Biso   1.000  O
  O82      1.0000 0.01654  0.91405  0.86439  Biso   1.000  O
  O83      1.0000 0.35820  0.44763  0.06469  Biso   1.000  O
  O84      1.0000 0.55131  0.10245  0.53298  Biso   1.000  O
  O85      1.0000 0.01303  0.48851  0.36602  Biso   1.000  O
  O86      1.0000 0.35395  0.95152  0.57302  Biso   1.000  O
  O87      1.0000 0.55745  0.29233  0.01917  Biso   1.000  O
  O88      1.0000 0.50566  0.49356  0.18914  Biso   1.000  O
  O89      1.0000 0.85580  0.95171  0.97480  Biso   1.000  O
  O90      1.0000 0.04959  0.30321  0.53184  Biso   1.000  O
  O91      1.0000 0.51245  0.99374  0.36981  Biso   1.000  O
  O92      1.0000 0.16830  0.45302  0.56336  Biso   1.000  O
  O93      1.0000 0.96552  0.79439  0.01800  Biso   1.000  O
  O94      1.0000 0.01730  0.99717  0.18571  Biso   1.000  O
  O95      1.0000 0.67060  0.45184  0.99471  Biso   1.000  O
  O96      1.0000 0.46398  0.79809  0.52219  Biso   1.000  O
  O97      1.0000 0.46904  0.15424  0.52429  Biso   1.000  O
  O98      1.0000 0.52187  0.41205  0.23129  Biso   1.000  O
  O99      1.0000 0.21505  0.46998  0.48227  Biso   1.000  O
  O100     1.0000 0.97621  0.15617  0.02227  Biso   1.000  O
  O101     1.0000 0.01198  0.40379  0.31485  Biso   1.000  O
  O102     1.0000 0.71897  0.44430  0.07776  Biso   1.000  O
  O103     1.0000 0.04997  0.65687  0.50926  Biso   1.000  O
  O104     1.0000 0.00869  0.90936  0.22843  Biso   1.000  O
  O105     1.0000 0.30233  0.96103  0.48826  Biso   1.000  O
  O106     1.0000 0.55525  0.65095  0.01748  Biso   1.000  O
  O107     1.0000 0.50841  0.90999  0.31854  Biso   1.000  O
  O108     1.0000 0.81019  0.95213  0.06180  Biso   1.000  O
  O109     1.0000 0.54617  0.74947  0.52797  Biso   1.000  O
  O110     1.0000 0.51185  0.48491  0.82586  Biso   1.000  O
  O111     1.0000 0.80412  0.45143  0.57150  Biso   1.000  O
  O112     1.0000 0.05296  0.75075  0.02083  Biso   1.000  O
  O113     1.0000 0.01133  0.50016  0.72591  Biso   1.000  O
  O114     1.0000 0.30332  0.44804  0.98254  Biso   1.000  O
  O115     1.0000 0.97209  0.24905  0.52881  Biso   1.000  O
  O116     1.0000 0.00805  0.99640  0.81821  Biso   1.000  O
  O117     1.0000 0.71423  0.94799  0.56152  Biso   1.000  O
  O118     1.0000 0.47336  0.24824  0.03672  Biso   1.000  O
  O119     1.0000 0.51907  0.98607  0.73298  Biso   1.000  O
  O120     1.0000 0.21761  0.94744  0.98215  Biso   1.000  O
  O121     1.0000 0.05579  0.46510  0.72537  Biso   1.000  O
  O122     1.0000 0.71638  0.98767  0.51679  Biso   1.000  O
  O123     1.0000 0.52148  0.65881  0.06839  Biso   1.000  O
  O124     1.0000 0.55689  0.44331  0.82515  Biso   1.000  O
  O125     1.0000 0.21841  0.98542  0.02790  Biso   1.000  O
  O126     1.0000 0.00227  0.65256  0.47697  Biso   1.000  O
  O127     1.0000 0.47236  0.95207  0.73276  Biso   1.000  O
  O128     1.0000 0.80556  0.49008  0.52672  Biso   1.000  O
  O129     1.0000 0.01199  0.15642  0.06780  Biso   1.000  O
  O130     1.0000 0.97223  0.94619  0.81690  Biso   1.000  O
  O131     1.0000 0.30736  0.49260  0.02541  Biso   1.000  O
  O132     1.0000 0.51288  0.15970  0.48550  Biso   1.000  O
  O133     1.0000 0.96908  0.44980  0.32340  Biso   1.000  O
  O134     1.0000 0.30018  0.91647  0.51947  Biso   1.000  O
  O135     1.0000 0.50250  0.24488  0.98617  Biso   1.000  O
  O136     1.0000 0.46988  0.44163  0.22952  Biso   1.000  O
  O137     1.0000 0.80856  0.91206  0.02131  Biso   1.000  O
  O138     1.0000 0.00708  0.25376  0.57349  Biso   1.000  O
  O139     1.0000 0.55032  0.95106  0.31676  Biso   1.000  O
  O140     1.0000 0.21334  0.41865  0.50853  Biso   1.000  O
  O141     1.0000 0.01440  0.75021  0.97805  Biso   1.000  O
  O142     1.0000 0.05167  0.94888  0.23029  Biso   1.000  O
  O143     1.0000 0.71870  0.40610  0.03394  Biso   1.000  O
  O144     1.0000 0.50534  0.74716  0.56652  Biso   1.000  O
  O145     1.0000 0.55160  0.46144  0.23746  Biso   1.000  O
  O146     1.0000 0.21734  0.49947  0.52991  Biso   1.000  O
  O147     1.0000 0.50780  0.14971  0.56998  Biso   1.000  O
  O148     1.0000 0.05203  0.44491  0.31902  Biso   1.000  O
  O149     1.0000 0.72649  0.48979  0.03661  Biso   1.000  O
  O150     1.0000 0.02444  0.15296  0.98368  Biso   1.000  O
  O151     1.0000 0.96921  0.95805  0.22683  Biso   1.000  O
  O152     1.0000 0.30199  0.99763  0.53481  Biso   1.000  O
  O153     1.0000 0.01323  0.65806  0.55895  Biso   1.000  O
  O154     1.0000 0.46597  0.95593  0.32288  Biso   1.000  O
  O155     1.0000 0.81357  0.99461  0.01700  Biso   1.000  O
  O156     1.0000 0.50678  0.65280  0.98695  Biso   1.000  O
  O157     1.0000 0.47040  0.44385  0.82301  Biso   1.000  O
  O158     1.0000 0.80460  0.40786  0.52986  Biso   1.000  O
  O159     1.0000 0.50642  0.75098  0.48477  Biso   1.000  O
  O160     1.0000 0.97194  0.45468  0.73160  Biso   1.000  O
  O161     1.0000 0.30907  0.40953  0.02381  Biso   1.000  O
  O162     1.0000 0.00531  0.74564  0.06267  Biso   1.000  O
  O163     1.0000 0.05534  0.95826  0.81943  Biso   1.000  O
  O164     1.0000 0.71685  0.90299  0.52219  Biso   1.000  O
  O165     1.0000 0.02443  0.25363  0.49013  Biso   1.000  O
  O166     1.0000 0.55579  0.93887  0.73204  Biso   1.000  O
  O167     1.0000 0.21678  0.90296  0.02303  Biso   1.000  O
  O168     1.0000 0.52307  0.24768  0.06648  Biso   1.000  O
  O169     1.0000 0.00936  0.99279  0.23259  Biso   1.000  O
  O170     1.0000 0.21388  0.94167  0.06541  Biso   1.000  O
  O171     1.0000 0.06118  0.15370  0.03223  Biso   1.000  O
  O172     1.0000 0.50930  0.99437  0.32056  Biso   1.000  O
  O173     1.0000 0.71564  0.94469  0.47869  Biso   1.000  O
  O174     1.0000 0.55275  0.15096  0.53412  Biso   1.000  O
  O175     1.0000 0.50017  0.49277  0.23677  Biso   1.000  O
  O176     1.0000 0.30890  0.44762  0.06472  Biso   1.000  O
  O177     1.0000 0.46930  0.65404  0.03114  Biso   1.000  O
  O178     1.0000 0.00846  0.48688  0.31775  Biso   1.000  O
  O179     1.0000 0.80363  0.44498  0.48774  Biso   1.000  O
  O180     1.0000 0.96714  0.65162  0.52185  Biso   1.000  O
  O181     1.0000 0.02052  0.91495  0.81587  Biso   1.000  O
  O182     1.0000 0.80730  0.95533  0.97822  Biso   1.000  O
  O183     1.0000 0.96581  0.74626  0.01706  Biso   1.000  O
  O184     1.0000 0.50741  0.90316  0.73473  Biso   1.000  O
  O185     1.0000 0.30303  0.95057  0.57195  Biso   1.000  O
  O186     1.0000 0.46202  0.75101  0.52440  Biso   1.000  O
  O187     1.0000 0.51211  0.40469  0.82368  Biso   1.000  O
  O188     1.0000 0.71967  0.44849  0.99433  Biso   1.000  O
  O189     1.0000 0.55596  0.24487  0.01542  Biso   1.000  O
  O190     1.0000 0.02092  0.41812  0.73004  Biso   1.000  O
  O191     1.0000 0.21607  0.44700  0.55911  Biso   1.000  O
  O192     1.0000 0.05618  0.25480  0.53577  Biso   1.000  O
