data_image0
_cell_length_a       46.5649
_cell_length_b       46.6804
_cell_length_c       46.5529
_cell_angle_alpha    90
_cell_angle_beta     90
_cell_angle_gamma    90

_symmetry_space_group_name_H-M    "P 1"
_symmetry_int_tables_number       1

loop_
  _symmetry_equiv_pos_as_xyz
  'x, y, z'

loop_
  _atom_site_label
  _atom_site_occupancy
  _atom_site_fract_x
  _atom_site_fract_y
  _atom_site_fract_z
  _atom_site_thermal_displace_type
  _atom_site_B_iso_or_equiv
  _atom_site_type_symbol
  C1       1.0000 0.55142  0.98151  0.33181  Biso   1.000  C
  C2       1.0000 0.34385  0.53068  0.01112  Biso   1.000  C
  C3       1.0000 0.01339  0.30228  0.56679  Biso   1.000  C
  C4       1.0000 0.05371  0.99204  0.19927  Biso   1.000  C
  C5       1.0000 0.83544  0.54389  0.51233  Biso   1.000  C
  C6       1.0000 0.52201  0.30056  0.96881  Biso   1.000  C
  C7       1.0000 0.96139  0.48404  0.33610  Biso   1.000  C
  C8       1.0000 0.19800  0.03256  0.02979  Biso   1.000  C
  C9       1.0000 0.50695  0.79996  0.56006  Biso   1.000  C
  C10      1.0000 0.46508  0.48859  0.19861  Biso   1.000  C
  C11      1.0000 0.69369  0.04220  0.50379  Biso   1.000  C
  C12      1.0000 0.02319  0.79964  0.97018  Biso   1.000  C
  C13      1.0000 0.47065  0.97218  0.70127  Biso   1.000  C
  C14      1.0000 0.70505  0.42702  0.02073  Biso   1.000  C
  C15      1.0000 0.01648  0.66848  0.46936  Biso   1.000  C
  C16      1.0000 0.97017  0.98054  0.83155  Biso   1.000  C
  C17      1.0000 0.20123  0.43232  0.51721  Biso   1.000  C
  C18      1.0000 0.52686  0.65857  0.05991  Biso   1.000  C
  C19      1.0000 0.07452  0.47543  0.70180  Biso   1.000  C
  C20      1.0000 0.84000  0.93193  0.00327  Biso   1.000  C
  C21      1.0000 0.52517  0.16319  0.47349  Biso   1.000  C
  C22      1.0000 0.57080  0.47719  0.84186  Biso   1.000  C
  C23      1.0000 0.33368  0.93348  0.52321  Biso   1.000  C
  C24      1.0000 0.00949  0.16397  0.06177  Biso   1.000  C
  C25      1.0000 0.33706  0.03920  0.53402  Biso   1.000  C
  C26      1.0000 0.52283  0.30065  0.07709  Biso   1.000  C
  C27      1.0000 0.06797  0.49746  0.33287  Biso   1.000  C
  C28      1.0000 0.83361  0.03984  0.99854  Biso   1.000  C
  C29      1.0000 0.02909  0.30923  0.45890  Biso   1.000  C
  C30      1.0000 0.57444  0.48439  0.20375  Biso   1.000  C
  C31      1.0000 0.19682  0.54079  0.51495  Biso   1.000  C
  C32      1.0000 0.02098  0.80293  0.07904  Biso   1.000  C
  C33      1.0000 0.44248  0.99094  0.34093  Biso   1.000  C
  C34      1.0000 0.70377  0.53489  0.01819  Biso   1.000  C
  C35      1.0000 0.51688  0.80723  0.45211  Biso   1.000  C
  C36      1.0000 0.94538  0.98058  0.19201  Biso   1.000  C
  C37      1.0000 0.69052  0.93392  0.50225  Biso   1.000  C
  C38      1.0000 0.51394  0.65999  0.95146  Biso   1.000  C
  C39      1.0000 0.96495  0.47845  0.70554  Biso   1.000  C
  C40      1.0000 0.19851  0.92592  0.02711  Biso   1.000  C
  C41      1.0000 0.00886  0.66713  0.57863  Biso   1.000  C
  C42      1.0000 0.46472  0.46898  0.83872  Biso   1.000  C
  C43      1.0000 0.83844  0.43550  0.52228  Biso   1.000  C
  C44      1.0000 0.01604  0.15695  0.95428  Biso   1.000  C
  C45      1.0000 0.57849  0.96476  0.69363  Biso   1.000  C
  C46      1.0000 0.33446  0.42436  0.02457  Biso   1.000  C
  C47      1.0000 0.51525  0.15737  0.58032  Biso   1.000  C
  C48      1.0000 0.07921  0.97565  0.83634  Biso   1.000  C
  C49      1.0000 0.02944  0.02929  0.83059  Biso   1.000  C
  C50      1.0000 0.82525  0.98419  0.05485  Biso   1.000  C
  C51      1.0000 0.07407  0.79826  0.02777  Biso   1.000  C
  C52      1.0000 0.52899  0.02876  0.70131  Biso   1.000  C
  C53      1.0000 0.32782  0.99358  0.47850  Biso   1.000  C
  C54      1.0000 0.56891  0.80061  0.51118  Biso   1.000  C
  C55      1.0000 0.51455  0.53028  0.82930  Biso   1.000  C
  C56      1.0000 0.70422  0.48085  0.07605  Biso   1.000  C
  C57      1.0000 0.46681  0.30136  0.02365  Biso   1.000  C
  C58      1.0000 0.01530  0.53162  0.69674  Biso   1.000  C
  C59      1.0000 0.20126  0.48472  0.46054  Biso   1.000  C
  C60      1.0000 0.96614  0.30684  0.50901  Biso   1.000  C
  C61      1.0000 0.00139  0.93371  0.19847  Biso   1.000  C
  C62      1.0000 0.19869  0.97841  0.97339  Biso   1.000  C
  C63      1.0000 0.96019  0.16367  0.99908  Biso   1.000  C
  C64      1.0000 0.48744  0.93452  0.33420  Biso   1.000  C
  C65      1.0000 0.69852  0.98611  0.55735  Biso   1.000  C
  C66      1.0000 0.46850  0.16173  0.52321  Biso   1.000  C
  C67      1.0000 0.51529  0.43238  0.20117  Biso   1.000  C
  C68      1.0000 0.33760  0.47033  0.96232  Biso   1.000  C
  C69      1.0000 0.57860  0.65932  0.00088  Biso   1.000  C
  C70      1.0000 0.02191  0.43842  0.33101  Biso   1.000  C
  C71      1.0000 0.84193  0.49387  0.57451  Biso   1.000  C
  C72      1.0000 0.06472  0.66551  0.52689  Biso   1.000  C
  C73      1.0000 0.01487  0.54681  0.34057  Biso   1.000  C
  C74      1.0000 0.33400  0.97976  0.58484  Biso   1.000  C
  C75      1.0000 0.57671  0.29792  0.02334  Biso   1.000  C
  C76      1.0000 0.51957  0.54261  0.19650  Biso   1.000  C
  C77      1.0000 0.84084  0.98344  0.94691  Biso   1.000  C
  C78      1.0000 0.07325  0.30840  0.52225  Biso   1.000  C
  C79      1.0000 0.50743  0.03887  0.34566  Biso   1.000  C
  C80      1.0000 0.19625  0.49047  0.57064  Biso   1.000  C
  C81      1.0000 0.96656  0.80516  0.02070  Biso   1.000  C
  C82      1.0000 0.99255  0.03909  0.19105  Biso   1.000  C
  C83      1.0000 0.70885  0.47947  0.96846  Biso   1.000  C
  C84      1.0000 0.45727  0.80537  0.50182  Biso   1.000  C
  C85      1.0000 0.01923  0.42405  0.69989  Biso   1.000  C
  C86      1.0000 0.68644  0.98874  0.44817  Biso   1.000  C
  C87      1.0000 0.46868  0.66006  0.00694  Biso   1.000  C
  C88      1.0000 0.52079  0.42381  0.84135  Biso   1.000  C
  C89      1.0000 0.19149  0.97869  0.08322  Biso   1.000  C
  C90      1.0000 0.95592  0.67400  0.52109  Biso   1.000  C
  C91      1.0000 0.51658  0.91504  0.69852  Biso   1.000  C
  C92      1.0000 0.83960  0.48209  0.46635  Biso   1.000  C
  C93      1.0000 0.06894  0.15884  0.01269  Biso   1.000  C
  C94      1.0000 0.01825  0.92198  0.83758  Biso   1.000  C
  C95      1.0000 0.33857  0.48647  0.07305  Biso   1.000  C
  C96      1.0000 0.57535  0.16719  0.53528  Biso   1.000  C
  C97      1.0000 0.69689  0.07323  0.50604  Biso   1.000  C
  C98      1.0000 0.52302  0.65978  0.09252  Biso   1.000  C
  C99      1.0000 0.10689  0.47250  0.70204  Biso   1.000  C
  C100     1.0000 0.19753  0.06395  0.02376  Biso   1.000  C
  C101     1.0000 0.02010  0.66972  0.43822  Biso   1.000  C
  C102     1.0000 0.60305  0.47906  0.84281  Biso   1.000  C
  C103     1.0000 0.83377  0.57570  0.51042  Biso   1.000  C
  C104     1.0000 0.01516  0.16087  0.09450  Biso   1.000  C
  C105     1.0000 0.43912  0.96981  0.70292  Biso   1.000  C
  C106     1.0000 0.34290  0.56340  0.00905  Biso   1.000  C
  C107     1.0000 0.52895  0.16433  0.44153  Biso   1.000  C
  C108     1.0000 0.93832  0.97676  0.82939  Biso   1.000  C
  C109     1.0000 0.33211  0.90114  0.52030  Biso   1.000  C
  C110     1.0000 0.52270  0.29937  0.93684  Biso   1.000  C
  C111     1.0000 0.93011  0.48624  0.33668  Biso   1.000  C
  C112     1.0000 0.83857  0.89994  0.00627  Biso   1.000  C
  C113     1.0000 0.01212  0.30037  0.59942  Biso   1.000  C
  C114     1.0000 0.43348  0.48674  0.19920  Biso   1.000  C
  C115     1.0000 0.20138  0.39959  0.51704  Biso   1.000  C
  C116     1.0000 0.01787  0.80040  0.93822  Biso   1.000  C
  C117     1.0000 0.58369  0.97990  0.32854  Biso   1.000  C
  C118     1.0000 0.70407  0.39615  0.01150  Biso   1.000  C
  C119     1.0000 0.50089  0.79583  0.59150  Biso   1.000  C
  C120     1.0000 0.08579  0.99510  0.20148  Biso   1.000  C
  C121     1.0000 0.82360  0.98608  0.08692  Biso   1.000  C
  C122     1.0000 0.10664  0.79934  0.02822  Biso   1.000  C
  C123     1.0000 0.03143  0.06022  0.82808  Biso   1.000  C
  C124     1.0000 0.32400  0.99336  0.44690  Biso   1.000  C
  C125     1.0000 0.60006  0.80080  0.51462  Biso   1.000  C
  C126     1.0000 0.53293  0.06018  0.70408  Biso   1.000  C
  C127     1.0000 0.70167  0.48031  0.10821  Biso   1.000  C
  C128     1.0000 0.43396  0.30135  0.02520  Biso   1.000  C
  C129     1.0000 0.50791  0.56180  0.82775  Biso   1.000  C
  C130     1.0000 0.20100  0.48850  0.42797  Biso   1.000  C
  C131     1.0000 0.93334  0.30649  0.51571  Biso   1.000  C
  C132     1.0000 0.00931  0.56334  0.69763  Biso   1.000  C
  C133     1.0000 0.19974  0.97457  0.94208  Biso   1.000  C
  C134     1.0000 0.92893  0.16334  0.99653  Biso   1.000  C
  C135     1.0000 0.99843  0.90216  0.20010  Biso   1.000  C
  C136     1.0000 0.70077  0.98459  0.58980  Biso   1.000  C
  C137     1.0000 0.43635  0.16100  0.51962  Biso   1.000  C
  C138     1.0000 0.48935  0.90269  0.33128  Biso   1.000  C
  C139     1.0000 0.33724  0.46801  0.92987  Biso   1.000  C
  C140     1.0000 0.61057  0.65952  0.99709  Biso   1.000  C
  C141     1.0000 0.51731  0.40042  0.20385  Biso   1.000  C
  C142     1.0000 0.84198  0.49161  0.60606  Biso   1.000  C
  C143     1.0000 0.09707  0.66626  0.52405  Biso   1.000  C
  C144     1.0000 0.02436  0.40650  0.32975  Biso   1.000  C
  C145     1.0000 0.33959  0.49179  0.10499  Biso   1.000  C
  C146     1.0000 0.10552  0.30704  0.53004  Biso   1.000  C
  C147     1.0000 0.51516  0.07063  0.34682  Biso   1.000  C
  C148     1.0000 0.83909  0.48339  0.43512  Biso   1.000  C
  C149     1.0000 0.60886  0.29767  0.01871  Biso   1.000  C
  C150     1.0000 0.99723  0.07105  0.19220  Biso   1.000  C
  C151     1.0000 0.18832  0.97753  0.11563  Biso   1.000  C
  C152     1.0000 0.42463  0.80646  0.50516  Biso   1.000  C
  C153     1.0000 0.01977  0.57828  0.34011  Biso   1.000  C
  C154     1.0000 0.68696  0.98502  0.41653  Biso   1.000  C
  C155     1.0000 0.93431  0.80483  0.02351  Biso   1.000  C
  C156     1.0000 0.51617  0.57314  0.19373  Biso   1.000  C
  C157     1.0000 0.70731  0.47754  0.93579  Biso   1.000  C
  C158     1.0000 0.92350  0.67497  0.52137  Biso   1.000  C
  C159     1.0000 0.51227  0.88284  0.69566  Biso   1.000  C
  C160     1.0000 0.19781  0.48577  0.60151  Biso   1.000  C
  C161     1.0000 0.43628  0.65944  0.00456  Biso   1.000  C
  C162     1.0000 0.01494  0.89023  0.83805  Biso   1.000  C
  C163     1.0000 0.84234  0.99257  0.91710  Biso   1.000  C
  C164     1.0000 0.60765  0.16958  0.53439  Biso   1.000  C
  C165     1.0000 0.01987  0.39157  0.69991  Biso   1.000  C
  C166     1.0000 0.33610  0.97209  0.61636  Biso   1.000  C
  C167     1.0000 0.10193  0.15938  0.01265  Biso   1.000  C
  C168     1.0000 0.51513  0.39197  0.84261  Biso   1.000  C
  C169     1.0000 0.01893  0.80353  0.10995  Biso   1.000  C
  C170     1.0000 0.11168  0.97454  0.83817  Biso   1.000  C
  C171     1.0000 0.83246  0.07255  0.00173  Biso   1.000  C
  C172     1.0000 0.52066  0.80915  0.41956  Biso   1.000  C
  C173     1.0000 0.61039  0.96755  0.69049  Biso   1.000  C
  C174     1.0000 0.33781  0.06980  0.52850  Biso   1.000  C
  C175     1.0000 0.51830  0.30140  0.11094  Biso   1.000  C
  C176     1.0000 0.43206  0.46554  0.83784  Biso   1.000  C
  C177     1.0000 0.70448  0.56673  0.01636  Biso   1.000  C
  C178     1.0000 0.03040  0.31138  0.42663  Biso   1.000  C
  C179     1.0000 0.93092  0.47616  0.70554  Biso   1.000  C
  C180     1.0000 0.19539  0.57292  0.51780  Biso   1.000  C
  C181     1.0000 0.01779  0.15678  0.92289  Biso   1.000  C
  C182     1.0000 0.91320  0.98299  0.18886  Biso   1.000  C
  C183     1.0000 0.19983  0.89392  0.02290  Biso   1.000  C
  C184     1.0000 0.51607  0.15682  0.61214  Biso   1.000  C
  C185     1.0000 0.40994  0.98942  0.34218  Biso   1.000  C
  C186     1.0000 0.69081  0.90171  0.50585  Biso   1.000  C
  C187     1.0000 0.50794  0.65905  0.92012  Biso   1.000  C
  C188     1.0000 0.60656  0.47897  0.20332  Biso   1.000  C
  C189     1.0000 0.33310  0.39292  0.02735  Biso   1.000  C
  C190     1.0000 0.00760  0.66634  0.61008  Biso   1.000  C
  C191     1.0000 0.10095  0.49622  0.33360  Biso   1.000  C
  C192     1.0000 0.84044  0.40232  0.52280  Biso   1.000  C
  C193     1.0000 0.86876  0.98882  0.90146  Biso   1.000  C
  C194     1.0000 0.91894  0.83157  0.02007  Biso   1.000  C
  C195     1.0000 0.01621  0.87567  0.86548  Biso   1.000  C
  C196     1.0000 0.36502  0.97351  0.62908  Biso   1.000  C
  C197     1.0000 0.40889  0.83327  0.51356  Biso   1.000  C
  C198     1.0000 0.51600  0.86855  0.66780  Biso   1.000  C
  C199     1.0000 0.67778  0.47836  0.92021  Biso   1.000  C
  C200     1.0000 0.62529  0.32379  0.01893  Biso   1.000  C
  C201     1.0000 0.51215  0.37630  0.86887  Biso   1.000  C
  C202     1.0000 0.17123  0.48401  0.61900  Biso   1.000  C
  C203     1.0000 0.12275  0.33299  0.52949  Biso   1.000  C
  C204     1.0000 0.01554  0.37652  0.67272  Biso   1.000  C
  C205     1.0000 0.15888  0.98105  0.12676  Biso   1.000  C
  C206     1.0000 0.11741  0.13128  0.01319  Biso   1.000  C
  C207     1.0000 0.00072  0.08665  0.16559  Biso   1.000  C
  C208     1.0000 0.65812  0.98176  0.40245  Biso   1.000  C
  C209     1.0000 0.62350  0.14255  0.53010  Biso   1.000  C
  C210     1.0000 0.52035  0.08732  0.37425  Biso   1.000  C
  C211     1.0000 0.36566  0.49211  0.12059  Biso   1.000  C
  C212     1.0000 0.42089  0.63151  0.00410  Biso   1.000  C
  C213     1.0000 0.51665  0.58516  0.16487  Biso   1.000  C
  C214     1.0000 0.86506  0.48386  0.41856  Biso   1.000  C
  C215     1.0000 0.90944  0.64747  0.52279  Biso   1.000  C
  C216     1.0000 0.02094  0.59297  0.36749  Biso   1.000  C
  C217     1.0000 0.12477  0.97620  0.86694  Biso   1.000  C
  C218     1.0000 0.85930  0.08738  0.00476  Biso   1.000  C
  C219     1.0000 0.01173  0.83030  0.12515  Biso   1.000  C
  C220     1.0000 0.62347  0.97520  0.66419  Biso   1.000  C
  C221     1.0000 0.36482  0.08530  0.52300  Biso   1.000  C
  C222     1.0000 0.51607  0.83615  0.40460  Biso   1.000  C
  C223     1.0000 0.41516  0.46855  0.86454  Biso   1.000  C
  C224     1.0000 0.67721  0.58213  0.01067  Biso   1.000  C
  C225     1.0000 0.51515  0.32908  0.12659  Biso   1.000  C
  C226     1.0000 0.91660  0.47867  0.67724  Biso   1.000  C
  C227     1.0000 0.16781  0.58847  0.52156  Biso   1.000  C
  C228     1.0000 0.03224  0.33860  0.41083  Biso   1.000  C
  C229     1.0000 0.89965  0.98511  0.15991  Biso   1.000  C
  C230     1.0000 0.17165  0.87900  0.02100  Biso   1.000  C
  C231     1.0000 0.02132  0.13057  0.90599  Biso   1.000  C
  C232     1.0000 0.39453  0.99222  0.36952  Biso   1.000  C
  C233     1.0000 0.66413  0.88431  0.50934  Biso   1.000  C
  C234     1.0000 0.52051  0.12975  0.62885  Biso   1.000  C
  C235     1.0000 0.62155  0.47712  0.17597  Biso   1.000  C
  C236     1.0000 0.36158  0.37797  0.02545  Biso   1.000  C
  C237     1.0000 0.50550  0.63029  0.90432  Biso   1.000  C
  C238     1.0000 0.11807  0.49353  0.36008  Biso   1.000  C
  C239     1.0000 0.86789  0.38752  0.52258  Biso   1.000  C
  C240     1.0000 0.00717  0.63789  0.62337  Biso   1.000  C
  C241     1.0000 0.61982  0.47875  0.86993  Biso   1.000  C
  C242     1.0000 0.86059  0.59296  0.51677  Biso   1.000  C
  C243     1.0000 0.50433  0.82160  0.60968  Biso   1.000  C
  C244     1.0000 0.12030  0.47989  0.67517  Biso   1.000  C
  C245     1.0000 0.36973  0.58024  0.00879  Biso   1.000  C
  C246     1.0000 0.02077  0.82684  0.91996  Biso   1.000  C
  C247     1.0000 0.92059  0.98127  0.85498  Biso   1.000  C
  C248     1.0000 0.67281  0.09079  0.51545  Biso   1.000  C
  C249     1.0000 0.01366  0.32651  0.61780  Biso   1.000  C
  C250     1.0000 0.42009  0.97081  0.67747  Biso   1.000  C
  C251     1.0000 0.16972  0.07891  0.01885  Biso   1.000  C
  C252     1.0000 0.51841  0.32632  0.92253  Biso   1.000  C
  C253     1.0000 0.41807  0.48789  0.17153  Biso   1.000  C
  C254     1.0000 0.17451  0.38288  0.52050  Biso   1.000  C
  C255     1.0000 0.52820  0.13689  0.42604  Biso   1.000  C
  C256     1.0000 0.91668  0.48368  0.36400  Biso   1.000  C
  C257     1.0000 0.67699  0.37986  0.01569  Biso   1.000  C
  C258     1.0000 0.00723  0.13564  0.11197  Biso   1.000  C
  C259     1.0000 0.10355  0.99241  0.17505  Biso   1.000  C
  C260     1.0000 0.35787  0.88411  0.51495  Biso   1.000  C
  C261     1.0000 0.02232  0.64342  0.42062  Biso   1.000  C
  C262     1.0000 0.60196  0.97682  0.35457  Biso   1.000  C
  C263     1.0000 0.86654  0.88493  0.00799  Biso   1.000  C
  C264     1.0000 0.52353  0.63440  0.11090  Biso   1.000  C
  C265     1.0000 0.03068  0.07712  0.85479  Biso   1.000  C
  C266     1.0000 0.84940  0.99005  0.10470  Biso   1.000  C
  C267     1.0000 0.12261  0.82571  0.03098  Biso   1.000  C
  C268     1.0000 0.52954  0.07783  0.67786  Biso   1.000  C
  C269     1.0000 0.34797  0.99773  0.42786  Biso   1.000  C
  C270     1.0000 0.61397  0.82937  0.51477  Biso   1.000  C
  C271     1.0000 0.50850  0.57797  0.85456  Biso   1.000  C
  C272     1.0000 0.67497  0.47794  0.12381  Biso   1.000  C
  C273     1.0000 0.41611  0.32788  0.02287  Biso   1.000  C
  C274     1.0000 0.00835  0.58148  0.67190  Biso   1.000  C
  C275     1.0000 0.17369  0.48871  0.41239  Biso   1.000  C
  C276     1.0000 0.91742  0.33416  0.51932  Biso   1.000  C
  C277     1.0000 0.00071  0.88452  0.17353  Biso   1.000  C
  C278     1.0000 0.17411  0.97698  0.92357  Biso   1.000  C
  C279     1.0000 0.91343  0.13803  0.00035  Biso   1.000  C
  C280     1.0000 0.49166  0.88550  0.35749  Biso   1.000  C
  C281     1.0000 0.67306  0.98421  0.60658  Biso   1.000  C
  C282     1.0000 0.41960  0.13593  0.52308  Biso   1.000  C
  C283     1.0000 0.51723  0.38404  0.17605  Biso   1.000  C
  C284     1.0000 0.36431  0.46814  0.91400  Biso   1.000  C
  C285     1.0000 0.62683  0.63256  0.99566  Biso   1.000  C
  C286     1.0000 0.02590  0.39019  0.35638  Biso   1.000  C
  C287     1.0000 0.86704  0.49031  0.62399  Biso   1.000  C
  C288     1.0000 0.11523  0.63813  0.52360  Biso   1.000  C
  C289     1.0000 0.35672  0.85354  0.51332  Biso   1.000  C
  C290     1.0000 0.51961  0.32533  0.89005  Biso   1.000  C
  C291     1.0000 0.88589  0.48634  0.36400  Biso   1.000  C
  C292     1.0000 0.86567  0.85374  0.01252  Biso   1.000  C
  C293     1.0000 0.01491  0.32425  0.65023  Biso   1.000  C
  C294     1.0000 0.38670  0.48650  0.17297  Biso   1.000  C
  C295     1.0000 0.17498  0.35131  0.51930  Biso   1.000  C
  C296     1.0000 0.01501  0.82402  0.88908  Biso   1.000  C
  C297     1.0000 0.63382  0.98041  0.35099  Biso   1.000  C
  C298     1.0000 0.67629  0.34785  0.01211  Biso   1.000  C
  C299     1.0000 0.50391  0.81763  0.64092  Biso   1.000  C
  C300     1.0000 0.13436  0.98783  0.17783  Biso   1.000  C
  C301     1.0000 0.67453  0.12117  0.51955  Biso   1.000  C
  C302     1.0000 0.51732  0.63761  0.14151  Biso   1.000  C
  C303     1.0000 0.15153  0.47935  0.67362  Biso   1.000  C
  C304     1.0000 0.17052  0.10985  0.01594  Biso   1.000  C
  C305     1.0000 0.02263  0.64485  0.38959  Biso   1.000  C
  C306     1.0000 0.65218  0.47954  0.86853  Biso   1.000  C
  C307     1.0000 0.85662  0.62374  0.51829  Biso   1.000  C
  C308     1.0000 0.01251  0.13699  0.14361  Biso   1.000  C
  C309     1.0000 0.38950  0.96786  0.68046  Biso   1.000  C
  C310     1.0000 0.36888  0.61067  0.00665  Biso   1.000  C
  C311     1.0000 0.52773  0.13804  0.39437  Biso   1.000  C
  C312     1.0000 0.88951  0.98414  0.85127  Biso   1.000  C
  C313     1.0000 0.17180  0.49189  0.38073  Biso   1.000  C
  C314     1.0000 0.38773  0.13770  0.52031  Biso   1.000  C
  C315     1.0000 0.51934  0.35228  0.17870  Biso   1.000  C
  C316     1.0000 0.67556  0.47758  0.15610  Biso   1.000  C
  C317     1.0000 0.88157  0.13781  0.99548  Biso   1.000  C
  C318     1.0000 0.02478  0.35803  0.35641  Biso   1.000  C
  C319     1.0000 0.34392  0.99405  0.39549  Biso   1.000  C
  C320     1.0000 0.14543  0.64066  0.51823  Biso   1.000  C
  C321     1.0000 0.00614  0.85326  0.17692  Biso   1.000  C
  C322     1.0000 0.84823  0.98894  0.13510  Biso   1.000  C
  C323     1.0000 0.65714  0.63416  0.99966  Biso   1.000  C
  C324     1.0000 0.50056  0.85511  0.35432  Biso   1.000  C
  C325     1.0000 0.86479  0.48713  0.65462  Biso   1.000  C
  C326     1.0000 0.64594  0.82886  0.51056  Biso   1.000  C
  C327     1.0000 0.50348  0.60830  0.85101  Biso   1.000  C
  C328     1.0000 0.36235  0.46644  0.88318  Biso   1.000  C
  C329     1.0000 0.15311  0.82571  0.02596  Biso   1.000  C
  C330     1.0000 0.00634  0.61260  0.67420  Biso   1.000  C
  C331     1.0000 0.67439  0.97811  0.63725  Biso   1.000  C
  C332     1.0000 0.88590  0.33410  0.51854  Biso   1.000  C
  C333     1.0000 0.02580  0.10765  0.85329  Biso   1.000  C
  C334     1.0000 0.17701  0.96986  0.89174  Biso   1.000  C
  C335     1.0000 0.38506  0.32613  0.02459  Biso   1.000  C
  C336     1.0000 0.53002  0.10948  0.68037  Biso   1.000  C
  C337     1.0000 0.67521  0.47866  0.88940  Biso   1.000  C
  C338     1.0000 0.87824  0.64660  0.51881  Biso   1.000  C
  C339     1.0000 0.50740  0.83825  0.66298  Biso   1.000  C
  C340     1.0000 0.17317  0.47986  0.65051  Biso   1.000  C
  C341     1.0000 0.39017  0.63305  0.00508  Biso   1.000  C
  C342     1.0000 0.01259  0.84432  0.86651  Biso   1.000  C
  C343     1.0000 0.86673  0.98830  0.87047  Biso   1.000  C
  C344     1.0000 0.65493  0.14281  0.52663  Biso   1.000  C
  C345     1.0000 0.01579  0.34520  0.67300  Biso   1.000  C
  C346     1.0000 0.36614  0.96682  0.66029  Biso   1.000  C
  C347     1.0000 0.14896  0.13140  0.01410  Biso   1.000  C
  C348     1.0000 0.51707  0.34529  0.86720  Biso   1.000  C
  C349     1.0000 0.36603  0.49054  0.15173  Biso   1.000  C
  C350     1.0000 0.15355  0.33040  0.52456  Biso   1.000  C
  C351     1.0000 0.52520  0.11829  0.37229  Biso   1.000  C
  C352     1.0000 0.86403  0.48500  0.38653  Biso   1.000  C
  C353     1.0000 0.65532  0.32486  0.01356  Biso   1.000  C
  C354     1.0000 0.00925  0.11589  0.16571  Biso   1.000  C
  C355     1.0000 0.15697  0.98273  0.15794  Biso   1.000  C
  C356     1.0000 0.37779  0.83159  0.51416  Biso   1.000  C
  C357     1.0000 0.02181  0.62316  0.36834  Biso   1.000  C
  C358     1.0000 0.65734  0.98145  0.37078  Biso   1.000  C
  C359     1.0000 0.88726  0.83251  0.01754  Biso   1.000  C
  C360     1.0000 0.51483  0.61680  0.16392  Biso   1.000  C
  C361     1.0000 0.01984  0.12904  0.87453  Biso   1.000  C
  C362     1.0000 0.86877  0.98781  0.15865  Biso   1.000  C
  C363     1.0000 0.17362  0.84809  0.02199  Biso   1.000  C
  C364     1.0000 0.52606  0.13144  0.65884  Biso   1.000  C
  C365     1.0000 0.36356  0.99355  0.37204  Biso   1.000  C
  C366     1.0000 0.66595  0.85235  0.50849  Biso   1.000  C
  C367     1.0000 0.50321  0.62967  0.87289  Biso   1.000  C
  C368     1.0000 0.65336  0.47762  0.17743  Biso   1.000  C
  C369     1.0000 0.36132  0.34629  0.02468  Biso   1.000  C
  C370     1.0000 0.00504  0.63604  0.65551  Biso   1.000  C
  C371     1.0000 0.14958  0.49315  0.35956  Biso   1.000  C
  C372     1.0000 0.86531  0.35593  0.52024  Biso   1.000  C
  C373     1.0000 0.01000  0.83093  0.15644  Biso   1.000  C
  C374     1.0000 0.15649  0.97107  0.86936  Biso   1.000  C
  C375     1.0000 0.85930  0.11747  0.99771  Biso   1.000  C
  C376     1.0000 0.51103  0.83512  0.37345  Biso   1.000  C
  C377     1.0000 0.65426  0.97614  0.66088  Biso   1.000  C
  C378     1.0000 0.36393  0.11628  0.52206  Biso   1.000  C
  C379     1.0000 0.51810  0.32831  0.15829  Biso   1.000  C
  C380     1.0000 0.38482  0.46678  0.86256  Biso   1.000  C
  C381     1.0000 0.67789  0.61345  0.00751  Biso   1.000  C
  C382     1.0000 0.02798  0.33647  0.37805  Biso   1.000  C
  C383     1.0000 0.88533  0.48249  0.67736  Biso   1.000  C
  C384     1.0000 0.16831  0.61955  0.51748  Biso   1.000  C
  C385     1.0000 0.19696  0.12613  0.01962  Biso   1.000  C
  C386     1.0000 0.01968  0.16341  0.16007  Biso   1.000  C
  C387     1.0000 0.14923  0.98878  0.20655  Biso   1.000  C
  C388     1.0000 0.70243  0.13576  0.51558  Biso   1.000  C
  C389     1.0000 0.53017  0.16569  0.37780  Biso   1.000  C
  C390     1.0000 0.64779  0.98037  0.32261  Biso   1.000  C
  C391     1.0000 0.34152  0.62596  0.00665  Biso   1.000  C
  C392     1.0000 0.51564  0.66538  0.15571  Biso   1.000  C
  C393     1.0000 0.37224  0.48823  0.20056  Biso   1.000  C
  C394     1.0000 0.82990  0.63826  0.51387  Biso   1.000  C
  C395     1.0000 0.02143  0.67212  0.37515  Biso   1.000  C
  C396     1.0000 0.86853  0.48563  0.33805  Biso   1.000  C
  C397     1.0000 0.83867  0.83816  0.01223  Biso   1.000  C
  C398     1.0000 0.00879  0.79720  0.87536  Biso   1.000  C
  C399     1.0000 0.87570  0.98399  0.82185  Biso   1.000  C
  C400     1.0000 0.32964  0.83793  0.51268  Biso   1.000  C
  C401     1.0000 0.49633  0.79007  0.65368  Biso   1.000  C
  C402     1.0000 0.37706  0.96357  0.70887  Biso   1.000  C
  C403     1.0000 0.70365  0.33303  0.00598  Biso   1.000  C
  C404     1.0000 0.52547  0.29854  0.87336  Biso   1.000  C
  C405     1.0000 0.66718  0.48027  0.84042  Biso   1.000  C
  C406     1.0000 0.20063  0.33417  0.51469  Biso   1.000  C
  C407     1.0000 0.01726  0.29806  0.66431  Biso   1.000  C
  C408     1.0000 0.16833  0.47375  0.69897  Biso   1.000  C
  C409     1.0000 0.17345  0.96611  0.84437  Biso   1.000  C
  C410     1.0000 0.83244  0.13309  0.99312  Biso   1.000  C
  C411     1.0000 0.01556  0.80482  0.17391  Biso   1.000  C
  C412     1.0000 0.67193  0.97148  0.68665  Biso   1.000  C
  C413     1.0000 0.33812  0.13220  0.52185  Biso   1.000  C
  C414     1.0000 0.51299  0.80957  0.35556  Biso   1.000  C
  C415     1.0000 0.37002  0.46243  0.83554  Biso   1.000  C
  C416     1.0000 0.70500  0.63016  0.00948  Biso   1.000  C
  C417     1.0000 0.52215  0.30172  0.17526  Biso   1.000  C
  C418     1.0000 0.86736  0.48118  0.70375  Biso   1.000  C
  C419     1.0000 0.19414  0.63548  0.51146  Biso   1.000  C
  C420     1.0000 0.02588  0.30954  0.36183  Biso   1.000  C
  C421     1.0000 0.85035  0.98635  0.18536  Biso   1.000  C
  C422     1.0000 0.20120  0.83218  0.01988  Biso   1.000  C
  C423     1.0000 0.01774  0.15590  0.85803  Biso   1.000  C
  C424     1.0000 0.34668  0.99056  0.34639  Biso   1.000  C
  C425     1.0000 0.69344  0.83700  0.50412  Biso   1.000  C
  C426     1.0000 0.52722  0.15850  0.67485  Biso   1.000  C
  C427     1.0000 0.66936  0.48086  0.20560  Biso   1.000  C
  C428     1.0000 0.33459  0.32868  0.02711  Biso   1.000  C
  C429     1.0000 0.49943  0.65597  0.85788  Biso   1.000  C
  C430     1.0000 0.16458  0.49474  0.33304  Biso   1.000  C
  C431     1.0000 0.83752  0.33959  0.51833  Biso   1.000  C
  C432     1.0000 0.00024  0.66125  0.67383  Biso   1.000  C
  C433     1.0000 0.02436  0.12248  0.82568  Biso   1.000  C
  C434     1.0000 0.81919  0.98601  0.14948  Biso   1.000  C
  C435     1.0000 0.16930  0.79943  0.02364  Biso   1.000  C
  C436     1.0000 0.53333  0.12504  0.70715  Biso   1.000  C
  C437     1.0000 0.31685  0.99027  0.38230  Biso   1.000  C
  C438     1.0000 0.66243  0.80244  0.50614  Biso   1.000  C
  C439     1.0000 0.49928  0.62292  0.82465  Biso   1.000  C
  C440     1.0000 0.70202  0.47978  0.17174  Biso   1.000  C
  C441     1.0000 0.37037  0.29847  0.02653  Biso   1.000  C
  C442     1.0000 0.00471  0.62656  0.70292  Biso   1.000  C
  C443     1.0000 0.19834  0.49322  0.36445  Biso   1.000  C
  C444     1.0000 0.87003  0.30789  0.51828  Biso   1.000  C
  C445     1.0000 0.00808  0.83987  0.20393  Biso   1.000  C
  C446     1.0000 0.20399  0.96338  0.87938  Biso   1.000  C
  C447     1.0000 0.86732  0.16409  0.98848  Biso   1.000  C
  C448     1.0000 0.50102  0.84177  0.32574  Biso   1.000  C
  C449     1.0000 0.70218  0.97630  0.65323  Biso   1.000  C
  C450     1.0000 0.37180  0.16459  0.51760  Biso   1.000  C
  C451     1.0000 0.52501  0.33742  0.20624  Biso   1.000  C
  C452     1.0000 0.33588  0.46320  0.86706  Biso   1.000  C
  C453     1.0000 0.67268  0.66150  0.00087  Biso   1.000  C
  C454     1.0000 0.02021  0.34256  0.32851  Biso   1.000  C
  C455     1.0000 0.83755  0.48672  0.66859  Biso   1.000  C
  C456     1.0000 0.15991  0.66778  0.51415  Biso   1.000  C
  C457     1.0000 0.01997  0.63914  0.34117  Biso   1.000  C
  C458     1.0000 0.34068  0.96286  0.67898  Biso   1.000  C
  C459     1.0000 0.67191  0.29943  0.00792  Biso   1.000  C
  C460     1.0000 0.51339  0.63452  0.18992  Biso   1.000  C
  C461     1.0000 0.84147  0.99022  0.85429  Biso   1.000  C
  C462     1.0000 0.16657  0.30246  0.52060  Biso   1.000  C
  C463     1.0000 0.52805  0.13306  0.34527  Biso   1.000  C
  C464     1.0000 0.20037  0.47814  0.66522  Biso   1.000  C
  C465     1.0000 0.87016  0.80651  0.01908  Biso   1.000  C
  C466     1.0000 0.01436  0.13142  0.19324  Biso   1.000  C
  C467     1.0000 0.70165  0.47932  0.87327  Biso   1.000  C
  C468     1.0000 0.36234  0.80473  0.51024  Biso   1.000  C
  C469     1.0000 0.01955  0.32851  0.69972  Biso   1.000  C
  C470     1.0000 0.68278  0.98417  0.35390  Biso   1.000  C
  C471     1.0000 0.37387  0.65965  0.00470  Biso   1.000  C
  C472     1.0000 0.52132  0.32968  0.83983  Biso   1.000  C
  C473     1.0000 0.18323  0.98059  0.17625  Biso   1.000  C
  C474     1.0000 0.86096  0.67274  0.51665  Biso   1.000  C
  C475     1.0000 0.50174  0.82156  0.68960  Biso   1.000  C
  C476     1.0000 0.83749  0.48428  0.37294  Biso   1.000  C
  C477     1.0000 0.16494  0.15831  0.01635  Biso   1.000  C
  C478     1.0000 0.00845  0.82697  0.84009  Biso   1.000  C
  C479     1.0000 0.33983  0.49173  0.16717  Biso   1.000  C
  C480     1.0000 0.67082  0.16867  0.52502  Biso   1.000  C
  C481     1.0000 0.37717  0.77777  0.50401  Biso   1.000  C
  C482     1.0000 0.52177  0.34647  0.81296  Biso   1.000  C
  C483     1.0000 0.80958  0.48325  0.38872  Biso   1.000  C
  C484     1.0000 0.88688  0.77894  0.02390  Biso   1.000  C
  C485     1.0000 0.02087  0.34516  0.72703  Biso   1.000  C
  C486     1.0000 0.31234  0.49497  0.15141  Biso   1.000  C
  C487     1.0000 0.14998  0.27570  0.52348  Biso   1.000  C
  C488     1.0000 0.00761  0.84241  0.81383  Biso   1.000  C
  C489     1.0000 0.71188  0.98822  0.36759  Biso   1.000  C
  C490     1.0000 0.65632  0.27192  0.00879  Biso   1.000  C
  C491     1.0000 0.50524  0.83561  0.71835  Biso   1.000  C
  C492     1.0000 0.21115  0.97318  0.16522  Biso   1.000  C
  C493     1.0000 0.65670  0.19501  0.53162  Biso   1.000  C
  C494     1.0000 0.51653  0.62152  0.21938  Biso   1.000  C
  C495     1.0000 0.22679  0.48094  0.64704  Biso   1.000  C
  C496     1.0000 0.15034  0.18643  0.01387  Biso   1.000  C
  C497     1.0000 0.02046  0.62489  0.31365  Biso   1.000  C
  C498     1.0000 0.73014  0.48082  0.88770  Biso   1.000  C
  C499     1.0000 0.87495  0.70164  0.51722  Biso   1.000  C
  C500     1.0000 0.00975  0.11568  0.22095  Biso   1.000  C
  C501     1.0000 0.31327  0.95863  0.66398  Biso   1.000  C
  C502     1.0000 0.39035  0.68770  0.00451  Biso   1.000  C
  C503     1.0000 0.52500  0.11499  0.31888  Biso   1.000  C
  C504     1.0000 0.81406  0.99620  0.86989  Biso   1.000  C
  C505     1.0000 0.64940  0.47802  0.81329  Biso   1.000  C
  C506     1.0000 0.80405  0.62047  0.50816  Biso   1.000  C
  C507     1.0000 0.48753  0.76494  0.63527  Biso   1.000  C
  C508     1.0000 0.15578  0.46542  0.72638  Biso   1.000  C
  C509     1.0000 0.31431  0.60982  0.00882  Biso   1.000  C
  C510     1.0000 0.00470  0.77198  0.89280  Biso   1.000  C
  C511     1.0000 0.89277  0.98070  0.79591  Biso   1.000  C
  C512     1.0000 0.72727  0.11829  0.50538  Biso   1.000  C
  C513     1.0000 0.01617  0.27194  0.64556  Biso   1.000  C
  C514     1.0000 0.39500  0.96418  0.73468  Biso   1.000  C
  C515     1.0000 0.22486  0.10991  0.02382  Biso   1.000  C
  C516     1.0000 0.52675  0.27065  0.88920  Biso   1.000  C
  C517     1.0000 0.38921  0.48643  0.22836  Biso   1.000  C
  C518     1.0000 0.22640  0.35112  0.50800  Biso   1.000  C
  C519     1.0000 0.53461  0.19232  0.39412  Biso   1.000  C
  C520     1.0000 0.88243  0.48972  0.31051  Biso   1.000  C
  C521     1.0000 0.73024  0.34995  0.00184  Biso   1.000  C
  C522     1.0000 0.02523  0.18787  0.14219  Biso   1.000  C
  C523     1.0000 0.13042  0.99340  0.23226  Biso   1.000  C
  C524     1.0000 0.30198  0.85325  0.51936  Biso   1.000  C
  C525     1.0000 0.01892  0.69909  0.39107  Biso   1.000  C
  C526     1.0000 0.63078  0.97766  0.29581  Biso   1.000  C
  C527     1.0000 0.81161  0.85414  0.01289  Biso   1.000  C
  C528     1.0000 0.51472  0.69026  0.13739  Biso   1.000  C
  C529     1.0000 0.80456  0.11854  0.99651  Biso   1.000  C
  C530     1.0000 0.02256  0.77722  0.15767  Biso   1.000  C
  C531     1.0000 0.16135  0.96702  0.81556  Biso   1.000  C
  C532     1.0000 0.31141  0.11666  0.52780  Biso   1.000  C
  C533     1.0000 0.52322  0.78361  0.37047  Biso   1.000  C
  C534     1.0000 0.65882  0.96291  0.71390  Biso   1.000  C
  C535     1.0000 0.73240  0.61458  0.01402  Biso   1.000  C
  C536     1.0000 0.52100  0.27425  0.15869  Biso   1.000  C
  C537     1.0000 0.38615  0.45911  0.80794  Biso   1.000  C
  C538     1.0000 0.22144  0.62090  0.51196  Biso   1.000  C
  C539     1.0000 0.02536  0.28313  0.37787  Biso   1.000  C
  C540     1.0000 0.88406  0.47983  0.73098  Biso   1.000  C
  C541     1.0000 0.22865  0.84692  0.01923  Biso   1.000  C
  C542     1.0000 0.01649  0.18269  0.87346  Biso   1.000  C
  C543     1.0000 0.86486  0.98234  0.21325  Biso   1.000  C
  C544     1.0000 0.71869  0.85536  0.49854  Biso   1.000  C
  C545     1.0000 0.52226  0.18517  0.65851  Biso   1.000  C
  C546     1.0000 0.36025  0.98966  0.31721  Biso   1.000  C
  C547     1.0000 0.30773  0.34535  0.02845  Biso   1.000  C
  C548     1.0000 0.49879  0.68510  0.87313  Biso   1.000  C
  C549     1.0000 0.65229  0.48279  0.23191  Biso   1.000  C
  C550     1.0000 0.81074  0.35442  0.51616  Biso   1.000  C
  C551     1.0000 0.00163  0.68869  0.65919  Biso   1.000  C
  C552     1.0000 0.14866  0.49854  0.30624  Biso   1.000  C
  C553     1.0000 0.02659  0.10618  0.79924  Biso   1.000  C
  C554     1.0000 0.79215  0.98420  0.13325  Biso   1.000  C
  C555     1.0000 0.15398  0.77149  0.02244  Biso   1.000  C
  C556     1.0000 0.53762  0.10735  0.73291  Biso   1.000  C
  C557     1.0000 0.29216  0.99015  0.40079  Biso   1.000  C
  C558     1.0000 0.64671  0.77468  0.50713  Biso   1.000  C
  C559     1.0000 0.49645  0.60553  0.79902  Biso   1.000  C
  C560     1.0000 0.72926  0.47885  0.15564  Biso   1.000  C
  C561     1.0000 0.38703  0.27170  0.02450  Biso   1.000  C
  C562     1.0000 0.00303  0.60919  0.72996  Biso   1.000  C
  C563     1.0000 0.22610  0.49514  0.37937  Biso   1.000  C
  C564     1.0000 0.88557  0.28070  0.51711  Biso   1.000  C
  C565     1.0000 0.00210  0.85617  0.23108  Biso   1.000  C
  C566     1.0000 0.22953  0.95948  0.89961  Biso   1.000  C
  C567     1.0000 0.88360  0.19084  0.98355  Biso   1.000  C
  C568     1.0000 0.49371  0.85840  0.29952  Biso   1.000  C
  C569     1.0000 0.72918  0.98179  0.63809  Biso   1.000  C
  C570     1.0000 0.38948  0.19010  0.51351  Biso   1.000  C
  C571     1.0000 0.52789  0.35469  0.23223  Biso   1.000  C
  C572     1.0000 0.30761  0.46698  0.88307  Biso   1.000  C
  C573     1.0000 0.65752  0.68821  0.00118  Biso   1.000  C
  C574     1.0000 0.01692  0.35926  0.30162  Biso   1.000  C
  C575     1.0000 0.81034  0.48621  0.65114  Biso   1.000  C
  C576     1.0000 0.14276  0.69494  0.51439  Biso   1.000  C
  C577     1.0000 0.31217  0.49573  0.12033  Biso   1.000  C
  C578     1.0000 0.11859  0.27856  0.52850  Biso   1.000  C
  C579     1.0000 0.52086  0.08407  0.31964  Biso   1.000  C
  C580     1.0000 0.81059  0.48006  0.42045  Biso   1.000  C
  C581     1.0000 0.62412  0.27124  0.01333  Biso   1.000  C
  C582     1.0000 0.00196  0.08450  0.22073  Biso   1.000  C
  C583     1.0000 0.21330  0.97161  0.13400  Biso   1.000  C
  C584     1.0000 0.40882  0.77860  0.50295  Biso   1.000  C
  C585     1.0000 0.01896  0.59360  0.31339  Biso   1.000  C
  C586     1.0000 0.71382  0.98760  0.39897  Biso   1.000  C
  C587     1.0000 0.91866  0.77777  0.02881  Biso   1.000  C
  C588     1.0000 0.51545  0.59079  0.22073  Biso   1.000  C
  C589     1.0000 0.73313  0.47568  0.91846  Biso   1.000  C
  C590     1.0000 0.90689  0.70202  0.51931  Biso   1.000  C
  C591     1.0000 0.50971  0.86618  0.72238  Biso   1.000  C
  C592     1.0000 0.22536  0.48303  0.61685  Biso   1.000  C
  C593     1.0000 0.42076  0.68699  0.00305  Biso   1.000  C
  C594     1.0000 0.01110  0.87322  0.81139  Biso   1.000  C
  C595     1.0000 0.81474  0.99921  0.90052  Biso   1.000  C
  C596     1.0000 0.62530  0.19651  0.53628  Biso   1.000  C
  C597     1.0000 0.02211  0.37667  0.72790  Biso   1.000  C
  C598     1.0000 0.30986  0.96340  0.63323  Biso   1.000  C
  C599     1.0000 0.11840  0.18614  0.01205  Biso   1.000  C
  C600     1.0000 0.51661  0.37762  0.81457  Biso   1.000  C
  C601     1.0000 0.22817  0.96677  0.93011  Biso   1.000  C
  C602     1.0000 0.91406  0.18936  0.98661  Biso   1.000  C
  C603     1.0000 0.99726  0.88768  0.22962  Biso   1.000  C
  C604     1.0000 0.72947  0.98226  0.60495  Biso   1.000  C
  C605     1.0000 0.42059  0.18915  0.51432  Biso   1.000  C
  C606     1.0000 0.48961  0.88954  0.30290  Biso   1.000  C
  C607     1.0000 0.31007  0.46907  0.91481  Biso   1.000  C
  C608     1.0000 0.62532  0.68746  0.00066  Biso   1.000  C
  C609     1.0000 0.52502  0.38635  0.23135  Biso   1.000  C
  C610     1.0000 0.81421  0.49030  0.62067  Biso   1.000  C
  C611     1.0000 0.11129  0.69390  0.51997  Biso   1.000  C
  C612     1.0000 0.02112  0.38984  0.30201  Biso   1.000  C
  C613     1.0000 0.79448  0.98298  0.10205  Biso   1.000  C
  C614     1.0000 0.12272  0.77217  0.02339  Biso   1.000  C
  C615     1.0000 0.03201  0.07398  0.79935  Biso   1.000  C
  C616     1.0000 0.29580  0.98938  0.43204  Biso   1.000  C
  C617     1.0000 0.61469  0.77389  0.51070  Biso   1.000  C
  C618     1.0000 0.53737  0.07502  0.73201  Biso   1.000  C
  C619     1.0000 0.72937  0.48121  0.12435  Biso   1.000  C
  C620     1.0000 0.41882  0.27298  0.02413  Biso   1.000  C
  C621     1.0000 0.50047  0.57415  0.80026  Biso   1.000  C
  C622     1.0000 0.22890  0.49201  0.41136  Biso   1.000  C
  C623     1.0000 0.91793  0.28018  0.51602  Biso   1.000  C
  C624     1.0000 0.00582  0.57819  0.72708  Biso   1.000  C
  C625     1.0000 0.01697  0.18404  0.90632  Biso   1.000  C
  C626     1.0000 0.89521  0.98022  0.21521  Biso   1.000  C
  C627     1.0000 0.22659  0.87921  0.01988  Biso   1.000  C
  C628     1.0000 0.51796  0.18479  0.62686  Biso   1.000  C
  C629     1.0000 0.39255  0.99018  0.31627  Biso   1.000  C
  C630     1.0000 0.71742  0.88623  0.50105  Biso   1.000  C
  C631     1.0000 0.50526  0.68613  0.90341  Biso   1.000  C
  C632     1.0000 0.62045  0.47891  0.23121  Biso   1.000  C
  C633     1.0000 0.30714  0.37614  0.03004  Biso   1.000  C
  C634     1.0000 0.00480  0.69228  0.62842  Biso   1.000  C
  C635     1.0000 0.11546  0.50144  0.30651  Biso   1.000  C
  C636     1.0000 0.81298  0.38678  0.52015  Biso   1.000  C
  C637     1.0000 0.02392  0.77700  0.12563  Biso   1.000  C
  C638     1.0000 0.12958  0.97144  0.81240  Biso   1.000  C
  C639     1.0000 0.80511  0.08717  0.99832  Biso   1.000  C
  C640     1.0000 0.52821  0.78321  0.40292  Biso   1.000  C
  C641     1.0000 0.62800  0.96112  0.71625  Biso   1.000  C
  C642     1.0000 0.31082  0.08533  0.53064  Biso   1.000  C
  C643     1.0000 0.51987  0.27464  0.12626  Biso   1.000  C
  C644     1.0000 0.41764  0.45830  0.81073  Biso   1.000  C
  C645     1.0000 0.73161  0.58276  0.01771  Biso   1.000  C
  C646     1.0000 0.02762  0.28398  0.40998  Biso   1.000  C
  C647     1.0000 0.91482  0.47862  0.73165  Biso   1.000  C
  C648     1.0000 0.22167  0.58947  0.51545  Biso   1.000  C
  C649     1.0000 0.01998  0.69767  0.42237  Biso   1.000  C
  C650     1.0000 0.42730  0.96609  0.73322  Biso   1.000  C
  C651     1.0000 0.73131  0.38173  0.00427  Biso   1.000  C
  C652     1.0000 0.51856  0.68745  0.10635  Biso   1.000  C
  C653     1.0000 0.92409  0.97569  0.79943  Biso   1.000  C
  C654     1.0000 0.22784  0.38221  0.51312  Biso   1.000  C
  C655     1.0000 0.53313  0.19200  0.42500  Biso   1.000  C
  C656     1.0000 0.12562  0.46676  0.72754  Biso   1.000  C
  C657     1.0000 0.81066  0.88458  0.00777  Biso   1.000  C
  C658     1.0000 0.02498  0.18696  0.10921  Biso   1.000  C
  C659     1.0000 0.61870  0.47952  0.81619  Biso   1.000  C
  C660     1.0000 0.30568  0.88466  0.52556  Biso   1.000  C
  C661     1.0000 0.01345  0.27291  0.61391  Biso   1.000  C
  C662     1.0000 0.59848  0.97844  0.30090  Biso   1.000  C
  C663     1.0000 0.31555  0.57791  0.00780  Biso   1.000  C
  C664     1.0000 0.52798  0.27126  0.92118  Biso   1.000  C
  C665     1.0000 0.09927  0.99469  0.22972  Biso   1.000  C
  C666     1.0000 0.80578  0.58913  0.50657  Biso   1.000  C
  C667     1.0000 0.49012  0.76680  0.60326  Biso   1.000  C
  C668     1.0000 0.91355  0.49130  0.31003  Biso   1.000  C
  C669     1.0000 0.22518  0.07974  0.02618  Biso   1.000  C
  C670     1.0000 0.01098  0.77381  0.92427  Biso   1.000  C
  C671     1.0000 0.41978  0.48523  0.22839  Biso   1.000  C
  C672     1.0000 0.72449  0.08781  0.50046  Biso   1.000  C
  C673     1.0000 0.22110  0.95649  0.83336  Biso   1.000  C
  C674     1.0000 0.82225  0.17981  0.98436  Biso   1.000  C
  C675     1.0000 0.01654  0.79485  0.22066  Biso   1.000  C
  C676     1.0000 0.71871  0.97111  0.69933  Biso   1.000  C
  C677     1.0000 0.32557  0.17977  0.51608  Biso   1.000  C
  C678     1.0000 0.50768  0.79530  0.30853  Biso   1.000  C
  C679     1.0000 0.32260  0.46220  0.82078  Biso   1.000  C
  C680     1.0000 0.71942  0.67717  0.00508  Biso   1.000  C
  C681     1.0000 0.53101  0.29161  0.22202  Biso   1.000  C
  C682     1.0000 0.81993  0.48169  0.71397  Biso   1.000  C
  C683     1.0000 0.20667  0.68275  0.50928  Biso   1.000  C
  C684     1.0000 0.02182  0.29520  0.31433  Biso   1.000  C
  C685     1.0000 0.80375  0.98357  0.19661  Biso   1.000  C
  C686     1.0000 0.21831  0.78459  0.02132  Biso   1.000  C
  C687     1.0000 0.01869  0.16894  0.81165  Biso   1.000  C
  C688     1.0000 0.30010  0.98835  0.33493  Biso   1.000  C
  C689     1.0000 0.70898  0.79009  0.49868  Biso   1.000  C
  C690     1.0000 0.53083  0.17178  0.72101  Biso   1.000  C
  C691     1.0000 0.71483  0.48150  0.21818  Biso   1.000  C
  C692     1.0000 0.32162  0.28265  0.02637  Biso   1.000  C
  C693     1.0000 0.49105  0.66904  0.81149  Biso   1.000  C
  C694     1.0000 0.21280  0.49376  0.31902  Biso   1.000  C
  C695     1.0000 0.82422  0.29233  0.51596  Biso   1.000  C
  C696     1.0000 0.99967  0.67135  0.72241  Biso   1.000  C
  C697     1.0000 0.69311  0.98144  0.30627  Biso   1.000  C
  C698     1.0000 0.32632  0.67314  0.00734  Biso   1.000  C
  C699     1.0000 0.02096  0.28277  0.71190  Biso   1.000  C
  C700     1.0000 0.19538  0.98020  0.22287  Biso   1.000  C
  C701     1.0000 0.81231  0.68215  0.50575  Biso   1.000  C
  C702     1.0000 0.52600  0.28171  0.82912  Biso   1.000  C
  C703     1.0000 0.82109  0.48454  0.32549  Biso   1.000  C
  C704     1.0000 0.21538  0.17037  0.02028  Biso   1.000  C
  C705     1.0000 0.49214  0.77572  0.70029  Biso   1.000  C
  C706     1.0000 0.32423  0.48863  0.21423  Biso   1.000  C
  C707     1.0000 0.71775  0.18191  0.51698  Biso   1.000  C
  C708     1.0000 0.00396  0.77971  0.83120  Biso   1.000  C
  C709     1.0000 0.32931  0.95833  0.72599  Biso   1.000  C
  C710     1.0000 0.71776  0.28750  0.99610  Biso   1.000  C
  C711     1.0000 0.01984  0.68592  0.32945  Biso   1.000  C
  C712     1.0000 0.82953  0.98381  0.80713  Biso   1.000  C
  C713     1.0000 0.21304  0.28803  0.51528  Biso   1.000  C
  C714     1.0000 0.51227  0.68217  0.20049  Biso   1.000  C
  C715     1.0000 0.21673  0.47108  0.71108  Biso   1.000  C
  C716     1.0000 0.82385  0.79242  0.01229  Biso   1.000  C
  C717     1.0000 0.52885  0.17980  0.33157  Biso   1.000  C
  C718     1.0000 0.71344  0.47828  0.82502  Biso   1.000  C
  C719     1.0000 0.31529  0.79094  0.50873  Biso   1.000  C
  C720     1.0000 0.02259  0.17911  0.20611  Biso   1.000  C
  C721     1.0000 0.51712  0.80219  0.27865  Biso   1.000  C
  C722     1.0000 0.32678  0.47544  0.79315  Biso   1.000  C
  C723     1.0000 0.79906  0.29315  0.53370  Biso   1.000  C
  C724     1.0000 0.00530  0.76577  0.21651  Biso   1.000  C
  C725     1.0000 0.79179  0.49693  0.71110  Biso   1.000  C
  C726     1.0000 0.29555  0.28330  0.00879  Biso   1.000  C
  C727     1.0000 0.00184  0.29375  0.28984  Biso   1.000  C
  C728     1.0000 0.24929  0.96999  0.83931  Biso   1.000  C
  C729     1.0000 0.73844  0.79382  0.51116  Biso   1.000  C
  C730     1.0000 0.51570  0.29657  0.25054  Biso   1.000  C
  C731     1.0000 0.74871  0.96168  0.69408  Biso   1.000  C
  C732     1.0000 0.24392  0.78796  0.00523  Biso   1.000  C
  C733     1.0000 0.51634  0.16619  0.74934  Biso   1.000  C
  C734     1.0000 0.71175  0.46564  0.24395  Biso   1.000  C
  C735     1.0000 0.20392  0.70940  0.52736  Biso   1.000  C
  C736     1.0000 0.99897  0.19347  0.81436  Biso   1.000  C
  C737     1.0000 0.23766  0.47525  0.32317  Biso   1.000  C
  C738     1.0000 0.74473  0.67693  0.02367  Biso   1.000  C
  C739     1.0000 0.01774  0.66795  0.74890  Biso   1.000  C
  C740     1.0000 0.77536  0.96707  0.19034  Biso   1.000  C
  C741     1.0000 0.29887  0.17633  0.49962  Biso   1.000  C
  C742     1.0000 0.51042  0.66784  0.78657  Biso   1.000  C
  C743     1.0000 0.27868  0.96589  0.33657  Biso   1.000  C
  C744     1.0000 0.83030  0.20827  0.99662  Biso   1.000  C
  C745     1.0000 0.03976  0.71195  0.33185  Biso   1.000  C
  C746     1.0000 0.29922  0.96727  0.72383  Biso   1.000  C
  C747     1.0000 0.74595  0.28928  0.01229  Biso   1.000  C
  C748     1.0000 0.53330  0.70564  0.20034  Biso   1.000  C
  C749     1.0000 0.80224  0.97163  0.81479  Biso   1.000  C
  C750     1.0000 0.24261  0.29301  0.52522  Biso   1.000  C
  C751     1.0000 0.54436  0.17680  0.30418  Biso   1.000  C
  C752     1.0000 0.24260  0.45395  0.70468  Biso   1.000  C
  C753     1.0000 0.79916  0.79453  0.99133  Biso   1.000  C
  C754     1.0000 0.03753  0.17530  0.23399  Biso   1.000  C
  C755     1.0000 0.70847  0.49197  0.79800  Biso   1.000  C
  C756     1.0000 0.28763  0.79814  0.49668  Biso   1.000  C
  C757     1.0000 0.00311  0.25752  0.70761  Biso   1.000  C
  C758     1.0000 0.68771  0.99878  0.27931  Biso   1.000  C
  C759     1.0000 0.30107  0.66979  0.02540  Biso   1.000  C
  C760     1.0000 0.55033  0.27833  0.80878  Biso   1.000  C
  C761     1.0000 0.22248  0.99571  0.22041  Biso   1.000  C
  C762     1.0000 0.81999  0.70718  0.48859  Biso   1.000  C
  C763     1.0000 0.48043  0.78329  0.72887  Biso   1.000  C
  C764     1.0000 0.79502  0.50424  0.32900  Biso   1.000  C
  C765     1.0000 0.23655  0.17042  0.04293  Biso   1.000  C
  C766     1.0000 0.98465  0.78235  0.80574  Biso   1.000  C
  C767     1.0000 0.32718  0.50583  0.24031  Biso   1.000  C
  C768     1.0000 0.71288  0.21033  0.50477  Biso   1.000  C
  C769     1.0000 0.46979  0.69253  0.81336  Biso   1.000  C
  C770     1.0000 0.82370  0.46320  0.74014  Biso   1.000  C
  C771     1.0000 0.70544  0.76611  0.48083  Biso   1.000  C
  C772     1.0000 0.98004  0.69516  0.72143  Biso   1.000  C
  C773     1.0000 0.29518  0.44645  0.82422  Biso   1.000  C
  C774     1.0000 0.21550  0.75549  0.03726  Biso   1.000  C
  C775     1.0000 0.03850  0.16861  0.78729  Biso   1.000  C
  C776     1.0000 0.71339  0.98363  0.72847  Biso   1.000  C
  C777     1.0000 0.82900  0.26705  0.49708  Biso   1.000  C
  C778     1.0000 0.54213  0.20064  0.71660  Biso   1.000  C
  C779     1.0000 0.21749  0.94037  0.80559  Biso   1.000  C
  C780     1.0000 0.32547  0.25631  0.04441  Biso   1.000  C
  C781     1.0000 0.54655  0.26440  0.22001  Biso   1.000  C
  C782     1.0000 0.21208  0.51442  0.29221  Biso   1.000  C
  C783     1.0000 0.32819  0.20644  0.53410  Biso   1.000  C
  C784     1.0000 0.04081  0.27021  0.31667  Biso   1.000  C
  C785     1.0000 0.74102  0.49896  0.21505  Biso   1.000  C
  C786     1.0000 0.79467  0.17598  0.96969  Biso   1.000  C
  C787     1.0000 0.03135  0.80297  0.24866  Biso   1.000  C
  C788     1.0000 0.29889  0.01034  0.31174  Biso   1.000  C
  C789     1.0000 0.23206  0.68017  0.48973  Biso   1.000  C
  C790     1.0000 0.49853  0.76522  0.31287  Biso   1.000  C
  C791     1.0000 0.80511  0.99886  0.22361  Biso   1.000  C
  C792     1.0000 0.71688  0.70329  0.98690  Biso   1.000  C
  C793     1.0000 0.51231  0.20621  0.33653  Biso   1.000  C
  C794     1.0000 0.29608  0.47345  0.20920  Biso   1.000  C
  C795     1.0000 0.20905  0.25859  0.50484  Biso   1.000  C
  C796     1.0000 0.00905  0.20677  0.20098  Biso   1.000  C
  C797     1.0000 0.82307  0.46442  0.30065  Biso   1.000  C
  C798     1.0000 0.71296  0.26473  0.97322  Biso   1.000  C
  C799     1.0000 0.99920  0.68599  0.30570  Biso   1.000  C
  C800     1.0000 0.19015  0.96368  0.25021  Biso   1.000  C
  C801     1.0000 0.31697  0.76293  0.52236  Biso   1.000  C
  C802     1.0000 0.48988  0.68464  0.22095  Biso   1.000  C
  C803     1.0000 0.72200  0.96620  0.30741  Biso   1.000  C
  C804     1.0000 0.82466  0.76758  0.03170  Biso   1.000  C
  C805     1.0000 0.49922  0.74578  0.69647  Biso   1.000  C
  C806     1.0000 0.74098  0.46143  0.82764  Biso   1.000  C
  C807     1.0000 0.78162  0.68028  0.51587  Biso   1.000  C
  C808     1.0000 0.01845  0.75183  0.83646  Biso   1.000  C
  C809     1.0000 0.21202  0.48250  0.74121  Biso   1.000  C
  C810     1.0000 0.32966  0.70090  0.99311  Biso   1.000  C
  C811     1.0000 0.04144  0.28485  0.73669  Biso   1.000  C
  C812     1.0000 0.83309  0.99241  0.77755  Biso   1.000  C
  C813     1.0000 0.74838  0.17519  0.52415  Biso   1.000  C
  C814     1.0000 0.50199  0.26168  0.82657  Biso   1.000  C
  C815     1.0000 0.33763  0.94519  0.75460  Biso   1.000  C
  C816     1.0000 0.21480  0.19288  0.99931  Biso   1.000  C
  C817     1.0000 0.00056  0.21621  0.79412  Biso   1.000  C
  C818     1.0000 0.75300  0.96678  0.21013  Biso   1.000  C
  C819     1.0000 0.26624  0.76687  0.00563  Biso   1.000  C
  C820     1.0000 0.51452  0.18801  0.77050  Biso   1.000  C
  C821     1.0000 0.25605  0.96596  0.31691  Biso   1.000  C
  C822     1.0000 0.76091  0.77614  0.50398  Biso   1.000  C
  C823     1.0000 0.50904  0.68999  0.76507  Biso   1.000  C
  C824     1.0000 0.73193  0.46486  0.26534  Biso   1.000  C
  C825     1.0000 0.27519  0.26198  0.00972  Biso   1.000  C
  C826     1.0000 0.01594  0.68800  0.77139  Biso   1.000  C
  C827     1.0000 0.26078  0.47695  0.30312  Biso   1.000  C
  C828     1.0000 0.77958  0.27041  0.53366  Biso   1.000  C
  C829     1.0000 0.00785  0.74592  0.23914  Biso   1.000  C
  C830     1.0000 0.27159  0.96448  0.82019  Biso   1.000  C
  C831     1.0000 0.81063  0.22975  0.99389  Biso   1.000  C
  C832     1.0000 0.51658  0.78106  0.25746  Biso   1.000  C
  C833     1.0000 0.77011  0.96450  0.71552  Biso   1.000  C
  C834     1.0000 0.27888  0.19804  0.49751  Biso   1.000  C
  C835     1.0000 0.51505  0.27513  0.27001  Biso   1.000  C
  C836     1.0000 0.30517  0.47480  0.77181  Biso   1.000  C
  C837     1.0000 0.76490  0.69926  0.02483  Biso   1.000  C
  C838     1.0000 0.00378  0.27262  0.26854  Biso   1.000  C
  C839     1.0000 0.77071  0.49286  0.73288  Biso   1.000  C
  C840     1.0000 0.22403  0.73181  0.52389  Biso   1.000  C
  C841     1.0000 0.23950  0.93927  0.78638  Biso   1.000  C
  C842     1.0000 0.77651  0.19863  0.96828  Biso   1.000  C
  C843     1.0000 0.03056  0.78296  0.27032  Biso   1.000  C
  C844     1.0000 0.73347  0.98340  0.75119  Biso   1.000  C
  C845     1.0000 0.30589  0.22648  0.53349  Biso   1.000  C
  C846     1.0000 0.50098  0.74459  0.29036  Biso   1.000  C
  C847     1.0000 0.27423  0.44594  0.80295  Biso   1.000  C
  C848     1.0000 0.73744  0.72458  0.98635  Biso   1.000  C
  C849     1.0000 0.54465  0.24463  0.24243  Biso   1.000  C
  C850     1.0000 0.80247  0.46199  0.76050  Biso   1.000  C
  C851     1.0000 0.25066  0.70305  0.48949  Biso   1.000  C
  C852     1.0000 0.03913  0.24723  0.29656  Biso   1.000  C
  C853     1.0000 0.78154  0.99820  0.24244  Biso   1.000  C
  C854     1.0000 0.23807  0.73596  0.03704  Biso   1.000  C
  C855     1.0000 0.04095  0.19281  0.77010  Biso   1.000  C
  C856     1.0000 0.27681  0.00651  0.29165  Biso   1.000  C
  C857     1.0000 0.72715  0.74575  0.47605  Biso   1.000  C
  C858     1.0000 0.53912  0.22121  0.73891  Biso   1.000  C
  C859     1.0000 0.76309  0.49923  0.23665  Biso   1.000  C
  C860     1.0000 0.30480  0.23355  0.04205  Biso   1.000  C
  C861     1.0000 0.46969  0.71382  0.79178  Biso   1.000  C
  C862     1.0000 0.23373  0.51113  0.27163  Biso   1.000  C
  C863     1.0000 0.80838  0.24404  0.49722  Biso   1.000  C
  C864     1.0000 0.97478  0.71261  0.74607  Biso   1.000  C
  C865     1.0000 0.72868  0.48911  0.77709  Biso   1.000  C
  C866     1.0000 0.80047  0.72834  0.48213  Biso   1.000  C
  C867     1.0000 0.47796  0.76244  0.74967  Biso   1.000  C
  C868     1.0000 0.26245  0.44995  0.72768  Biso   1.000  C
  C869     1.0000 0.28148  0.69114  0.02984  Biso   1.000  C
  C870     1.0000 0.98112  0.75937  0.78698  Biso   1.000  C
  C871     1.0000 0.78009  0.96832  0.79359  Biso   1.000  C
  C872     1.0000 0.73445  0.23095  0.50375  Biso   1.000  C
  C873     1.0000 0.00556  0.23497  0.72722  Biso   1.000  C
  C874     1.0000 0.28028  0.96401  0.74601  Biso   1.000  C
  C875     1.0000 0.25831  0.19270  0.04372  Biso   1.000  C
  C876     1.0000 0.55039  0.25696  0.78897  Biso   1.000  C
  C877     1.0000 0.30538  0.50561  0.26155  Biso   1.000  C
  C878     1.0000 0.26396  0.27132  0.52658  Biso   1.000  C
  C879     1.0000 0.54380  0.19937  0.28493  Biso   1.000  C
  C880     1.0000 0.77581  0.50450  0.30605  Biso   1.000  C
  C881     1.0000 0.76589  0.26760  0.00578  Biso   1.000  C
  C882     1.0000 0.03720  0.19828  0.25443  Biso   1.000  C
  C883     1.0000 0.24205  0.99320  0.24302  Biso   1.000  C
  C884     1.0000 0.26627  0.77728  0.49433  Biso   1.000  C
  C885     1.0000 0.03854  0.73306  0.31068  Biso   1.000  C
  C886     1.0000 0.70725  0.99858  0.25671  Biso   1.000  C
  C887     1.0000 0.77957  0.77156  0.98882  Biso   1.000  C
  C888     1.0000 0.53206  0.72966  0.21891  Biso   1.000  C
  C889     1.0000 0.74120  0.96876  0.28391  Biso   1.000  C
  C890     1.0000 0.30878  0.72268  0.99787  Biso   1.000  C
  C891     1.0000 0.04090  0.26289  0.75655  Biso   1.000  C
  C892     1.0000 0.21105  0.96376  0.27164  Biso   1.000  C
  C893     1.0000 0.76183  0.70317  0.50712  Biso   1.000  C
  C894     1.0000 0.50378  0.23900  0.80665  Biso   1.000  C
  C895     1.0000 0.80077  0.46537  0.28069  Biso   1.000  C
  C896     1.0000 0.23497  0.21425  0.00409  Biso   1.000  C
  C897     1.0000 0.49718  0.72523  0.71801  Biso   1.000  C
  C898     1.0000 0.27338  0.47415  0.23068  Biso   1.000  C
  C899     1.0000 0.76959  0.19617  0.52221  Biso   1.000  C
  C900     1.0000 0.01193  0.72954  0.81834  Biso   1.000  C
  C901     1.0000 0.31738  0.94072  0.77670  Biso   1.000  C
  C902     1.0000 0.73446  0.24401  0.96973  Biso   1.000  C
  C903     1.0000 0.99958  0.70819  0.28646  Biso   1.000  C
  C904     1.0000 0.81000  0.99158  0.75878  Biso   1.000  C
  C905     1.0000 0.23094  0.23710  0.50421  Biso   1.000  C
  C906     1.0000 0.48991  0.70816  0.23986  Biso   1.000  C
  C907     1.0000 0.23328  0.47735  0.76239  Biso   1.000  C
  C908     1.0000 0.80497  0.74637  0.02829  Biso   1.000  C
  C909     1.0000 0.51250  0.22766  0.31592  Biso   1.000  C
  C910     1.0000 0.76103  0.45737  0.80497  Biso   1.000  C
  C911     1.0000 0.29570  0.74178  0.51787  Biso   1.000  C
  C912     1.0000 0.00837  0.22875  0.22251  Biso   1.000  C
  C913     1.0000 0.77641  0.47778  0.75870  Biso   1.000  C
  C914     1.0000 0.75466  0.75140  0.48804  Biso   1.000  C
  C915     1.0000 0.48871  0.71198  0.76824  Biso   1.000  C
  C916     1.0000 0.28011  0.45942  0.77686  Biso   1.000  C
  C917     1.0000 0.26219  0.74035  0.01931  Biso   1.000  C
  C918     1.0000 0.99524  0.70990  0.76990  Biso   1.000  C
  C919     1.0000 0.76086  0.97412  0.74276  Biso   1.000  C
  C920     1.0000 0.78481  0.24705  0.51472  Biso   1.000  C
  C921     1.0000 0.02281  0.21618  0.77373  Biso   1.000  C
  C922     1.0000 0.26684  0.94892  0.79508  Biso   1.000  C
  C923     1.0000 0.27916  0.23821  0.02732  Biso   1.000  C
  C924     1.0000 0.52567  0.21498  0.76418  Biso   1.000  C
  C925     1.0000 0.25765  0.49480  0.27878  Biso   1.000  C
  C926     1.0000 0.28240  0.22260  0.51508  Biso   1.000  C
  C927     1.0000 0.52852  0.24832  0.26695  Biso   1.000  C
  C928     1.0000 0.75694  0.48208  0.26142  Biso   1.000  C
  C929     1.0000 0.78379  0.22548  0.98048  Biso   1.000  C
  C930     1.0000 0.02153  0.24823  0.27186  Biso   1.000  C
  C931     1.0000 0.25659  0.98533  0.29364  Biso   1.000  C
  C932     1.0000 0.24617  0.72923  0.50429  Biso   1.000  C
  C933     1.0000 0.01931  0.75474  0.26599  Biso   1.000  C
  C934     1.0000 0.75559  0.98298  0.23475  Biso   1.000  C
  C935     1.0000 0.76172  0.72326  0.00642  Biso   1.000  C
  C936     1.0000 0.50943  0.75262  0.26238  Biso   1.000  C
  C937     1.0000 0.76084  0.24573  0.98480  Biso   1.000  C
  C938     1.0000 0.01877  0.73153  0.28839  Biso   1.000  C
  C939     1.0000 0.28821  0.94940  0.77228  Biso   1.000  C
  C940     1.0000 0.25840  0.24325  0.51591  Biso   1.000  C
  C941     1.0000 0.51101  0.72996  0.23953  Biso   1.000  C
  C942     1.0000 0.78487  0.97840  0.76493  Biso   1.000  C
  C943     1.0000 0.78298  0.74725  0.00590  Biso   1.000  C
  C944     1.0000 0.52904  0.22439  0.29031  Biso   1.000  C
  C945     1.0000 0.25759  0.46079  0.75645  Biso   1.000  C
  C946     1.0000 0.26993  0.74954  0.50391  Biso   1.000  C
  C947     1.0000 0.02259  0.22433  0.24946  Biso   1.000  C
  C948     1.0000 0.75473  0.47347  0.77989  Biso   1.000  C
  C949     1.0000 0.28467  0.71743  0.01637  Biso   1.000  C
  C950     1.0000 0.02303  0.23802  0.75183  Biso   1.000  C
  C951     1.0000 0.73376  0.98312  0.25851  Biso   1.000  C
  C952     1.0000 0.77169  0.72474  0.48952  Biso   1.000  C
  C953     1.0000 0.52694  0.23785  0.78681  Biso   1.000  C
  C954     1.0000 0.23706  0.97913  0.26856  Biso   1.000  C
  C955     1.0000 0.25703  0.21452  0.02423  Biso   1.000  C
  C956     1.0000 0.48590  0.73260  0.74470  Biso   1.000  C
  C957     1.0000 0.77817  0.48393  0.28395  Biso   1.000  C
  C958     1.0000 0.76201  0.22369  0.51346  Biso   1.000  C
  C959     1.0000 0.99506  0.73399  0.79243  Biso   1.000  C
  C960     1.0000 0.27965  0.49069  0.25623  Biso   1.000  C
  Cu1      1.0000 0.02016  0.47641  0.67290  Biso   1.000  Cu
  Cu2      1.0000 0.66776  0.98803  0.50480  Biso   1.000  Cu
  Cu3      1.0000 0.52351  0.63377  0.00600  Biso   1.000  Cu
  Cu4      1.0000 0.51786  0.47916  0.86351  Biso   1.000  Cu
  Cu5      1.0000 0.17022  0.97927  0.02714  Biso   1.000  Cu
  Cu6      1.0000 0.00991  0.64165  0.52175  Biso   1.000  Cu
  Cu7      1.0000 0.52348  0.97165  0.67291  Biso   1.000  Cu
  Cu8      1.0000 0.86659  0.49018  0.52019  Biso   1.000  Cu
  Cu9      1.0000 0.01359  0.13606  0.00854  Biso   1.000  Cu
  Cu10     1.0000 0.02353  0.97874  0.85937  Biso   1.000  Cu
  Cu11     1.0000 0.36544  0.47531  0.01878  Biso   1.000  Cu
  Cu12     1.0000 0.52359  0.13682  0.52613  Biso   1.000  Cu
  Cu13     1.0000 0.01613  0.49015  0.36236  Biso   1.000  Cu
  Cu14     1.0000 0.36016  0.98617  0.52882  Biso   1.000  Cu
  Cu15     1.0000 0.52106  0.32735  0.02333  Biso   1.000  Cu
  Cu16     1.0000 0.52038  0.48579  0.17335  Biso   1.000  Cu
  Cu17     1.0000 0.86098  0.98648  0.00526  Biso   1.000  Cu
  Cu18     1.0000 0.02044  0.33315  0.51473  Biso   1.000  Cu
  Cu19     1.0000 0.49812  0.98482  0.36494  Biso   1.000  Cu
  Cu20     1.0000 0.17287  0.48669  0.51418  Biso   1.000  Cu
  Cu21     1.0000 0.02133  0.82837  0.02440  Biso   1.000  Cu
  Cu22     1.0000 0.99966  0.98483  0.16914  Biso   1.000  Cu
  Cu23     1.0000 0.67825  0.47869  0.02320  Biso   1.000  Cu
  Cu24     1.0000 0.51393  0.82920  0.50836  Biso   1.000  Cu
  Cu25     1.0000 0.22435  0.98046  0.03120  Biso   1.000  Cu
  Cu26     1.0000 0.01441  0.18971  0.00742  Biso   1.000  Cu
  Cu27     1.0000 0.99740  0.98715  0.22297  Biso   1.000  Cu
  Cu28     1.0000 0.72043  0.98946  0.50051  Biso   1.000  Cu
  Cu29     1.0000 0.51989  0.19028  0.52822  Biso   1.000  Cu
  Cu30     1.0000 0.49588  0.98951  0.31093  Biso   1.000  Cu
  Cu31     1.0000 0.31158  0.47825  0.01587  Biso   1.000  Cu
  Cu32     1.0000 0.52341  0.68761  0.00554  Biso   1.000  Cu
  Cu33     1.0000 0.51830  0.48955  0.22650  Biso   1.000  Cu
  Cu34     1.0000 0.81130  0.48818  0.51977  Biso   1.000  Cu
  Cu35     1.0000 0.01186  0.69387  0.52333  Biso   1.000  Cu
  Cu36     1.0000 0.01430  0.49419  0.30701  Biso   1.000  Cu
  Cu37     1.0000 0.80679  0.98377  0.99786  Biso   1.000  Cu
  Cu38     1.0000 0.01925  0.77459  0.02550  Biso   1.000  Cu
  Cu39     1.0000 0.02527  0.97370  0.80683  Biso   1.000  Cu
  Cu40     1.0000 0.30623  0.98665  0.53278  Biso   1.000  Cu
  Cu41     1.0000 0.51335  0.77510  0.50393  Biso   1.000  Cu
  Cu42     1.0000 0.52675  0.97069  0.72508  Biso   1.000  Cu
  Cu43     1.0000 0.73085  0.48149  0.02273  Biso   1.000  Cu
  Cu44     1.0000 0.52211  0.27431  0.02284  Biso   1.000  Cu
  Cu45     1.0000 0.51952  0.47377  0.81077  Biso   1.000  Cu
  Cu46     1.0000 0.22670  0.48759  0.51486  Biso   1.000  Cu
  Cu47     1.0000 0.01969  0.27995  0.50984  Biso   1.000  Cu
  Cu48     1.0000 0.02039  0.47850  0.72702  Biso   1.000  Cu
  H1       1.0000 0.24490  0.78323  0.48365  Biso   1.000  H
  H2       1.0000 0.56756  0.25539  0.77365  Biso   1.000  H
  H3       1.0000 0.75588  0.51823  0.30485  Biso   1.000  H
  H4       1.0000 0.76033  0.77581  0.97514  Biso   1.000  H
  H5       1.0000 0.99303  0.21597  0.72285  Biso   1.000  H
  H6       1.0000 0.31017  0.51633  0.28264  Biso   1.000  H
  H7       1.0000 0.28585  0.27731  0.53493  Biso   1.000  H
  H8       1.0000 0.96984  0.76194  0.76576  Biso   1.000  H
  H9       1.0000 0.70373  0.01240  0.23869  Biso   1.000  H
  H10      1.0000 0.78678  0.26968  0.01804  Biso   1.000  H
  H11      1.0000 0.46668  0.77011  0.76973  Biso   1.000  H
  H12      1.0000 0.26339  0.00393  0.23968  Biso   1.000  H
  H13      1.0000 0.73108  0.25257  0.49608  Biso   1.000  H
  H14      1.0000 0.54883  0.74749  0.21687  Biso   1.000  H
  H15      1.0000 0.28094  0.43599  0.72349  Biso   1.000  H
  H16      1.0000 0.27476  0.19372  0.05985  Biso   1.000  H
  H17      1.0000 0.05366  0.75127  0.31417  Biso   1.000  H
  H18      1.0000 0.72266  0.49988  0.75779  Biso   1.000  H
  H19      1.0000 0.80712  0.74852  0.47315  Biso   1.000  H
  H20      1.0000 0.05219  0.19649  0.27370  Biso   1.000  H
  H21      1.0000 0.26014  0.97553  0.74394  Biso   1.000  H
  H22      1.0000 0.26231  0.68527  0.04393  Biso   1.000  H
  H23      1.0000 0.55627  0.19470  0.26586  Biso   1.000  H
  H24      1.0000 0.75962  0.95940  0.79793  Biso   1.000  H
  H25      1.0000 0.29401  0.97373  0.82236  Biso   1.000  H
  H26      1.0000 0.81642  0.25128  0.00070  Biso   1.000  H
  H27      1.0000 0.00263  0.72184  0.23489  Biso   1.000  H
  H28      1.0000 0.79272  0.95578  0.70932  Biso   1.000  H
  H29      1.0000 0.25998  0.19282  0.48313  Biso   1.000  H
  H30      1.0000 0.52342  0.78840  0.23624  Biso   1.000  H
  H31      1.0000 0.30979  0.48536  0.75108  Biso   1.000  H
  H32      1.0000 0.78409  0.69591  0.03861  Biso   1.000  H
  H33      1.0000 0.50116  0.27986  0.28914  Biso   1.000  H
  H34      1.0000 0.74834  0.50049  0.73058  Biso   1.000  H
  H35      1.0000 0.21679  0.75164  0.53488  Biso   1.000  H
  H36      1.0000 0.98928  0.27624  0.25146  Biso   1.000  H
  H37      1.0000 0.73220  0.95625  0.20537  Biso   1.000  H
  H38      1.0000 0.28591  0.77153  0.99545  Biso   1.000  H
  H39      1.0000 0.98669  0.23477  0.79826  Biso   1.000  H
  H40      1.0000 0.23953  0.94979  0.31798  Biso   1.000  H
  H41      1.0000 0.78166  0.77874  0.51421  Biso   1.000  H
  H42      1.0000 0.50729  0.18197  0.79252  Biso   1.000  H
  H43      1.0000 0.72867  0.44948  0.28268  Biso   1.000  H
  H44      1.0000 0.25528  0.26823  0.99594  Biso   1.000  H
  H45      1.0000 0.52223  0.69230  0.74713  Biso   1.000  H
  H46      1.0000 0.28036  0.46350  0.30572  Biso   1.000  H
  H47      1.0000 0.75865  0.27274  0.54477  Biso   1.000  H
  H48      1.0000 0.03343  0.68861  0.78831  Biso   1.000  H
  H49      1.0000 0.23016  0.52628  0.25350  Biso   1.000  H
  H50      1.0000 0.30840  0.24498  0.55004  Biso   1.000  H
  H51      1.0000 0.55882  0.22643  0.23970  Biso   1.000  H
  H52      1.0000 0.78064  0.51392  0.23291  Biso   1.000  H
  H53      1.0000 0.75705  0.19429  0.95466  Biso   1.000  H
  H54      1.0000 0.04687  0.22623  0.30120  Biso   1.000  H
  H55      1.0000 0.27665  0.02177  0.27367  Biso   1.000  H
  H56      1.0000 0.26796  0.70288  0.47321  Biso   1.000  H
  H57      1.0000 0.04123  0.79029  0.28963  Biso   1.000  H
  H58      1.0000 0.78282  0.01290  0.26122  Biso   1.000  H
  H59      1.0000 0.73525  0.74045  0.96886  Biso   1.000  H
  H60      1.0000 0.49401  0.72276  0.29210  Biso   1.000  H
  H61      1.0000 0.80941  0.44712  0.77764  Biso   1.000  H
  H62      1.0000 0.72143  0.72672  0.46273  Biso   1.000  H
  H63      1.0000 0.45317  0.73030  0.79243  Biso   1.000  H
  H64      1.0000 0.25365  0.43604  0.80779  Biso   1.000  H
  H65      1.0000 0.23699  0.71609  0.05006  Biso   1.000  H
  H66      1.0000 0.95822  0.72783  0.74783  Biso   1.000  H
  H67      1.0000 0.72595  0.98727  0.77248  Biso   1.000  H
  H68      1.0000 0.81074  0.22515  0.48262  Biso   1.000  H
  H69      1.0000 0.05596  0.19483  0.75179  Biso   1.000  H
  H70      1.0000 0.23640  0.92569  0.76565  Biso   1.000  H
  H71      1.0000 0.30805  0.21296  0.05426  Biso   1.000  H
  H72      1.0000 0.54510  0.24293  0.73645  Biso   1.000  H
  H73      1.0000 0.77635  0.44103  0.80844  Biso   1.000  H
  H74      1.0000 0.73787  0.70050  0.51124  Biso   1.000  H
  H75      1.0000 0.50496  0.70242  0.71155  Biso   1.000  H
  H76      1.0000 0.23067  0.48629  0.78396  Biso   1.000  H
  H77      1.0000 0.31124  0.74255  0.98733  Biso   1.000  H
  H78      1.0000 0.02089  0.70817  0.82188  Biso   1.000  H
  H79      1.0000 0.81340  0.00101  0.73679  Biso   1.000  H
  H80      1.0000 0.79202  0.19009  0.52621  Biso   1.000  H
  H81      1.0000 0.05533  0.26420  0.77455  Biso   1.000  H
  H82      1.0000 0.32448  0.93388  0.79837  Biso   1.000  H
  H83      1.0000 0.23312  0.23077  0.98785  Biso   1.000  H
  H84      1.0000 0.48529  0.22396  0.80549  Biso   1.000  H
  H85      1.0000 0.25388  0.46260  0.22905  Biso   1.000  H
  H86      1.0000 0.22567  0.21593  0.49835  Biso   1.000  H
  H87      1.0000 0.49934  0.24717  0.32143  Biso   1.000  H
  H88      1.0000 0.80310  0.44669  0.26321  Biso   1.000  H
  H89      1.0000 0.73054  0.22663  0.95477  Biso   1.000  H
  H90      1.0000 0.99969  0.25015  0.21902  Biso   1.000  H
  H91      1.0000 0.20452  0.95342  0.29191  Biso   1.000  H
  H92      1.0000 0.29918  0.72056  0.52626  Biso   1.000  H
  H93      1.0000 0.98109  0.71030  0.27311  Biso   1.000  H
  H94      1.0000 0.76008  0.95552  0.28428  Biso   1.000  H
  H95      1.0000 0.81164  0.72685  0.04079  Biso   1.000  H
  H96      1.0000 0.47392  0.70862  0.25757  Biso   1.000  H
  H97      1.0000 0.89161  0.98738  0.90901  Biso   1.000  H
  H98      1.0000 0.93327  0.85042  0.02038  Biso   1.000  H
  H99      1.0000 0.01969  0.88775  0.88525  Biso   1.000  H
  H100     1.0000 0.38351  0.97700  0.61554  Biso   1.000  H
  H101     1.0000 0.41680  0.85486  0.51734  Biso   1.000  H
  H102     1.0000 0.52232  0.88066  0.64901  Biso   1.000  H
  H103     1.0000 0.65803  0.47942  0.93273  Biso   1.000  H
  H104     1.0000 0.61537  0.34366  0.02541  Biso   1.000  H
  H105     1.0000 0.50644  0.38664  0.88960  Biso   1.000  H
  H106     1.0000 0.15078  0.48459  0.60749  Biso   1.000  H
  H107     1.0000 0.11152  0.35422  0.52886  Biso   1.000  H
  H108     1.0000 0.00949  0.38789  0.65269  Biso   1.000  H
  H109     1.0000 0.13877  0.98372  0.11365  Biso   1.000  H
  H110     1.0000 0.10685  0.10988  0.01306  Biso   1.000  H
  H111     1.0000 0.00083  0.07665  0.14414  Biso   1.000  H
  H112     1.0000 0.63932  0.97726  0.41637  Biso   1.000  H
  H113     1.0000 0.61337  0.12074  0.52796  Biso   1.000  H
  H114     1.0000 0.52105  0.07649  0.39617  Biso   1.000  H
  H115     1.0000 0.38658  0.49234  0.10958  Biso   1.000  H
  H116     1.0000 0.43181  0.61056  0.00311  Biso   1.000  H
  H117     1.0000 0.51913  0.56997  0.14621  Biso   1.000  H
  H118     1.0000 0.88643  0.48768  0.42900  Biso   1.000  H
  H119     1.0000 0.92163  0.62904  0.52854  Biso   1.000  H
  H120     1.0000 0.02248  0.57822  0.38808  Biso   1.000  H
  H121     1.0000 0.11131  0.97718  0.88669  Biso   1.000  H
  H122     1.0000 0.87939  0.07573  0.01007  Biso   1.000  H
  H123     1.0000 0.01090  0.85023  0.11261  Biso   1.000  H
  H124     1.0000 0.60921  0.98090  0.64694  Biso   1.000  H
  H125     1.0000 0.38584  0.07436  0.52448  Biso   1.000  H
  H126     1.0000 0.51123  0.85550  0.41839  Biso   1.000  H
  H127     1.0000 0.42414  0.46683  0.88640  Biso   1.000  H
  H128     1.0000 0.65703  0.57093  0.01035  Biso   1.000  H
  H129     1.0000 0.51206  0.34878  0.11476  Biso   1.000  H
  H130     1.0000 0.92698  0.47975  0.65582  Biso   1.000  H
  H131     1.0000 0.14733  0.57924  0.52654  Biso   1.000  H
  H132     1.0000 0.03543  0.35957  0.42269  Biso   1.000  H
  H133     1.0000 0.91367  0.98593  0.14097  Biso   1.000  H
  H134     1.0000 0.15058  0.89074  0.02047  Biso   1.000  H
  H135     1.0000 0.02777  0.11261  0.91758  Biso   1.000  H
  H136     1.0000 0.40764  0.99169  0.38977  Biso   1.000  H
  H137     1.0000 0.64435  0.89448  0.51616  Biso   1.000  H
  H138     1.0000 0.51654  0.11025  0.61969  Biso   1.000  H
  H139     1.0000 0.61122  0.47412  0.15455  Biso   1.000  H
  H140     1.0000 0.38314  0.38887  0.02344  Biso   1.000  H
  H141     1.0000 0.50399  0.61115  0.91648  Biso   1.000  H
  H142     1.0000 0.10912  0.49059  0.38048  Biso   1.000  H
  H143     1.0000 0.88859  0.40099  0.52332  Biso   1.000  H
  H144     1.0000 0.01094  0.61927  0.60939  Biso   1.000  H
  H145     1.0000 0.60719  0.48001  0.88918  Biso   1.000  H
  H146     1.0000 0.88103  0.58239  0.51994  Biso   1.000  H
  H147     1.0000 0.51101  0.84100  0.59822  Biso   1.000  H
  H148     1.0000 0.10634  0.48502  0.65661  Biso   1.000  H
  H149     1.0000 0.39073  0.56862  0.01180  Biso   1.000  H
  H150     1.0000 0.02410  0.84808  0.93186  Biso   1.000  H
  H151     1.0000 0.92884  0.98628  0.87685  Biso   1.000  H
  H152     1.0000 0.65189  0.08013  0.51944  Biso   1.000  H
  H153     1.0000 0.01571  0.34742  0.60752  Biso   1.000  H
  H154     1.0000 0.43009  0.97582  0.65626  Biso   1.000  H
  H155     1.0000 0.15066  0.06558  0.01282  Biso   1.000  H
  H156     1.0000 0.51820  0.34785  0.93313  Biso   1.000  H
  H157     1.0000 0.42624  0.49085  0.14988  Biso   1.000  H
  H158     1.0000 0.15558  0.39528  0.52160  Biso   1.000  H
  H159     1.0000 0.52728  0.11560  0.43559  Biso   1.000  H
  H160     1.0000 0.92949  0.47870  0.38308  Biso   1.000  H
  H161     1.0000 0.65760  0.39236  0.01703  Biso   1.000  H
  H162     1.0000 0.99937  0.11487  0.10373  Biso   1.000  H
  H163     1.0000 0.09364  0.99591  0.15356  Biso   1.000  H
  H164     1.0000 0.37874  0.89652  0.51357  Biso   1.000  H
  H165     1.0000 0.02421  0.62286  0.43119  Biso   1.000  H
  H166     1.0000 0.59274  0.97635  0.37643  Biso   1.000  H
  H167     1.0000 0.88684  0.89742  0.00642  Biso   1.000  H
  H168     1.0000 0.52329  0.61324  0.09958  Biso   1.000  H
  H169     1.0000 0.03435  0.06794  0.87581  Biso   1.000  H
  H170     1.0000 0.87051  0.99536  0.09470  Biso   1.000  H
  H171     1.0000 0.11263  0.84611  0.03569  Biso   1.000  H
  H172     1.0000 0.52357  0.06781  0.65805  Biso   1.000  H
  H173     1.0000 0.36929  0.00087  0.43744  Biso   1.000  H
  H174     1.0000 0.60291  0.85057  0.51621  Biso   1.000  H
  H175     1.0000 0.51148  0.56515  0.87455  Biso   1.000  H
  H176     1.0000 0.65441  0.47509  0.11201  Biso   1.000  H
  H177     1.0000 0.42654  0.34989  0.02360  Biso   1.000  H
  H178     1.0000 0.00740  0.57089  0.65062  Biso   1.000  H
  H179     1.0000 0.15503  0.48338  0.42525  Biso   1.000  H
  H180     1.0000 0.92944  0.35407  0.52150  Biso   1.000  H
  H181     1.0000 0.99863  0.89445  0.15267  Biso   1.000  H
  H182     1.0000 0.15360  0.98350  0.93317  Biso   1.000  H
  H183     1.0000 0.92098  0.11712  0.00759  Biso   1.000  H
  H184     1.0000 0.48874  0.89429  0.37824  Biso   1.000  H
  H185     1.0000 0.65162  0.98728  0.59711  Biso   1.000  H
  H186     1.0000 0.42961  0.11616  0.52906  Biso   1.000  H
  H187     1.0000 0.51326  0.39371  0.15496  Biso   1.000  H
  H188     1.0000 0.38477  0.46932  0.92672  Biso   1.000  H
  H189     1.0000 0.61694  0.61098  0.99390  Biso   1.000  H
  H190     1.0000 0.03062  0.40121  0.37619  Biso   1.000  H
  H191     1.0000 0.88837  0.49270  0.61577  Biso   1.000  H
  H192     1.0000 0.10438  0.61780  0.52482  Biso   1.000  H
  H193     1.0000 0.28000  0.84352  0.52474  Biso   1.000  H
  H194     1.0000 0.52987  0.25002  0.87860  Biso   1.000  H
  H195     1.0000 0.86905  0.49003  0.29131  Biso   1.000  H
  H196     1.0000 0.79179  0.84211  0.01967  Biso   1.000  H
  H197     1.0000 0.01586  0.25050  0.65543  Biso   1.000  H
  H198     1.0000 0.37870  0.48585  0.24995  Biso   1.000  H
  H199     1.0000 0.24873  0.34270  0.50448  Biso   1.000  H
  H200     1.0000 0.00113  0.74999  0.88458  Biso   1.000  H
  H201     1.0000 0.63715  0.97455  0.27378  Biso   1.000  H
  H202     1.0000 0.75037  0.33770  0.99796  Biso   1.000  H
  H203     1.0000 0.48148  0.74405  0.64477  Biso   1.000  H
  H204     1.0000 0.14109  0.98840  0.25262  Biso   1.000  H
  H205     1.0000 0.74787  0.12807  0.49743  Biso   1.000  H
  H206     1.0000 0.51288  0.71123  0.14583  Biso   1.000  H
  H207     1.0000 0.16806  0.45897  0.74605  Biso   1.000  H
  H208     1.0000 0.24542  0.12095  0.02624  Biso   1.000  H
  H209     1.0000 0.01382  0.71907  0.38078  Biso   1.000  H
  H210     1.0000 0.65823  0.47679  0.79180  Biso   1.000  H
  H211     1.0000 0.78225  0.62805  0.50633  Biso   1.000  H
  H212     1.0000 0.03193  0.20856  0.15195  Biso   1.000  H
  H213     1.0000 0.38588  0.96188  0.75675  Biso   1.000  H
  H214     1.0000 0.29396  0.62076  0.00715  Biso   1.000  H
  H215     1.0000 0.53972  0.21122  0.38111  Biso   1.000  H
  H216     1.0000 0.88472  0.98114  0.77344  Biso   1.000  H
  H217     1.0000 0.24553  0.49744  0.36613  Biso   1.000  H
  H218     1.0000 0.37895  0.21048  0.50829  Biso   1.000  H
  H219     1.0000 0.53509  0.34774  0.25432  Biso   1.000  H
  H220     1.0000 0.74981  0.48272  0.16690  Biso   1.000  H
  H221     1.0000 0.87467  0.21030  0.97591  Biso   1.000  H
  H222     1.0000 0.01437  0.34664  0.28243  Biso   1.000  H
  H223     1.0000 0.26991  0.98796  0.39174  Biso   1.000  H
  H224     1.0000 0.15266  0.71561  0.51149  Biso   1.000  H
  H225     1.0000 0.00354  0.84527  0.25272  Biso   1.000  H
  H226     1.0000 0.77049  0.98436  0.14161  Biso   1.000  H
  H227     1.0000 0.66870  0.70992  0.00359  Biso   1.000  H
  H228     1.0000 0.48795  0.84918  0.27971  Biso   1.000  H
  H229     1.0000 0.78877  0.48343  0.65886  Biso   1.000  H
  H230     1.0000 0.65766  0.75327  0.50648  Biso   1.000  H
  H231     1.0000 0.49058  0.61232  0.77705  Biso   1.000  H
  H232     1.0000 0.28681  0.46624  0.87238  Biso   1.000  H
  H233     1.0000 0.16405  0.74968  0.01927  Biso   1.000  H
  H234     1.0000 0.00071  0.61993  0.75048  Biso   1.000  H
  H235     1.0000 0.74901  0.97954  0.64897  Biso   1.000  H
  H236     1.0000 0.87210  0.26108  0.51827  Biso   1.000  H
  H237     1.0000 0.02274  0.11714  0.77928  Biso   1.000  H
  H238     1.0000 0.25048  0.94942  0.89196  Biso   1.000  H
  H239     1.0000 0.37809  0.25056  0.02771  Biso   1.000  H
  H240     1.0000 0.54197  0.11636  0.75424  Biso   1.000  H
  H241     1.0000 0.75069  0.48199  0.87501  Biso   1.000  H
  H242     1.0000 0.86375  0.72254  0.51405  Biso   1.000  H
  H243     1.0000 0.50352  0.82093  0.73669  Biso   1.000  H
  H244     1.0000 0.24855  0.48069  0.65681  Biso   1.000  H
  H245     1.0000 0.38103  0.70970  0.00582  Biso   1.000  H
  H246     1.0000 0.00556  0.83224  0.79306  Biso   1.000  H
  H247     1.0000 0.79312  0.99946  0.85897  Biso   1.000  H
  H248     1.0000 0.66859  0.21479  0.52955  Biso   1.000  H
  H249     1.0000 0.01956  0.33351  0.74837  Biso   1.000  H
  H250     1.0000 0.29408  0.95011  0.67397  Biso   1.000  H
  H251     1.0000 0.16029  0.20732  0.01176  Biso   1.000  H
  H252     1.0000 0.52736  0.33545  0.79330  Biso   1.000  H
  H253     1.0000 0.29178  0.49898  0.16223  Biso   1.000  H
  H254     1.0000 0.15782  0.25396  0.52251  Biso   1.000  H
  H255     1.0000 0.52671  0.12565  0.29811  Biso   1.000  H
  H256     1.0000 0.79049  0.48361  0.37701  Biso   1.000  H
  H257     1.0000 0.66629  0.25229  0.00262  Biso   1.000  H
  H258     1.0000 0.01167  0.12621  0.24240  Biso   1.000  H
  H259     1.0000 0.22967  0.96511  0.17825  Biso   1.000  H
  H260     1.0000 0.36501  0.75713  0.49969  Biso   1.000  H
  H261     1.0000 0.02201  0.63432  0.29246  Biso   1.000  H
  H262     1.0000 0.73281  0.99080  0.35724  Biso   1.000  H
  H263     1.0000 0.87588  0.75714  0.02129  Biso   1.000  H
  H264     1.0000 0.51930  0.63508  0.23962  Biso   1.000  H
  H265     1.0000 0.01652  0.20297  0.86158  Biso   1.000  H
  H266     1.0000 0.85057  0.97808  0.23107  Biso   1.000  H
  H267     1.0000 0.25004  0.83571  0.02261  Biso   1.000  H
  H268     1.0000 0.51791  0.20538  0.66998  Biso   1.000  H
  H269     1.0000 0.34960  0.98987  0.29643  Biso   1.000  H
  H270     1.0000 0.74018  0.84644  0.49752  Biso   1.000  H
  H271     1.0000 0.49825  0.70608  0.85975  Biso   1.000  H
  H272     1.0000 0.65917  0.48392  0.25349  Biso   1.000  H
  H273     1.0000 0.28632  0.33304  0.03217  Biso   1.000  H
  H274     1.0000 0.99996  0.70762  0.67310  Biso   1.000  H
  H275     1.0000 0.15840  0.50099  0.28438  Biso   1.000  H
  H276     1.0000 0.79084  0.34102  0.51571  Biso   1.000  H
  H277     1.0000 0.02953  0.75855  0.16778  Biso   1.000  H
  H278     1.0000 0.17527  0.96553  0.79769  Biso   1.000  H
  H279     1.0000 0.78347  0.12831  0.99379  Biso   1.000  H
  H280     1.0000 0.52668  0.76366  0.35864  Biso   1.000  H
  H281     1.0000 0.67218  0.95863  0.73330  Biso   1.000  H
  H282     1.0000 0.29181  0.12890  0.53225  Biso   1.000  H
  H283     1.0000 0.52132  0.25507  0.17128  Biso   1.000  H
  H284     1.0000 0.37640  0.45621  0.78703  Biso   1.000  H
  H285     1.0000 0.75475  0.62456  0.01468  Biso   1.000  H
  H286     1.0000 0.02311  0.26124  0.36820  Biso   1.000  H
  H287     1.0000 0.87362  0.47972  0.75172  Biso   1.000  H
  H288     1.0000 0.24173  0.63318  0.51124  Biso   1.000  H
  H289     1.0000 0.10698  0.20713  0.01019  Biso   1.000  H
  H290     1.0000 0.00401  0.07312  0.24061  Biso   1.000  H
  H291     1.0000 0.23298  0.96384  0.12345  Biso   1.000  H
  H292     1.0000 0.61451  0.21804  0.53515  Biso   1.000  H
  H293     1.0000 0.51829  0.07542  0.29851  Biso   1.000  H
  H294     1.0000 0.73595  0.98855  0.41008  Biso   1.000  H
  H295     1.0000 0.43467  0.70808  0.00178  Biso   1.000  H
  H296     1.0000 0.51501  0.57962  0.24146  Biso   1.000  H
  H297     1.0000 0.29053  0.49680  0.10926  Biso   1.000  H
  H298     1.0000 0.91906  0.72221  0.51530  Biso   1.000  H
  H299     1.0000 0.02014  0.58262  0.29230  Biso   1.000  H
  H300     1.0000 0.78978  0.47758  0.43108  Biso   1.000  H
  H301     1.0000 0.93102  0.75772  0.03310  Biso   1.000  H
  H302     1.0000 0.00883  0.88242  0.78968  Biso   1.000  H
  H303     1.0000 0.79337  0.00336  0.91325  Biso   1.000  H
  H304     1.0000 0.41966  0.75744  0.49900  Biso   1.000  H
  H305     1.0000 0.51091  0.87467  0.74393  Biso   1.000  H
  H306     1.0000 0.28845  0.96030  0.62278  Biso   1.000  H
  H307     1.0000 0.61364  0.24978  0.01116  Biso   1.000  H
  H308     1.0000 0.51657  0.39033  0.79545  Biso   1.000  H
  H309     1.0000 0.75428  0.47357  0.92880  Biso   1.000  H
  H310     1.0000 0.10518  0.26122  0.53425  Biso   1.000  H
  H311     1.0000 0.01941  0.38849  0.74790  Biso   1.000  H
  H312     1.0000 0.24515  0.48559  0.60519  Biso   1.000  H
  H313     1.0000 0.24721  0.96343  0.94366  Biso   1.000  H
  H314     1.0000 0.92661  0.20827  0.98064  Biso   1.000  H
  H315     1.0000 0.99462  0.90084  0.24858  Biso   1.000  H
  H316     1.0000 0.74936  0.98252  0.59158  Biso   1.000  H
  H317     1.0000 0.43206  0.20882  0.51553  Biso   1.000  H
  H318     1.0000 0.48434  0.90393  0.28519  Biso   1.000  H
  H319     1.0000 0.29003  0.47512  0.92619  Biso   1.000  H
  H320     1.0000 0.61437  0.70754  0.00174  Biso   1.000  H
  H321     1.0000 0.52611  0.39926  0.25222  Biso   1.000  H
  H322     1.0000 0.79624  0.48758  0.60617  Biso   1.000  H
  H323     1.0000 0.10312  0.71642  0.52162  Biso   1.000  H
  H324     1.0000 0.01839  0.39952  0.28153  Biso   1.000  H
  H325     1.0000 0.77620  0.98061  0.08872  Biso   1.000  H
  H326     1.0000 0.11087  0.75234  0.02076  Biso   1.000  H
  H327     1.0000 0.03109  0.06117  0.77952  Biso   1.000  H
  H328     1.0000 0.27531  0.98741  0.44374  Biso   1.000  H
  H329     1.0000 0.60340  0.75354  0.50927  Biso   1.000  H
  H330     1.0000 0.54107  0.06461  0.75311  Biso   1.000  H
  H331     1.0000 0.74963  0.48566  0.11479  Biso   1.000  H
  H332     1.0000 0.42943  0.25291  0.02795  Biso   1.000  H
  H333     1.0000 0.49926  0.55962  0.78174  Biso   1.000  H
  H334     1.0000 0.25106  0.48788  0.42129  Biso   1.000  H
  H335     1.0000 0.92981  0.25843  0.51304  Biso   1.000  H
  H336     1.0000 0.00442  0.56923  0.74820  Biso   1.000  H
  H337     1.0000 0.01710  0.20485  0.91689  Biso   1.000  H
  H338     1.0000 0.90414  0.97509  0.23706  Biso   1.000  H
  H339     1.0000 0.24805  0.89116  0.01961  Biso   1.000  H
  H340     1.0000 0.51262  0.20371  0.61355  Biso   1.000  H
  H341     1.0000 0.40346  0.99243  0.29425  Biso   1.000  H
  H342     1.0000 0.73762  0.89932  0.50119  Biso   1.000  H
  H343     1.0000 0.50968  0.70607  0.91629  Biso   1.000  H
  H344     1.0000 0.60696  0.47733  0.25073  Biso   1.000  H
  H345     1.0000 0.28669  0.38691  0.03461  Biso   1.000  H
  H346     1.0000 0.00335  0.71442  0.61896  Biso   1.000  H
  H347     1.0000 0.10276  0.50499  0.28803  Biso   1.000  H
  H348     1.0000 0.79084  0.39645  0.52158  Biso   1.000  H
  H349     1.0000 0.02947  0.75695  0.11462  Biso   1.000  H
  H350     1.0000 0.12137  0.97055  0.79006  Biso   1.000  H
  H351     1.0000 0.78528  0.07356  0.99679  Biso   1.000  H
  H352     1.0000 0.53573  0.76352  0.41413  Biso   1.000  H
  H353     1.0000 0.61780  0.95209  0.73474  Biso   1.000  H
  H354     1.0000 0.28931  0.07634  0.53554  Biso   1.000  H
  H355     1.0000 0.51878  0.25379  0.11400  Biso   1.000  H
  H356     1.0000 0.43019  0.45729  0.79116  Biso   1.000  H
  H357     1.0000 0.75112  0.57092  0.01778  Biso   1.000  H
  H358     1.0000 0.02825  0.26271  0.41877  Biso   1.000  H
  H359     1.0000 0.92720  0.48173  0.75222  Biso   1.000  H
  H360     1.0000 0.24302  0.58013  0.51268  Biso   1.000  H
  H361     1.0000 0.01649  0.71739  0.43589  Biso   1.000  H
  H362     1.0000 0.44001  0.96395  0.75323  Biso   1.000  H
  H363     1.0000 0.75254  0.39188  0.00202  Biso   1.000  H
  H364     1.0000 0.51566  0.70813  0.09493  Biso   1.000  H
  H365     1.0000 0.93736  0.97412  0.77955  Biso   1.000  H
  H366     1.0000 0.25008  0.39270  0.51456  Biso   1.000  H
  H367     1.0000 0.53366  0.21231  0.43640  Biso   1.000  H
  H368     1.0000 0.11496  0.45549  0.74440  Biso   1.000  H
  H369     1.0000 0.78865  0.89603  0.00494  Biso   1.000  H
  H370     1.0000 0.03190  0.20486  0.09597  Biso   1.000  H
  H371     1.0000 0.60548  0.47800  0.79566  Biso   1.000  H
  H372     1.0000 0.28545  0.89624  0.53330  Biso   1.000  H
  H373     1.0000 0.01195  0.25432  0.60036  Biso   1.000  H
  H374     1.0000 0.58366  0.97809  0.28112  Biso   1.000  H
  H375     1.0000 0.29544  0.56496  0.00605  Biso   1.000  H
  H376     1.0000 0.53023  0.25104  0.93288  Biso   1.000  H
  H377     1.0000 0.08633  0.99830  0.24942  Biso   1.000  H
  H378     1.0000 0.78535  0.57670  0.50445  Biso   1.000  H
  H379     1.0000 0.48290  0.74951  0.58807  Biso   1.000  H
  H380     1.0000 0.92166  0.49701  0.28989  Biso   1.000  H
  H381     1.0000 0.24424  0.06782  0.03388  Biso   1.000  H
  H382     1.0000 0.01489  0.75397  0.93648  Biso   1.000  H
  H383     1.0000 0.42949  0.48632  0.24912  Biso   1.000  H
  H384     1.0000 0.74339  0.07672  0.49098  Biso   1.000  H
  H385     1.0000 0.23867  0.45798  0.33898  Biso   1.000  H
  H386     1.0000 0.29491  0.15723  0.48672  Biso   1.000  H
  H387     1.0000 0.50216  0.31620  0.25703  Biso   1.000  H
  H388     1.0000 0.69186  0.45105  0.24618  Biso   1.000  H
  H389     1.0000 0.85084  0.21357  0.00949  Biso   1.000  H
  H390     1.0000 0.98612  0.31169  0.28683  Biso   1.000  H
  H391     1.0000 0.28042  0.94737  0.35122  Biso   1.000  H
  H392     1.0000 0.18795  0.71223  0.54485  Biso   1.000  H
  H393     1.0000 0.99282  0.75963  0.19606  Biso   1.000  H
  H394     1.0000 0.77204  0.95209  0.17099  Biso   1.000  H
  H395     1.0000 0.74792  0.65799  0.03871  Biso   1.000  H
  H396     1.0000 0.52557  0.82227  0.26949  Biso   1.000  H
  H397     1.0000 0.78505  0.51104  0.69318  Biso   1.000  H
  H398     1.0000 0.74486  0.81132  0.52966  Biso   1.000  H
  H399     1.0000 0.52744  0.65176  0.78489  Biso   1.000  H
  H400     1.0000 0.34614  0.48619  0.78786  Biso   1.000  H
  H401     1.0000 0.24840  0.80828  0.99381  Biso   1.000  H
  H402     1.0000 0.03336  0.65120  0.75069  Biso   1.000  H
  H403     1.0000 0.75489  0.94981  0.67398  Biso   1.000  H
  H404     1.0000 0.79523  0.31025  0.55088  Biso   1.000  H
  H405     1.0000 0.98343  0.19292  0.83154  Biso   1.000  H
  H406     1.0000 0.25271  0.98248  0.85888  Biso   1.000  H
  H407     1.0000 0.29368  0.30182  0.99448  Biso   1.000  H
  H408     1.0000 0.50610  0.14564  0.75170  Biso   1.000  H
  H409     1.0000 0.29438  0.46106  0.18917  Biso   1.000  H
  H410     1.0000 0.18859  0.25486  0.49454  Biso   1.000  H
  H411     1.0000 0.49557  0.20810  0.35352  Biso   1.000  H
  H412     1.0000 0.83924  0.44893  0.29766  Biso   1.000  H
  H413     1.0000 0.69373  0.26526  0.96116  Biso   1.000  H
  H414     1.0000 0.00045  0.21168  0.17966  Biso   1.000  H
  H415     1.0000 0.17055  0.95134  0.25012  Biso   1.000  H
  H416     1.0000 0.33545  0.75677  0.53557  Biso   1.000  H
  H417     1.0000 0.97951  0.67434  0.30280  Biso   1.000  H
  H418     1.0000 0.72865  0.95079  0.32504  Biso   1.000  H
  H419     1.0000 0.84382  0.76595  0.04875  Biso   1.000  H
  H420     1.0000 0.47275  0.67004  0.22128  Biso   1.000  H
  H421     1.0000 0.74515  0.44809  0.84654  Biso   1.000  H
  H422     1.0000 0.77534  0.66225  0.52979  Biso   1.000  H
  H423     1.0000 0.50906  0.74085  0.67680  Biso   1.000  H
  H424     1.0000 0.19335  0.49524  0.74753  Biso   1.000  H
  H425     1.0000 0.34667  0.70660  0.97729  Biso   1.000  H
  H426     1.0000 0.03434  0.74738  0.85445  Biso   1.000  H
  H427     1.0000 0.85288  0.00283  0.76927  Biso   1.000  H
  H428     1.0000 0.75472  0.15416  0.53248  Biso   1.000  H
  H429     1.0000 0.05637  0.30161  0.73976  Biso   1.000  H
  H430     1.0000 0.35987  0.93699  0.75981  Biso   1.000  H
  H431     1.0000 0.20035  0.19386  0.97965  Biso   1.000  H
  H432     1.0000 0.48286  0.26156  0.84106  Biso   1.000  H
  H433     1.0000 0.29305  0.98091  0.70639  Biso   1.000  H
  H434     1.0000 0.75132  0.30347  0.03063  Biso   1.000  H
  H435     1.0000 0.05512  0.71307  0.34983  Biso   1.000  H
  H436     1.0000 0.79846  0.96342  0.83645  Biso   1.000  H
  H437     1.0000 0.24886  0.31377  0.53502  Biso   1.000  H
  H438     1.0000 0.55075  0.70605  0.18358  Biso   1.000  H
  H439     1.0000 0.24490  0.44199  0.68436  Biso   1.000  H
  H440     1.0000 0.79735  0.81345  0.97635  Biso   1.000  H
  H441     1.0000 0.55863  0.15928  0.29846  Biso   1.000  H
  H442     1.0000 0.68842  0.50374  0.79536  Biso   1.000  H
  H443     1.0000 0.28525  0.81753  0.48501  Biso   1.000  H
  H444     1.0000 0.05140  0.15498  0.23540  Biso   1.000  H
  H445     1.0000 0.66680  0.01101  0.27735  Biso   1.000  H
  H446     1.0000 0.29712  0.65075  0.03811  Biso   1.000  H
  H447     1.0000 0.98975  0.25469  0.68772  Biso   1.000  H
  H448     1.0000 0.22668  0.00486  0.19994  Biso   1.000  H
  H449     1.0000 0.84265  0.70820  0.47998  Biso   1.000  H
  H450     1.0000 0.56923  0.29434  0.80857  Biso   1.000  H
  H451     1.0000 0.79321  0.51608  0.34979  Biso   1.000  H
  H452     1.0000 0.23661  0.15410  0.05923  Biso   1.000  H
  H453     1.0000 0.47190  0.80477  0.73334  Biso   1.000  H
  H454     1.0000 0.34509  0.51942  0.24199  Biso   1.000  H
  H455     1.0000 0.69175  0.21861  0.49438  Biso   1.000  H
  H456     1.0000 0.97229  0.80134  0.80272  Biso   1.000  H
  H457     1.0000 0.68460  0.76127  0.47149  Biso   1.000  H
  H458     1.0000 0.45514  0.69239  0.83121  Biso   1.000  H
  H459     1.0000 0.84257  0.44959  0.74440  Biso   1.000  H
  H460     1.0000 0.19888  0.75073  0.05283  Biso   1.000  H
  H461     1.0000 0.96596  0.70005  0.70254  Biso   1.000  H
  H462     1.0000 0.28914  0.43398  0.84337  Biso   1.000  H
  H463     1.0000 0.84579  0.26337  0.48038  Biso   1.000  H
  H464     1.0000 0.05257  0.15022  0.78658  Biso   1.000  H
  H465     1.0000 0.69320  0.99584  0.73235  Biso   1.000  H
  H466     1.0000 0.34336  0.25605  0.05908  Biso   1.000  H
  H467     1.0000 0.55215  0.20666  0.69750  Biso   1.000  H
  H468     1.0000 0.19804  0.92910  0.79895  Biso   1.000  H
  H469     1.0000 0.34712  0.20959  0.54758  Biso   1.000  H
  H470     1.0000 0.55992  0.25847  0.20232  Biso   1.000  H
  H471     1.0000 0.19646  0.53214  0.29016  Biso   1.000  H
  H472     1.0000 0.78961  0.15581  0.95650  Biso   1.000  H
  H473     1.0000 0.05716  0.26762  0.33505  Biso   1.000  H
  H474     1.0000 0.74223  0.51268  0.19648  Biso   1.000  H
  H475     1.0000 0.23673  0.66174  0.47604  Biso   1.000  H
  H476     1.0000 0.04494  0.82113  0.25338  Biso   1.000  H
  H477     1.0000 0.31545  0.02816  0.30966  Biso   1.000  H
  H478     1.0000 0.69766  0.70704  0.97267  Biso   1.000  H
  H479     1.0000 0.49144  0.75882  0.33423  Biso   1.000  H
  H480     1.0000 0.82354  0.01217  0.22947  Biso   1.000  H
  N1       1.0000 0.69775  0.16372  0.51842  Biso   1.000  N
  N2       1.0000 0.51369  0.66047  0.18295  Biso   1.000  N
  N3       1.0000 0.19621  0.47498  0.69336  Biso   1.000  N
  N4       1.0000 0.19266  0.15411  0.01834  Biso   1.000  N
  N5       1.0000 0.02036  0.66645  0.34801  Biso   1.000  N
  N6       1.0000 0.69440  0.47904  0.84517  Biso   1.000  N
  N7       1.0000 0.83393  0.66533  0.51284  Biso   1.000  N
  N8       1.0000 0.01933  0.15843  0.18720  Biso   1.000  N
  N9       1.0000 0.34855  0.96080  0.70604  Biso   1.000  N
  N10      1.0000 0.34578  0.65376  0.00593  Biso   1.000  N
  N11      1.0000 0.53053  0.15984  0.35038  Biso   1.000  N
  N12      1.0000 0.84730  0.98591  0.82752  Biso   1.000  N
  N13      1.0000 0.33469  0.81078  0.50989  Biso   1.000  N
  N14      1.0000 0.52649  0.30393  0.84656  Biso   1.000  N
  N15      1.0000 0.84137  0.48441  0.34501  Biso   1.000  N
  N16      1.0000 0.84320  0.81139  0.01472  Biso   1.000  N
  N17      1.0000 0.01972  0.30151  0.69194  Biso   1.000  N
  N18      1.0000 0.34425  0.48925  0.19513  Biso   1.000  N
  N19      1.0000 0.19364  0.30687  0.51560  Biso   1.000  N
  N20      1.0000 0.00674  0.80085  0.84861  Biso   1.000  N
  N21      1.0000 0.67492  0.98139  0.32698  Biso   1.000  N
  N22      1.0000 0.69892  0.30610  0.00333  Biso   1.000  N
  N23      1.0000 0.49647  0.79525  0.68151  Biso   1.000  N
  N24      1.0000 0.17621  0.98296  0.20300  Biso   1.000  N
  N25      1.0000 0.84047  0.48357  0.69644  Biso   1.000  N
  N26      1.0000 0.68928  0.80913  0.50390  Biso   1.000  N
  N27      1.0000 0.49494  0.64955  0.83119  Biso   1.000  N
  N28      1.0000 0.34229  0.46207  0.83998  Biso   1.000  N
  N29      1.0000 0.19757  0.80415  0.02142  Biso   1.000  N
  N30      1.0000 0.00151  0.65374  0.70062  Biso   1.000  N
  N31      1.0000 0.69841  0.97386  0.68098  Biso   1.000  N
  N32      1.0000 0.84304  0.31282  0.51745  Biso   1.000  N
  N33      1.0000 0.01941  0.14968  0.83151  Biso   1.000  N
  N34      1.0000 0.20041  0.96104  0.85166  Biso   1.000  N
  N35      1.0000 0.34181  0.30253  0.02642  Biso   1.000  N
  N36      1.0000 0.53069  0.15203  0.70193  Biso   1.000  N
  N37      1.0000 0.19202  0.49321  0.33792  Biso   1.000  N
  N38      1.0000 0.34434  0.15977  0.51886  Biso   1.000  N
  N39      1.0000 0.52666  0.31008  0.20125  Biso   1.000  N
  N40      1.0000 0.69571  0.47969  0.19916  Biso   1.000  N
  N41      1.0000 0.84004  0.15942  0.98816  Biso   1.000  N
  N42      1.0000 0.02229  0.31557  0.33422  Biso   1.000  N
  N43      1.0000 0.31923  0.98961  0.35401  Biso   1.000  N
  N44      1.0000 0.18728  0.66274  0.51006  Biso   1.000  N
  N45      1.0000 0.01270  0.81221  0.20042  Biso   1.000  N
  N46      1.0000 0.82312  0.98547  0.17735  Biso   1.000  N
  N47      1.0000 0.70008  0.65695  0.00489  Biso   1.000  N
  N48      1.0000 0.50737  0.81482  0.32812  Biso   1.000  N
  O1       1.0000 0.36760  0.51801  0.01466  Biso   1.000  O
  O2       1.0000 0.01449  0.32812  0.55725  Biso   1.000  O
  O3       1.0000 0.54131  0.98122  0.35776  Biso   1.000  O
  O4       1.0000 0.86038  0.53333  0.51338  Biso   1.000  O
  O5       1.0000 0.52242  0.32447  0.98182  Biso   1.000  O
  O6       1.0000 0.04146  0.99058  0.17466  Biso   1.000  O
  O7       1.0000 0.17315  0.02065  0.02930  Biso   1.000  O
  O8       1.0000 0.51337  0.82425  0.54948  Biso   1.000  O
  O9       1.0000 0.97440  0.48499  0.36076  Biso   1.000  O
  O10      1.0000 0.66902  0.02991  0.50448  Biso   1.000  O
  O11      1.0000 0.02759  0.82353  0.98319  Biso   1.000  O
  O12      1.0000 0.47740  0.48824  0.17466  Biso   1.000  O
  O13      1.0000 0.68125  0.43782  0.02681  Biso   1.000  O
  O14      1.0000 0.01444  0.64462  0.48114  Biso   1.000  O
  O15      1.0000 0.48169  0.97479  0.67712  Biso   1.000  O
  O16      1.0000 0.17694  0.44578  0.51463  Biso   1.000  O
  O17      1.0000 0.52757  0.63447  0.04765  Biso   1.000  O
  O18      1.0000 0.98136  0.98486  0.85666  Biso   1.000  O
  O19      1.0000 0.86497  0.94422  0.00344  Biso   1.000  O
  O20      1.0000 0.52670  0.13918  0.48488  Biso   1.000  O
  O21      1.0000 0.06289  0.47717  0.67682  Biso   1.000  O
  O22      1.0000 0.35855  0.94508  0.52435  Biso   1.000  O
  O23      1.0000 0.00611  0.13916  0.04879  Biso   1.000  O
  O24      1.0000 0.55666  0.47648  0.86572  Biso   1.000  O
  O25      1.0000 0.95876  0.97966  0.16802  Biso   1.000  O
  O26      1.0000 0.17425  0.93703  0.02872  Biso   1.000  O
  O27      1.0000 0.01678  0.13391  0.96757  Biso   1.000  O
  O28      1.0000 0.45449  0.98578  0.36504  Biso   1.000  O
  O29      1.0000 0.66631  0.94698  0.50499  Biso   1.000  O
  O30      1.0000 0.51600  0.13407  0.56663  Biso   1.000  O
  O31      1.0000 0.56251  0.48583  0.17912  Biso   1.000  O
  O32      1.0000 0.35952  0.43460  0.02264  Biso   1.000  O
  O33      1.0000 0.51866  0.63527  0.96314  Biso   1.000  O
  O34      1.0000 0.05655  0.49552  0.35727  Biso   1.000  O
  O35      1.0000 0.86216  0.44831  0.52416  Biso   1.000  O
  O36      1.0000 0.01093  0.64437  0.56451  Biso   1.000  O
  O37      1.0000 0.06426  0.97661  0.85901  Biso   1.000  O
  O38      1.0000 0.85784  0.02803  0.00405  Biso   1.000  O
  O39      1.0000 0.01622  0.82539  0.06474  Biso   1.000  O
  O40      1.0000 0.56327  0.96579  0.67086  Biso   1.000  O
  O41      1.0000 0.36066  0.02641  0.53514  Biso   1.000  O
  O42      1.0000 0.51560  0.83116  0.46537  Biso   1.000  O
  O43      1.0000 0.47748  0.47478  0.86264  Biso   1.000  O
  O44      1.0000 0.68068  0.52106  0.02100  Biso   1.000  O
  O45      1.0000 0.52243  0.32539  0.06504  Biso   1.000  O
  O46      1.0000 0.97833  0.47220  0.68114  Biso   1.000  O
  O47      1.0000 0.17344  0.52730  0.51266  Biso   1.000  O
  O48      1.0000 0.02506  0.33274  0.47244  Biso   1.000  O
  O49      1.0000 0.00444  0.94415  0.17319  Biso   1.000  O
  O50      1.0000 0.17437  0.97660  0.98556  Biso   1.000  O
  O51      1.0000 0.97187  0.13909  0.00054  Biso   1.000  O
  O52      1.0000 0.49063  0.94542  0.35886  Biso   1.000  O
  O53      1.0000 0.67338  0.98521  0.54701  Biso   1.000  O
  O54      1.0000 0.48184  0.13873  0.51959  Biso   1.000  O
  O55      1.0000 0.51615  0.44283  0.17608  Biso   1.000  O
  O56      1.0000 0.36227  0.47202  0.97534  Biso   1.000  O
  O57      1.0000 0.56502  0.63481  0.00354  Biso   1.000  O
  O58      1.0000 0.02246  0.44973  0.35696  Biso   1.000  O
  O59      1.0000 0.86441  0.49595  0.56109  Biso   1.000  O
  O60      1.0000 0.05332  0.64158  0.52358  Biso   1.000  O
  O61      1.0000 0.02640  0.01941  0.85603  Biso   1.000  O
  O62      1.0000 0.85118  0.98553  0.04494  Biso   1.000  O
  O63      1.0000 0.06199  0.82236  0.02701  Biso   1.000  O
  O64      1.0000 0.52477  0.01762  0.67614  Biso   1.000  O
  O65      1.0000 0.35325  0.98954  0.48771  Biso   1.000  O
  O66      1.0000 0.55596  0.82445  0.51151  Biso   1.000  O
  O67      1.0000 0.51948  0.51890  0.85381  Biso   1.000  O
  O68      1.0000 0.68070  0.48235  0.06348  Biso   1.000  O
  O69      1.0000 0.47842  0.32638  0.02240  Biso   1.000  O
  O70      1.0000 0.01565  0.51833  0.67243  Biso   1.000  O
  O71      1.0000 0.17600  0.48275  0.47175  Biso   1.000  O
  O72      1.0000 0.97977  0.33029  0.50940  Biso   1.000  O
  O73      1.0000 0.02179  0.43588  0.67439  Biso   1.000  O
  O74      1.0000 0.66319  0.98605  0.46180  Biso   1.000  O
  O75      1.0000 0.48019  0.63624  0.00959  Biso   1.000  O
  O76      1.0000 0.51630  0.43857  0.86370  Biso   1.000  O
  O77      1.0000 0.16860  0.98104  0.06880  Biso   1.000  O
  O78      1.0000 0.96751  0.64941  0.52118  Biso   1.000  O
  O79      1.0000 0.51612  0.92980  0.67582  Biso   1.000  O
  O80      1.0000 0.86360  0.48297  0.47990  Biso   1.000  O
  O81      1.0000 0.05573  0.13469  0.01351  Biso   1.000  O
  O82      1.0000 0.01960  0.93734  0.86048  Biso   1.000  O
  O83      1.0000 0.36340  0.48484  0.06173  Biso   1.000  O
  O84      1.0000 0.56622  0.14160  0.53330  Biso   1.000  O
  O85      1.0000 0.01291  0.53286  0.36416  Biso   1.000  O
  O86      1.0000 0.35675  0.98284  0.57038  Biso   1.000  O
  O87      1.0000 0.56371  0.32152  0.02431  Biso   1.000  O
  O88      1.0000 0.52274  0.52956  0.17262  Biso   1.000  O
  O89      1.0000 0.86279  0.98530  0.96321  Biso   1.000  O
  O90      1.0000 0.06111  0.33222  0.52019  Biso   1.000  O
  O91      1.0000 0.50692  0.02606  0.36891  Biso   1.000  O
  O92      1.0000 0.17197  0.49010  0.55638  Biso   1.000  O
  O93      1.0000 0.97986  0.82862  0.01625  Biso   1.000  O
  O94      1.0000 0.99056  0.02620  0.16673  Biso   1.000  O
  O95      1.0000 0.68595  0.47651  0.98186  Biso   1.000  O
  O96      1.0000 0.47104  0.82952  0.50415  Biso   1.000  O
  O97      1.0000 0.47999  0.18624  0.52624  Biso   1.000  O
  O98      1.0000 0.51751  0.44686  0.22542  Biso   1.000  O
  O99      1.0000 0.22521  0.48701  0.47385  Biso   1.000  O
  O100     1.0000 0.97175  0.18901  0.00278  Biso   1.000  O
  O101     1.0000 0.01943  0.45092  0.30720  Biso   1.000  O
  O102     1.0000 0.72873  0.48175  0.06411  Biso   1.000  O
  O103     1.0000 0.05296  0.68988  0.52880  Biso   1.000  O
  O104     1.0000 0.00119  0.94700  0.22250  Biso   1.000  O
  O105     1.0000 0.30509  0.99418  0.49392  Biso   1.000  O
  O106     1.0000 0.56583  0.68300  0.99957  Biso   1.000  O
  O107     1.0000 0.48780  0.94754  0.30903  Biso   1.000  O
  O108     1.0000 0.80298  0.98664  0.03941  Biso   1.000  O
  O109     1.0000 0.55578  0.77503  0.50835  Biso   1.000  O
  O110     1.0000 0.51330  0.51598  0.80543  Biso   1.000  O
  O111     1.0000 0.81754  0.49326  0.56193  Biso   1.000  O
  O112     1.0000 0.06144  0.77434  0.02547  Biso   1.000  O
  O113     1.0000 0.02191  0.52198  0.72255  Biso   1.000  O
  O114     1.0000 0.31353  0.47260  0.97459  Biso   1.000  O
  O115     1.0000 0.97845  0.28238  0.50558  Biso   1.000  O
  O116     1.0000 0.02884  0.01400  0.80717  Biso   1.000  O
  O117     1.0000 0.72167  0.98593  0.54265  Biso   1.000  O
  O118     1.0000 0.48005  0.27731  0.02495  Biso   1.000  O
  O119     1.0000 0.53175  0.01455  0.72357  Biso   1.000  O
  O120     1.0000 0.22252  0.98348  0.98760  Biso   1.000  O
  O121     1.0000 0.06167  0.47877  0.72585  Biso   1.000  O
  O122     1.0000 0.71751  0.02880  0.50484  Biso   1.000  O
  O123     1.0000 0.52772  0.68338  0.04855  Biso   1.000  O
  O124     1.0000 0.55989  0.47925  0.81716  Biso   1.000  O
  O125     1.0000 0.22207  0.02045  0.03534  Biso   1.000  O
  O126     1.0000 0.01342  0.69126  0.48355  Biso   1.000  O
  O127     1.0000 0.48515  0.97264  0.72473  Biso   1.000  O
  O128     1.0000 0.81236  0.52972  0.51365  Biso   1.000  O
  O129     1.0000 0.01086  0.18843  0.05095  Biso   1.000  O
  O130     1.0000 0.98472  0.97773  0.80826  Biso   1.000  O
  O131     1.0000 0.31982  0.51821  0.00974  Biso   1.000  O
  O132     1.0000 0.52293  0.18617  0.48794  Biso   1.000  O
  O133     1.0000 0.97373  0.48459  0.31145  Biso   1.000  O
  O134     1.0000 0.30963  0.94580  0.52477  Biso   1.000  O
  O135     1.0000 0.52072  0.27609  0.98101  Biso   1.000  O
  O136     1.0000 0.47709  0.48952  0.22418  Biso   1.000  O
  O137     1.0000 0.81552  0.94374  0.00117  Biso   1.000  O
  O138     1.0000 0.01457  0.27839  0.55209  Biso   1.000  O
  O139     1.0000 0.53653  0.98177  0.30826  Biso   1.000  O
  O140     1.0000 0.22625  0.44359  0.51760  Biso   1.000  O
  O141     1.0000 0.02047  0.77487  0.98211  Biso   1.000  O
  O142     1.0000 0.03995  0.98831  0.22178  Biso   1.000  O
  O143     1.0000 0.72947  0.44033  0.01904  Biso   1.000  O
  O144     1.0000 0.50606  0.77743  0.54451  Biso   1.000  O
  O145     1.0000 0.56161  0.48801  0.22749  Biso   1.000  O
  O146     1.0000 0.22176  0.53013  0.51614  Biso   1.000  O
  O147     1.0000 0.51552  0.18234  0.56908  Biso   1.000  O
  O148     1.0000 0.05519  0.49696  0.30875  Biso   1.000  O
  O149     1.0000 0.72837  0.52236  0.01945  Biso   1.000  O
  O150     1.0000 0.01546  0.18174  0.96577  Biso   1.000  O
  O151     1.0000 0.95627  0.98353  0.21690  Biso   1.000  O
  O152     1.0000 0.31224  0.02789  0.53693  Biso   1.000  O
  O153     1.0000 0.00836  0.68913  0.56438  Biso   1.000  O
  O154     1.0000 0.45619  0.99621  0.31856  Biso   1.000  O
  O155     1.0000 0.80962  0.02606  0.99512  Biso   1.000  O
  O156     1.0000 0.51483  0.68398  0.96498  Biso   1.000  O
  O157     1.0000 0.47757  0.46890  0.81445  Biso   1.000  O
  O158     1.0000 0.81397  0.44758  0.52235  Biso   1.000  O
  O159     1.0000 0.51829  0.78219  0.46296  Biso   1.000  O
  O160     1.0000 0.97762  0.48133  0.73029  Biso   1.000  O
  O161     1.0000 0.31116  0.43680  0.02362  Biso   1.000  O
  O162     1.0000 0.02260  0.77702  0.06738  Biso   1.000  O
  O163     1.0000 0.06652  0.97163  0.81190  Biso   1.000  O
  O164     1.0000 0.71402  0.94709  0.49726  Biso   1.000  O
  O165     1.0000 0.02894  0.28442  0.46894  Biso   1.000  O
  O166     1.0000 0.56710  0.96600  0.71791  Biso   1.000  O
  O167     1.0000 0.22211  0.93854  0.02658  Biso   1.000  O
  O168     1.0000 0.52185  0.27541  0.06387  Biso   1.000  O
  O169     1.0000 0.99156  0.02921  0.21563  Biso   1.000  O
  O170     1.0000 0.21695  0.97913  0.07283  Biso   1.000  O
  O171     1.0000 0.05608  0.18390  0.01063  Biso   1.000  O
  O172     1.0000 0.50157  0.03056  0.31986  Biso   1.000  O
  O173     1.0000 0.71202  0.99119  0.45961  Biso   1.000  O
  O174     1.0000 0.55943  0.18901  0.53598  Biso   1.000  O
  O175     1.0000 0.51849  0.53051  0.22061  Biso   1.000  O
  O176     1.0000 0.31417  0.48378  0.05948  Biso   1.000  O
  O177     1.0000 0.48139  0.68492  0.00863  Biso   1.000  O
  O178     1.0000 0.01081  0.53532  0.31582  Biso   1.000  O
  O179     1.0000 0.81535  0.48285  0.47896  Biso   1.000  O
  O180     1.0000 0.97034  0.69706  0.52048  Biso   1.000  O
  O181     1.0000 0.01680  0.93120  0.81305  Biso   1.000  O
  O182     1.0000 0.81601  0.98070  0.95648  Biso   1.000  O
  O183     1.0000 0.97856  0.78141  0.02424  Biso   1.000  O
  O184     1.0000 0.51988  0.92715  0.72335  Biso   1.000  O
  O185     1.0000 0.30942  0.97792  0.57464  Biso   1.000  O
  O186     1.0000 0.47006  0.78068  0.49955  Biso   1.000  O
  O187     1.0000 0.52794  0.43489  0.81743  Biso   1.000  O
  O188     1.0000 0.73370  0.48345  0.97986  Biso   1.000  O
  O189     1.0000 0.56611  0.27262  0.02539  Biso   1.000  O
  O190     1.0000 0.01565  0.43685  0.72335  Biso   1.000  O
  O191     1.0000 0.22070  0.49011  0.55781  Biso   1.000  O
  O192     1.0000 0.06118  0.28487  0.51872  Biso   1.000  O
