data_image0
_cell_length_a       47.335
_cell_length_b       46.627
_cell_length_c       46.4854
_cell_angle_alpha    90
_cell_angle_beta     90
_cell_angle_gamma    90

_symmetry_space_group_name_H-M    "P 1"
_symmetry_int_tables_number       1

loop_
  _symmetry_equiv_pos_as_xyz
  'x, y, z'

loop_
  _atom_site_label
  _atom_site_occupancy
  _atom_site_fract_x
  _atom_site_fract_y
  _atom_site_fract_z
  _atom_site_thermal_displace_type
  _atom_site_B_iso_or_equiv
  _atom_site_type_symbol
  C1       1.0000 0.57860  0.98452  0.32453  Biso   1.000  C
  C2       1.0000 0.33542  0.54899  0.01111  Biso   1.000  C
  C3       1.0000 0.00693  0.31562  0.55000  Biso   1.000  C
  C4       1.0000 0.07819  0.98827  0.17806  Biso   1.000  C
  C5       1.0000 0.83872  0.55189  0.49850  Biso   1.000  C
  C6       1.0000 0.52798  0.31956  0.94275  Biso   1.000  C
  C7       1.0000 0.95586  0.49037  0.32039  Biso   1.000  C
  C8       1.0000 0.20442  0.04641  0.00089  Biso   1.000  C
  C9       1.0000 0.51214  0.81545  0.57254  Biso   1.000  C
  C10      1.0000 0.46401  0.47670  0.18792  Biso   1.000  C
  C11      1.0000 0.69646  0.05122  0.50553  Biso   1.000  C
  C12      1.0000 0.00222  0.81366  0.95471  Biso   1.000  C
  C13      1.0000 0.45317  0.01196  0.68994  Biso   1.000  C
  C14      1.0000 0.69659  0.44498  0.00056  Biso   1.000  C
  C15      1.0000 0.02022  0.67105  0.45373  Biso   1.000  C
  C16      1.0000 0.95705  0.97951  0.82707  Biso   1.000  C
  C17      1.0000 0.19466  0.43525  0.51285  Biso   1.000  C
  C18      1.0000 0.50925  0.67053  0.07324  Biso   1.000  C
  C19      1.0000 0.06982  0.47455  0.68137  Biso   1.000  C
  C20      1.0000 0.83559  0.94674  0.01191  Biso   1.000  C
  C21      1.0000 0.51593  0.17009  0.43661  Biso   1.000  C
  C22      1.0000 0.57166  0.49763  0.82110  Biso   1.000  C
  C23      1.0000 0.33424  0.93618  0.50317  Biso   1.000  C
  C24      1.0000 0.02436  0.17519  0.04948  Biso   1.000  C
  C25      1.0000 0.33338  0.04306  0.49198  Biso   1.000  C
  C26      1.0000 0.51596  0.30850  0.04985  Biso   1.000  C
  C27      1.0000 0.06582  0.48400  0.31704  Biso   1.000  C
  C28      1.0000 0.83909  0.05282  0.01632  Biso   1.000  C
  C29      1.0000 0.01728  0.31442  0.44347  Biso   1.000  C
  C30      1.0000 0.57327  0.48636  0.18383  Biso   1.000  C
  C31      1.0000 0.19718  0.54248  0.49758  Biso   1.000  C
  C32      1.0000 0.01695  0.81459  0.06551  Biso   1.000  C
  C33      1.0000 0.46848  0.97668  0.32028  Biso   1.000  C
  C34      1.0000 0.69794  0.55196  0.00627  Biso   1.000  C
  C35      1.0000 0.51881  0.80934  0.46479  Biso   1.000  C
  C36      1.0000 0.96880  0.99726  0.18970  Biso   1.000  C
  C37      1.0000 0.69589  0.93959  0.51231  Biso   1.000  C
  C38      1.0000 0.52785  0.67853  0.96531  Biso   1.000  C
  C39      1.0000 0.96522  0.50359  0.68449  Biso   1.000  C
  C40      1.0000 0.19389  0.93566  0.98681  Biso   1.000  C
  C41      1.0000 0.02145  0.67350  0.56458  Biso   1.000  C
  C42      1.0000 0.46348  0.50838  0.82671  Biso   1.000  C
  C43      1.0000 0.82853  0.44042  0.50713  Biso   1.000  C
  C44      1.0000 0.02137  0.17409  0.94007  Biso   1.000  C
  C45      1.0000 0.56131  0.99642  0.68839  Biso   1.000  C
  C46      1.0000 0.33808  0.43942  0.00550  Biso   1.000  C
  C47      1.0000 0.51255  0.17619  0.54713  Biso   1.000  C
  C48      1.0000 0.06386  0.99711  0.81893  Biso   1.000  C
  C49      1.0000 0.00410  0.04037  0.82070  Biso   1.000  C
  C50      1.0000 0.83990  0.99924  0.06802  Biso   1.000  C
  C51      1.0000 0.06365  0.81391  0.00142  Biso   1.000  C
  C52      1.0000 0.51366  0.05655  0.68557  Biso   1.000  C
  C53      1.0000 0.33402  0.98168  0.44394  Biso   1.000  C
  C54      1.0000 0.56873  0.81102  0.52377  Biso   1.000  C
  C55      1.0000 0.52050  0.55806  0.83393  Biso   1.000  C
  C56      1.0000 0.69776  0.50005  0.05508  Biso   1.000  C
  C57      1.0000 0.46756  0.31406  0.99116  Biso   1.000  C
  C58      1.0000 0.03224  0.54221  0.68593  Biso   1.000  C
  C59      1.0000 0.19126  0.48449  0.44703  Biso   1.000  C
  C60      1.0000 0.95552  0.31622  0.48870  Biso   1.000  C
  C61      1.0000 0.01918  0.93985  0.19388  Biso   1.000  C
  C62      1.0000 0.19474  0.99826  0.94209  Biso   1.000  C
  C63      1.0000 0.97033  0.17321  0.99583  Biso   1.000  C
  C64      1.0000 0.52462  0.92884  0.32630  Biso   1.000  C
  C65      1.0000 0.69617  0.00159  0.56873  Biso   1.000  C
  C66      1.0000 0.45995  0.17336  0.49046  Biso   1.000  C
  C67      1.0000 0.52108  0.42949  0.18091  Biso   1.000  C
  C68      1.0000 0.33623  0.50197  0.95179  Biso   1.000  C
  C69      1.0000 0.57018  0.67195  0.02710  Biso   1.000  C
  C70      1.0000 0.00855  0.43520  0.31253  Biso   1.000  C
  C71      1.0000 0.83546  0.50582  0.55854  Biso   1.000  C
  C72      1.0000 0.07545  0.67174  0.50917  Biso   1.000  C
  C73      1.0000 0.01160  0.54286  0.31878  Biso   1.000  C
  C74      1.0000 0.33673  0.99592  0.55224  Biso   1.000  C
  C75      1.0000 0.57678  0.31567  0.00224  Biso   1.000  C
  C76      1.0000 0.51294  0.53595  0.19182  Biso   1.000  C
  C77      1.0000 0.83540  0.00153  0.95914  Biso   1.000  C
  C78      1.0000 0.06485  0.31480  0.50381  Biso   1.000  C
  C79      1.0000 0.51828  0.03544  0.31596  Biso   1.000  C
  C80      1.0000 0.19813  0.49301  0.55612  Biso   1.000  C
  C81      1.0000 0.95407  0.81239  0.01928  Biso   1.000  C
  C82      1.0000 0.03047  0.04730  0.18001  Biso   1.000  C
  C83      1.0000 0.69791  0.50254  0.94912  Biso   1.000  C
  C84      1.0000 0.46191  0.80723  0.50754  Biso   1.000  C
  C85      1.0000 0.00198  0.43710  0.68564  Biso   1.000  C
  C86      1.0000 0.69544  0.99344  0.45851  Biso   1.000  C
  C87      1.0000 0.46413  0.67523  0.00990  Biso   1.000  C
  C88      1.0000 0.51319  0.44852  0.82067  Biso   1.000  C
  C89      1.0000 0.20419  0.98316  0.04817  Biso   1.000  C
  C90      1.0000 0.96516  0.67265  0.50851  Biso   1.000  C
  C91      1.0000 0.49902  0.95144  0.69020  Biso   1.000  C
  C92      1.0000 0.83315  0.49240  0.44962  Biso   1.000  C
  C93      1.0000 0.07822  0.17495  0.99737  Biso   1.000  C
  C94      1.0000 0.02098  0.93242  0.82463  Biso   1.000  C
  C95      1.0000 0.33555  0.49400  0.05897  Biso   1.000  C
  C96      1.0000 0.56853  0.17278  0.49300  Biso   1.000  C
  C97      1.0000 0.69760  0.08268  0.50304  Biso   1.000  C
  C98      1.0000 0.50401  0.66840  0.10568  Biso   1.000  C
  C99      1.0000 0.10261  0.47427  0.68209  Biso   1.000  C
  C100     1.0000 0.20504  0.07883  0.00500  Biso   1.000  C
  C101     1.0000 0.01738  0.67190  0.42141  Biso   1.000  C
  C102     1.0000 0.60383  0.49629  0.82123  Biso   1.000  C
  C103     1.0000 0.83884  0.58330  0.49338  Biso   1.000  C
  C104     1.0000 0.02025  0.17388  0.08199  Biso   1.000  C
  C105     1.0000 0.42092  0.01182  0.68731  Biso   1.000  C
  C106     1.0000 0.33621  0.58117  0.01283  Biso   1.000  C
  C107     1.0000 0.52133  0.16841  0.40399  Biso   1.000  C
  C108     1.0000 0.92265  0.97962  0.82840  Biso   1.000  C
  C109     1.0000 0.33503  0.90369  0.50018  Biso   1.000  C
  C110     1.0000 0.52154  0.32059  0.91191  Biso   1.000  C
  C111     1.0000 0.92475  0.49588  0.32084  Biso   1.000  C
  C112     1.0000 0.83329  0.91515  0.01281  Biso   1.000  C
  C113     1.0000 0.00411  0.31363  0.58110  Biso   1.000  C
  C114     1.0000 0.42976  0.47572  0.18641  Biso   1.000  C
  C115     1.0000 0.19417  0.40375  0.51370  Biso   1.000  C
  C116     1.0000 0.99866  0.81101  0.92316  Biso   1.000  C
  C117     1.0000 0.61045  0.98133  0.32535  Biso   1.000  C
  C118     1.0000 0.69655  0.41412  0.00622  Biso   1.000  C
  C119     1.0000 0.51335  0.81649  0.60474  Biso   1.000  C
  C120     1.0000 0.10910  0.98435  0.17737  Biso   1.000  C
  C121     1.0000 0.84040  0.99863  0.09943  Biso   1.000  C
  C122     1.0000 0.09484  0.81251  0.99740  Biso   1.000  C
  C123     1.0000 0.00224  0.07267  0.81876  Biso   1.000  C
  C124     1.0000 0.33586  0.97744  0.41117  Biso   1.000  C
  C125     1.0000 0.60068  0.81034  0.52488  Biso   1.000  C
  C126     1.0000 0.51349  0.08882  0.68337  Biso   1.000  C
  C127     1.0000 0.69596  0.50515  0.08771  Biso   1.000  C
  C128     1.0000 0.43622  0.31417  0.99056  Biso   1.000  C
  C129     1.0000 0.51960  0.58962  0.83464  Biso   1.000  C
  C130     1.0000 0.19145  0.48259  0.41356  Biso   1.000  C
  C131     1.0000 0.92505  0.31616  0.48336  Biso   1.000  C
  C132     1.0000 0.03628  0.57392  0.68884  Biso   1.000  C
  C133     1.0000 0.19499  0.99380  0.90975  Biso   1.000  C
  C134     1.0000 0.93779  0.17376  0.99402  Biso   1.000  C
  C135     1.0000 0.01803  0.90736  0.19535  Biso   1.000  C
  C136     1.0000 0.69407  0.00462  0.60142  Biso   1.000  C
  C137     1.0000 0.42767  0.17191  0.48587  Biso   1.000  C
  C138     1.0000 0.52068  0.89783  0.32886  Biso   1.000  C
  C139     1.0000 0.33581  0.50431  0.91902  Biso   1.000  C
  C140     1.0000 0.60164  0.67392  0.02524  Biso   1.000  C
  C141     1.0000 0.52239  0.39755  0.17989  Biso   1.000  C
  C142     1.0000 0.83758  0.51048  0.59017  Biso   1.000  C
  C143     1.0000 0.10673  0.67103  0.51122  Biso   1.000  C
  C144     1.0000 0.00738  0.40258  0.31376  Biso   1.000  C
  C145     1.0000 0.33432  0.49308  0.09119  Biso   1.000  C
  C146     1.0000 0.09612  0.31147  0.50592  Biso   1.000  C
  C147     1.0000 0.52245  0.06764  0.31493  Biso   1.000  C
  C148     1.0000 0.83293  0.49879  0.41845  Biso   1.000  C
  C149     1.0000 0.60818  0.31705  0.00375  Biso   1.000  C
  C150     1.0000 0.03279  0.07859  0.17761  Biso   1.000  C
  C151     1.0000 0.20646  0.98431  0.07990  Biso   1.000  C
  C152     1.0000 0.43155  0.80815  0.50255  Biso   1.000  C
  C153     1.0000 0.01005  0.57594  0.32124  Biso   1.000  C
  C154     1.0000 0.69678  0.99249  0.42522  Biso   1.000  C
  C155     1.0000 0.92409  0.81425  0.02383  Biso   1.000  C
  C156     1.0000 0.51075  0.56862  0.19522  Biso   1.000  C
  C157     1.0000 0.69784  0.50501  0.91808  Biso   1.000  C
  C158     1.0000 0.93255  0.67463  0.50692  Biso   1.000  C
  C159     1.0000 0.49873  0.91988  0.69123  Biso   1.000  C
  C160     1.0000 0.19817  0.49590  0.58874  Biso   1.000  C
  C161     1.0000 0.43127  0.67553  0.00971  Biso   1.000  C
  C162     1.0000 0.02434  0.90058  0.82721  Biso   1.000  C
  C163     1.0000 0.83294  0.00033  0.92671  Biso   1.000  C
  C164     1.0000 0.60009  0.17348  0.49423  Biso   1.000  C
  C165     1.0000 0.99682  0.40401  0.68391  Biso   1.000  C
  C166     1.0000 0.33404  0.99672  0.58561  Biso   1.000  C
  C167     1.0000 0.11094  0.17436  0.99709  Biso   1.000  C
  C168     1.0000 0.51107  0.41674  0.81920  Biso   1.000  C
  C169     1.0000 0.02087  0.81456  0.09724  Biso   1.000  C
  C170     1.0000 0.09562  0.00275  0.81944  Biso   1.000  C
  C171     1.0000 0.84151  0.08388  0.01234  Biso   1.000  C
  C172     1.0000 0.51872  0.80702  0.43153  Biso   1.000  C
  C173     1.0000 0.59357  0.99338  0.69116  Biso   1.000  C
  C174     1.0000 0.33373  0.07560  0.48904  Biso   1.000  C
  C175     1.0000 0.51967  0.30637  0.08100  Biso   1.000  C
  C176     1.0000 0.43234  0.50734  0.82689  Biso   1.000  C
  C177     1.0000 0.69798  0.58385  0.00937  Biso   1.000  C
  C178     1.0000 0.01731  0.31223  0.41166  Biso   1.000  C
  C179     1.0000 0.93291  0.50737  0.68579  Biso   1.000  C
  C180     1.0000 0.19855  0.57444  0.49503  Biso   1.000  C
  C181     1.0000 0.01260  0.17249  0.90877  Biso   1.000  C
  C182     1.0000 0.93720  0.99307  0.19107  Biso   1.000  C
  C183     1.0000 0.19220  0.90375  0.98481  Biso   1.000  C
  C184     1.0000 0.51399  0.17743  0.57845  Biso   1.000  C
  C185     1.0000 0.43652  0.97413  0.31945  Biso   1.000  C
  C186     1.0000 0.69526  0.90792  0.51285  Biso   1.000  C
  C187     1.0000 0.52926  0.68048  0.93250  Biso   1.000  C
  C188     1.0000 0.60519  0.48535  0.18302  Biso   1.000  C
  C189     1.0000 0.33871  0.40796  0.00931  Biso   1.000  C
  C190     1.0000 0.02530  0.67394  0.59715  Biso   1.000  C
  C191     1.0000 0.09805  0.47953  0.31725  Biso   1.000  C
  C192     1.0000 0.82719  0.40876  0.50362  Biso   1.000  C
  C193     1.0000 0.85969  0.00058  0.91073  Biso   1.000  C
  C194     1.0000 0.91021  0.84306  0.02245  Biso   1.000  C
  C195     1.0000 0.01526  0.88622  0.85362  Biso   1.000  C
  C196     1.0000 0.36017  0.00125  0.60209  Biso   1.000  C
  C197     1.0000 0.41563  0.83510  0.50156  Biso   1.000  C
  C198     1.0000 0.49968  0.90046  0.66513  Biso   1.000  C
  C199     1.0000 0.67109  0.50198  0.90226  Biso   1.000  C
  C200     1.0000 0.62181  0.34418  0.00612  Biso   1.000  C
  C201     1.0000 0.51231  0.39937  0.84567  Biso   1.000  C
  C202     1.0000 0.17221  0.48993  0.60463  Biso   1.000  C
  C203     1.0000 0.11331  0.33741  0.50810  Biso   1.000  C
  C204     1.0000 0.99942  0.39004  0.65542  Biso   1.000  C
  C205     1.0000 0.17821  0.98529  0.09633  Biso   1.000  C
  C206     1.0000 0.12790  0.14756  0.00198  Biso   1.000  C
  C207     1.0000 0.02881  0.09513  0.15061  Biso   1.000  C
  C208     1.0000 0.67107  0.98846  0.40547  Biso   1.000  C
  C209     1.0000 0.61580  0.14602  0.49547  Biso   1.000  C
  C210     1.0000 0.52336  0.08533  0.34201  Biso   1.000  C
  C211     1.0000 0.36222  0.49077  0.10806  Biso   1.000  C
  C212     1.0000 0.41437  0.64735  0.00479  Biso   1.000  C
  C213     1.0000 0.50882  0.58707  0.16833  Biso   1.000  C
  C214     1.0000 0.85779  0.49763  0.40085  Biso   1.000  C
  C215     1.0000 0.91556  0.64885  0.50416  Biso   1.000  C
  C216     1.0000 0.01059  0.59138  0.34949  Biso   1.000  C
  C217     1.0000 0.11321  0.99757  0.84539  Biso   1.000  C
  C218     1.0000 0.86784  0.09913  0.00769  Biso   1.000  C
  C219     1.0000 0.02103  0.84133  0.11401  Biso   1.000  C
  C220     1.0000 0.61173  0.99471  0.66442  Biso   1.000  C
  C221     1.0000 0.36082  0.09284  0.48790  Biso   1.000  C
  C222     1.0000 0.51600  0.83330  0.41380  Biso   1.000  C
  C223     1.0000 0.41482  0.50969  0.85332  Biso   1.000  C
  C224     1.0000 0.67055  0.59806  0.01092  Biso   1.000  C
  C225     1.0000 0.52368  0.33238  0.09810  Biso   1.000  C
  C226     1.0000 0.91683  0.50562  0.65843  Biso   1.000  C
  C227     1.0000 0.17310  0.59174  0.49966  Biso   1.000  C
  C228     1.0000 0.01305  0.33791  0.39468  Biso   1.000  C
  C229     1.0000 0.91953  0.99683  0.16666  Biso   1.000  C
  C230     1.0000 0.16473  0.88868  0.98634  Biso   1.000  C
  C231     1.0000 0.01197  0.14493  0.89504  Biso   1.000  C
  C232     1.0000 0.41781  0.97370  0.34565  Biso   1.000  C
  C233     1.0000 0.66892  0.89197  0.51996  Biso   1.000  C
  C234     1.0000 0.51524  0.15151  0.59621  Biso   1.000  C
  C235     1.0000 0.62150  0.48884  0.15621  Biso   1.000  C
  C236     1.0000 0.36584  0.39262  0.00784  Biso   1.000  C
  C237     1.0000 0.52903  0.65398  0.91624  Biso   1.000  C
  C238     1.0000 0.11380  0.48292  0.34403  Biso   1.000  C
  C239     1.0000 0.85518  0.39269  0.49972  Biso   1.000  C
  C240     1.0000 0.02902  0.64677  0.61138  Biso   1.000  C
  C241     1.0000 0.62020  0.49567  0.84916  Biso   1.000  C
  C242     1.0000 0.86634  0.59924  0.49722  Biso   1.000  C
  C243     1.0000 0.50632  0.84443  0.61808  Biso   1.000  C
  C244     1.0000 0.11955  0.47837  0.65603  Biso   1.000  C
  C245     1.0000 0.36353  0.59672  0.01005  Biso   1.000  C
  C246     1.0000 0.00014  0.83593  0.90541  Biso   1.000  C
  C247     1.0000 0.90709  0.98763  0.85494  Biso   1.000  C
  C248     1.0000 0.67038  0.09739  0.50099  Biso   1.000  C
  C249     1.0000 0.00060  0.33966  0.59874  Biso   1.000  C
  C250     1.0000 0.40754  0.00857  0.65865  Biso   1.000  C
  C251     1.0000 0.17993  0.09552  0.00580  Biso   1.000  C
  C252     1.0000 0.51487  0.34684  0.89676  Biso   1.000  C
  C253     1.0000 0.41271  0.48126  0.16044  Biso   1.000  C
  C254     1.0000 0.16590  0.38919  0.51260  Biso   1.000  C
  C255     1.0000 0.52485  0.13980  0.39235  Biso   1.000  C
  C256     1.0000 0.90806  0.49474  0.34905  Biso   1.000  C
  C257     1.0000 0.67057  0.39607  0.00840  Biso   1.000  C
  C258     1.0000 0.02020  0.14580  0.09891  Biso   1.000  C
  C259     1.0000 0.12509  0.98658  0.14962  Biso   1.000  C
  C260     1.0000 0.36280  0.88734  0.50012  Biso   1.000  C
  C261     1.0000 0.01135  0.64421  0.40574  Biso   1.000  C
  C262     1.0000 0.62493  0.98385  0.35254  Biso   1.000  C
  C263     1.0000 0.85987  0.89724  0.01403  Biso   1.000  C
  C264     1.0000 0.50692  0.64101  0.12007  Biso   1.000  C
  C265     1.0000 0.00763  0.09040  0.84568  Biso   1.000  C
  C266     1.0000 0.86754  0.00008  0.11511  Biso   1.000  C
  C267     1.0000 0.11074  0.83885  0.99359  Biso   1.000  C
  C268     1.0000 0.51670  0.10307  0.65399  Biso   1.000  C
  C269     1.0000 0.36303  0.97350  0.39556  Biso   1.000  C
  C270     1.0000 0.61669  0.83739  0.52263  Biso   1.000  C
  C271     1.0000 0.52379  0.60587  0.86200  Biso   1.000  C
  C272     1.0000 0.66797  0.50171  0.10427  Biso   1.000  C
  C273     1.0000 0.41968  0.34094  0.99436  Biso   1.000  C
  C274     1.0000 0.03837  0.58964  0.66188  Biso   1.000  C
  C275     1.0000 0.16382  0.48205  0.39658  Biso   1.000  C
  C276     1.0000 0.90864  0.34260  0.48640  Biso   1.000  C
  C277     1.0000 0.01742  0.89150  0.16724  Biso   1.000  C
  C278     1.0000 0.16756  0.99219  0.89387  Biso   1.000  C
  C279     1.0000 0.92097  0.14773  0.99849  Biso   1.000  C
  C280     1.0000 0.51784  0.88362  0.35752  Biso   1.000  C
  C281     1.0000 0.66493  0.00166  0.61499  Biso   1.000  C
  C282     1.0000 0.41206  0.14518  0.48635  Biso   1.000  C
  C283     1.0000 0.52569  0.38190  0.15241  Biso   1.000  C
  C284     1.0000 0.36331  0.50514  0.90341  Biso   1.000  C
  C285     1.0000 0.61887  0.64779  0.01976  Biso   1.000  C
  C286     1.0000 0.00629  0.38741  0.34159  Biso   1.000  C
  C287     1.0000 0.86488  0.51059  0.60625  Biso   1.000  C
  C288     1.0000 0.12195  0.64448  0.50515  Biso   1.000  C
  C289     1.0000 0.36264  0.85600  0.49887  Biso   1.000  C
  C290     1.0000 0.51222  0.34622  0.86496  Biso   1.000  C
  C291     1.0000 0.87756  0.50151  0.34735  Biso   1.000  C
  C292     1.0000 0.85803  0.86649  0.02111  Biso   1.000  C
  C293     1.0000 0.99635  0.33786  0.63044  Biso   1.000  C
  C294     1.0000 0.38226  0.47872  0.16032  Biso   1.000  C
  C295     1.0000 0.16559  0.35822  0.51014  Biso   1.000  C
  C296     1.0000 0.00813  0.83346  0.87520  Biso   1.000  C
  C297     1.0000 0.65542  0.98308  0.35246  Biso   1.000  C
  C298     1.0000 0.67264  0.36494  0.01049  Biso   1.000  C
  C299     1.0000 0.50811  0.84710  0.64907  Biso   1.000  C
  C300     1.0000 0.15619  0.98557  0.14939  Biso   1.000  C
  C301     1.0000 0.67057  0.12774  0.49850  Biso   1.000  C
  C302     1.0000 0.50697  0.64085  0.15034  Biso   1.000  C
  C303     1.0000 0.15089  0.48375  0.65827  Biso   1.000  C
  C304     1.0000 0.18097  0.12754  0.00570  Biso   1.000  C
  C305     1.0000 0.01438  0.64375  0.37280  Biso   1.000  C
  C306     1.0000 0.65081  0.50004  0.84830  Biso   1.000  C
  C307     1.0000 0.86374  0.63035  0.49893  Biso   1.000  C
  C308     1.0000 0.02353  0.14776  0.12983  Biso   1.000  C
  C309     1.0000 0.37656  0.00832  0.65696  Biso   1.000  C
  C310     1.0000 0.36099  0.62918  0.00850  Biso   1.000  C
  C311     1.0000 0.52302  0.14017  0.36025  Biso   1.000  C
  C312     1.0000 0.87596  0.98976  0.85629  Biso   1.000  C
  C313     1.0000 0.16595  0.47910  0.36487  Biso   1.000  C
  C314     1.0000 0.38117  0.14459  0.48854  Biso   1.000  C
  C315     1.0000 0.52304  0.35099  0.15232  Biso   1.000  C
  C316     1.0000 0.67114  0.50452  0.13540  Biso   1.000  C
  C317     1.0000 0.89032  0.15184  0.00190  Biso   1.000  C
  C318     1.0000 0.01512  0.35725  0.34066  Biso   1.000  C
  C319     1.0000 0.36275  0.97503  0.36353  Biso   1.000  C
  C320     1.0000 0.15292  0.64407  0.50589  Biso   1.000  C
  C321     1.0000 0.02119  0.86052  0.16681  Biso   1.000  C
  C322     1.0000 0.86732  0.99491  0.14752  Biso   1.000  C
  C323     1.0000 0.64906  0.65011  0.02000  Biso   1.000  C
  C324     1.0000 0.51910  0.85161  0.36062  Biso   1.000  C
  C325     1.0000 0.86431  0.51312  0.63704  Biso   1.000  C
  C326     1.0000 0.64663  0.83681  0.51967  Biso   1.000  C
  C327     1.0000 0.52266  0.63771  0.86143  Biso   1.000  C
  C328     1.0000 0.36308  0.50662  0.87293  Biso   1.000  C
  C329     1.0000 0.14190  0.83667  0.99045  Biso   1.000  C
  C330     1.0000 0.03722  0.62231  0.66340  Biso   1.000  C
  C331     1.0000 0.66414  0.99985  0.64680  Biso   1.000  C
  C332     1.0000 0.87708  0.34130  0.48999  Biso   1.000  C
  C333     1.0000 0.00530  0.12146  0.84276  Biso   1.000  C
  C334     1.0000 0.16696  0.99556  0.86344  Biso   1.000  C
  C335     1.0000 0.38919  0.34078  0.99992  Biso   1.000  C
  C336     1.0000 0.51568  0.13434  0.65152  Biso   1.000  C
  C337     1.0000 0.67203  0.50146  0.86957  Biso   1.000  C
  C338     1.0000 0.88476  0.65172  0.50270  Biso   1.000  C
  C339     1.0000 0.50545  0.86951  0.66885  Biso   1.000  C
  C340     1.0000 0.17124  0.48913  0.63599  Biso   1.000  C
  C341     1.0000 0.38301  0.65006  0.00682  Biso   1.000  C
  C342     1.0000 0.01465  0.85450  0.85310  Biso   1.000  C
  C343     1.0000 0.85674  0.99505  0.87942  Biso   1.000  C
  C344     1.0000 0.64759  0.14766  0.49547  Biso   1.000  C
  C345     1.0000 0.99559  0.35878  0.65401  Biso   1.000  C
  C346     1.0000 0.35575  0.00359  0.63396  Biso   1.000  C
  C347     1.0000 0.15967  0.14885  0.00259  Biso   1.000  C
  C348     1.0000 0.50966  0.36877  0.84419  Biso   1.000  C
  C349     1.0000 0.36138  0.48345  0.13846  Biso   1.000  C
  C350     1.0000 0.14372  0.33618  0.50651  Biso   1.000  C
  C351     1.0000 0.52248  0.11713  0.34002  Biso   1.000  C
  C352     1.0000 0.85597  0.50253  0.36767  Biso   1.000  C
  C353     1.0000 0.65225  0.34269  0.00971  Biso   1.000  C
  C354     1.0000 0.02771  0.12661  0.15157  Biso   1.000  C
  C355     1.0000 0.17795  0.98498  0.12766  Biso   1.000  C
  C356     1.0000 0.38524  0.83559  0.49719  Biso   1.000  C
  C357     1.0000 0.01381  0.62257  0.34960  Biso   1.000  C
  C358     1.0000 0.67588  0.98480  0.37467  Biso   1.000  C
  C359     1.0000 0.87850  0.84419  0.02243  Biso   1.000  C
  C360     1.0000 0.50925  0.61848  0.17139  Biso   1.000  C
  C361     1.0000 0.00744  0.14399  0.86332  Biso   1.000  C
  C362     1.0000 0.88891  0.99444  0.16922  Biso   1.000  C
  C363     1.0000 0.16376  0.85665  0.98747  Biso   1.000  C
  C364     1.0000 0.51595  0.15454  0.62814  Biso   1.000  C
  C365     1.0000 0.38643  0.97362  0.34360  Biso   1.000  C
  C366     1.0000 0.66870  0.85865  0.51899  Biso   1.000  C
  C367     1.0000 0.52495  0.65790  0.88395  Biso   1.000  C
  C368     1.0000 0.65141  0.49837  0.15790  Biso   1.000  C
  C369     1.0000 0.36689  0.36127  0.00462  Biso   1.000  C
  C370     1.0000 0.03261  0.64545  0.64192  Biso   1.000  C
  C371     1.0000 0.14534  0.48118  0.34317  Biso   1.000  C
  C372     1.0000 0.85526  0.36214  0.49590  Biso   1.000  C
  C373     1.0000 0.02197  0.83924  0.14550  Biso   1.000  C
  C374     1.0000 0.14521  0.99875  0.84382  Biso   1.000  C
  C375     1.0000 0.86815  0.13127  0.00523  Biso   1.000  C
  C376     1.0000 0.51806  0.83188  0.38321  Biso   1.000  C
  C377     1.0000 0.64223  0.99764  0.66769  Biso   1.000  C
  C378     1.0000 0.35898  0.12355  0.48945  Biso   1.000  C
  C379     1.0000 0.52231  0.32963  0.12962  Biso   1.000  C
  C380     1.0000 0.38407  0.50901  0.85064  Biso   1.000  C
  C381     1.0000 0.67104  0.62909  0.01786  Biso   1.000  C
  C382     1.0000 0.01729  0.33601  0.36355  Biso   1.000  C
  C383     1.0000 0.88546  0.51164  0.65935  Biso   1.000  C
  C384     1.0000 0.17441  0.62213  0.50289  Biso   1.000  C
  C385     1.0000 0.20840  0.14198  0.00472  Biso   1.000  C
  C386     1.0000 0.02748  0.17576  0.14482  Biso   1.000  C
  C387     1.0000 0.17088  0.98416  0.17712  Biso   1.000  C
  C388     1.0000 0.69646  0.14451  0.50012  Biso   1.000  C
  C389     1.0000 0.52124  0.16599  0.34194  Biso   1.000  C
  C390     1.0000 0.67201  0.98002  0.32639  Biso   1.000  C
  C391     1.0000 0.33473  0.64483  0.01105  Biso   1.000  C
  C392     1.0000 0.50658  0.66651  0.16708  Biso   1.000  C
  C393     1.0000 0.36737  0.46941  0.18561  Biso   1.000  C
  C394     1.0000 0.83698  0.64594  0.49649  Biso   1.000  C
  C395     1.0000 0.01959  0.66999  0.35731  Biso   1.000  C
  C396     1.0000 0.86326  0.50672  0.31974  Biso   1.000  C
  C397     1.0000 0.83107  0.85229  0.02423  Biso   1.000  C
  C398     1.0000 0.01003  0.80621  0.86135  Biso   1.000  C
  C399     1.0000 0.85826  0.98413  0.83100  Biso   1.000  C
  C400     1.0000 0.33577  0.84028  0.49733  Biso   1.000  C
  C401     1.0000 0.51257  0.82077  0.66718  Biso   1.000  C
  C402     1.0000 0.35930  0.01021  0.68222  Biso   1.000  C
  C403     1.0000 0.69888  0.34939  0.01071  Biso   1.000  C
  C404     1.0000 0.51071  0.32023  0.84821  Biso   1.000  C
  C405     1.0000 0.66644  0.50252  0.82225  Biso   1.000  C
  C406     1.0000 0.19253  0.34091  0.50933  Biso   1.000  C
  C407     1.0000 0.99312  0.31026  0.64400  Biso   1.000  C
  C408     1.0000 0.16660  0.48413  0.68655  Biso   1.000  C
  C409     1.0000 0.15924  0.00193  0.81676  Biso   1.000  C
  C410     1.0000 0.84240  0.14809  0.00709  Biso   1.000  C
  C411     1.0000 0.02556  0.81218  0.16018  Biso   1.000  C
  C412     1.0000 0.65558  0.99909  0.69614  Biso   1.000  C
  C413     1.0000 0.33174  0.13858  0.48904  Biso   1.000  C
  C414     1.0000 0.52160  0.80455  0.36914  Biso   1.000  C
  C415     1.0000 0.36884  0.50689  0.82384  Biso   1.000  C
  C416     1.0000 0.69669  0.64560  0.02132  Biso   1.000  C
  C417     1.0000 0.51860  0.30334  0.14263  Biso   1.000  C
  C418     1.0000 0.87068  0.51446  0.68719  Biso   1.000  C
  C419     1.0000 0.20259  0.63723  0.50068  Biso   1.000  C
  C420     1.0000 0.02507  0.30955  0.34924  Biso   1.000  C
  C421     1.0000 0.87368  0.98550  0.19459  Biso   1.000  C
  C422     1.0000 0.19021  0.84066  0.98528  Biso   1.000  C
  C423     1.0000 0.00325  0.16966  0.84722  Biso   1.000  C
  C424     1.0000 0.37336  0.97485  0.31588  Biso   1.000  C
  C425     1.0000 0.69473  0.84323  0.51224  Biso   1.000  C
  C426     1.0000 0.51557  0.18146  0.64230  Biso   1.000  C
  C427     1.0000 0.66520  0.50307  0.18396  Biso   1.000  C
  C428     1.0000 0.34223  0.34528  0.00724  Biso   1.000  C
  C429     1.0000 0.52263  0.68568  0.86921  Biso   1.000  C
  C430     1.0000 0.16077  0.47904  0.31590  Biso   1.000  C
  C431     1.0000 0.82865  0.34581  0.49667  Biso   1.000  C
  C432     1.0000 0.03058  0.67232  0.65923  Biso   1.000  C
  C433     1.0000 0.99925  0.13700  0.81585  Biso   1.000  C
  C434     1.0000 0.84040  0.98881  0.16259  Biso   1.000  C
  C435     1.0000 0.15813  0.81015  0.99364  Biso   1.000  C
  C436     1.0000 0.51300  0.15130  0.67770  Biso   1.000  C
  C437     1.0000 0.33740  0.97569  0.34591  Biso   1.000  C
  C438     1.0000 0.66298  0.81084  0.51787  Biso   1.000  C
  C439     1.0000 0.51886  0.65394  0.83489  Biso   1.000  C
  C440     1.0000 0.69738  0.51198  0.15130  Biso   1.000  C
  C441     1.0000 0.37425  0.31407  0.99838  Biso   1.000  C
  C442     1.0000 0.03974  0.63858  0.69094  Biso   1.000  C
  C443     1.0000 0.19278  0.47700  0.34974  Biso   1.000  C
  C444     1.0000 0.86267  0.31373  0.48974  Biso   1.000  C
  C445     1.0000 0.02397  0.84341  0.19407  Biso   1.000  C
  C446     1.0000 0.19313  0.99752  0.84599  Biso   1.000  C
  C447     1.0000 0.87573  0.17869  0.00055  Biso   1.000  C
  C448     1.0000 0.52170  0.83475  0.33439  Biso   1.000  C
  C449     1.0000 0.69012  0.00187  0.66411  Biso   1.000  C
  C450     1.0000 0.36480  0.17159  0.48990  Biso   1.000  C
  C451     1.0000 0.51909  0.33468  0.17857  Biso   1.000  C
  C452     1.0000 0.33481  0.50651  0.85624  Biso   1.000  C
  C453     1.0000 0.66425  0.67559  0.02601  Biso   1.000  C
  C454     1.0000 0.02060  0.34026  0.31512  Biso   1.000  C
  C455     1.0000 0.83690  0.51535  0.65324  Biso   1.000  C
  C456     1.0000 0.17101  0.67018  0.50666  Biso   1.000  C
  C457     1.0000 0.01759  0.63855  0.32416  Biso   1.000  C
  C458     1.0000 0.32892  0.00499  0.64753  Biso   1.000  C
  C459     1.0000 0.66848  0.31630  0.00814  Biso   1.000  C
  C460     1.0000 0.51288  0.63328  0.19791  Biso   1.000  C
  C461     1.0000 0.82867  0.99298  0.86498  Biso   1.000  C
  C462     1.0000 0.15861  0.30894  0.50656  Biso   1.000  C
  C463     1.0000 0.52001  0.13073  0.31187  Biso   1.000  C
  C464     1.0000 0.19824  0.49415  0.65148  Biso   1.000  C
  C465     1.0000 0.86118  0.81795  0.02484  Biso   1.000  C
  C466     1.0000 0.03191  0.14377  0.17785  Biso   1.000  C
  C467     1.0000 0.69913  0.50134  0.85522  Biso   1.000  C
  C468     1.0000 0.36898  0.80797  0.49483  Biso   1.000  C
  C469     1.0000 0.98952  0.34129  0.67846  Biso   1.000  C
  C470     1.0000 0.70333  0.98135  0.36148  Biso   1.000  C
  C471     1.0000 0.36737  0.67701  0.01055  Biso   1.000  C
  C472     1.0000 0.50830  0.35500  0.81693  Biso   1.000  C
  C473     1.0000 0.20380  0.98191  0.14432  Biso   1.000  C
  C474     1.0000 0.86903  0.67890  0.50330  Biso   1.000  C
  C475     1.0000 0.50713  0.85689  0.69665  Biso   1.000  C
  C476     1.0000 0.82943  0.50673  0.35290  Biso   1.000  C
  C477     1.0000 0.17576  0.17443  0.99954  Biso   1.000  C
  C478     1.0000 0.02067  0.83737  0.82746  Biso   1.000  C
  C479     1.0000 0.33419  0.47739  0.15387  Biso   1.000  C
  C480     1.0000 0.66224  0.17560  0.49274  Biso   1.000  C
  C481     1.0000 0.38416  0.78055  0.49690  Biso   1.000  C
  C482     1.0000 0.50507  0.37158  0.79024  Biso   1.000  C
  C483     1.0000 0.80380  0.50742  0.37116  Biso   1.000  C
  C484     1.0000 0.87489  0.78987  0.02592  Biso   1.000  C
  C485     1.0000 0.98496  0.35616  0.70789  Biso   1.000  C
  C486     1.0000 0.30636  0.48200  0.13658  Biso   1.000  C
  C487     1.0000 0.14284  0.28164  0.50683  Biso   1.000  C
  C488     1.0000 0.02998  0.85168  0.80164  Biso   1.000  C
  C489     1.0000 0.72908  0.98328  0.37918  Biso   1.000  C
  C490     1.0000 0.65653  0.28758  0.00632  Biso   1.000  C
  C491     1.0000 0.50651  0.87584  0.72300  Biso   1.000  C
  C492     1.0000 0.23185  0.97831  0.12867  Biso   1.000  C
  C493     1.0000 0.64540  0.20112  0.48574  Biso   1.000  C
  C494     1.0000 0.51995  0.61574  0.22446  Biso   1.000  C
  C495     1.0000 0.22488  0.49995  0.63688  Biso   1.000  C
  C496     1.0000 0.15966  0.20198  0.99570  Biso   1.000  C
  C497     1.0000 0.01734  0.62365  0.29452  Biso   1.000  C
  C498     1.0000 0.72592  0.50244  0.87149  Biso   1.000  C
  C499     1.0000 0.88676  0.70599  0.50621  Biso   1.000  C
  C500     1.0000 0.03515  0.12792  0.20444  Biso   1.000  C
  C501     1.0000 0.30159  0.00090  0.63065  Biso   1.000  C
  C502     1.0000 0.38367  0.70386  0.01186  Biso   1.000  C
  C503     1.0000 0.51816  0.11322  0.28514  Biso   1.000  C
  C504     1.0000 0.80229  0.99557  0.88057  Biso   1.000  C
  C505     1.0000 0.65070  0.50336  0.79360  Biso   1.000  C
  C506     1.0000 0.81172  0.63038  0.48951  Biso   1.000  C
  C507     1.0000 0.51846  0.79237  0.65296  Biso   1.000  C
  C508     1.0000 0.14979  0.47645  0.71178  Biso   1.000  C
  C509     1.0000 0.30843  0.62771  0.01250  Biso   1.000  C
  C510     1.0000 0.00345  0.78076  0.87797  Biso   1.000  C
  C511     1.0000 0.87364  0.97741  0.80348  Biso   1.000  C
  C512     1.0000 0.72482  0.13083  0.50230  Biso   1.000  C
  C513     1.0000 0.99951  0.28435  0.62751  Biso   1.000  C
  C514     1.0000 0.37180  0.01638  0.71009  Biso   1.000  C
  C515     1.0000 0.23375  0.12466  0.00167  Biso   1.000  C
  C516     1.0000 0.51727  0.29448  0.86370  Biso   1.000  C
  C517     1.0000 0.38357  0.46180  0.21190  Biso   1.000  C
  C518     1.0000 0.22039  0.35458  0.50787  Biso   1.000  C
  C519     1.0000 0.51977  0.19496  0.35549  Biso   1.000  C
  C520     1.0000 0.88092  0.50947  0.29329  Biso   1.000  C
  C521     1.0000 0.72541  0.36611  0.01281  Biso   1.000  C
  C522     1.0000 0.02884  0.20171  0.12867  Biso   1.000  C
  C523     1.0000 0.15544  0.98097  0.20420  Biso   1.000  C
  C524     1.0000 0.30871  0.85628  0.49568  Biso   1.000  C
  C525     1.0000 0.01976  0.69784  0.37309  Biso   1.000  C
  C526     1.0000 0.65782  0.97764  0.29665  Biso   1.000  C
  C527     1.0000 0.80483  0.86946  0.02484  Biso   1.000  C
  C528     1.0000 0.50022  0.69478  0.15382  Biso   1.000  C
  C529     1.0000 0.81503  0.13271  0.01399  Biso   1.000  C
  C530     1.0000 0.02986  0.78681  0.14316  Biso   1.000  C
  C531     1.0000 0.14262  0.00731  0.79022  Biso   1.000  C
  C532     1.0000 0.30556  0.12066  0.48895  Biso   1.000  C
  C533     1.0000 0.52234  0.77787  0.38534  Biso   1.000  C
  C534     1.0000 0.63804  0.99622  0.72187  Biso   1.000  C
  C535     1.0000 0.72519  0.62952  0.01793  Biso   1.000  C
  C536     1.0000 0.51609  0.27641  0.12690  Biso   1.000  C
  C537     1.0000 0.38695  0.50331  0.79659  Biso   1.000  C
  C538     1.0000 0.22892  0.62061  0.49660  Biso   1.000  C
  C539     1.0000 0.03090  0.28480  0.36687  Biso   1.000  C
  C540     1.0000 0.88693  0.51670  0.71453  Biso   1.000  C
  C541     1.0000 0.21837  0.85536  0.98290  Biso   1.000  C
  C542     1.0000 0.00399  0.19796  0.86203  Biso   1.000  C
  C543     1.0000 0.89165  0.98156  0.22082  Biso   1.000  C
  C544     1.0000 0.72040  0.85949  0.50492  Biso   1.000  C
  C545     1.0000 0.51573  0.20772  0.62638  Biso   1.000  C
  C546     1.0000 0.39076  0.97123  0.28979  Biso   1.000  C
  C547     1.0000 0.31518  0.36043  0.01261  Biso   1.000  C
  C548     1.0000 0.52412  0.71039  0.88779  Biso   1.000  C
  C549     1.0000 0.64846  0.50041  0.21055  Biso   1.000  C
  C550     1.0000 0.80060  0.35999  0.50186  Biso   1.000  C
  C551     1.0000 0.02989  0.69963  0.64394  Biso   1.000  C
  C552     1.0000 0.14430  0.47653  0.28849  Biso   1.000  C
  C553     1.0000 0.99602  0.11875  0.79031  Biso   1.000  C
  C554     1.0000 0.81243  0.99019  0.14646  Biso   1.000  C
  C555     1.0000 0.14197  0.78337  0.99739  Biso   1.000  C
  C556     1.0000 0.51098  0.13830  0.70553  Biso   1.000  C
  C557     1.0000 0.30950  0.97942  0.36151  Biso   1.000  C
  C558     1.0000 0.64850  0.78456  0.52287  Biso   1.000  C
  C559     1.0000 0.51247  0.63737  0.80920  Biso   1.000  C
  C560     1.0000 0.72479  0.51493  0.13414  Biso   1.000  C
  C561     1.0000 0.39045  0.28685  0.99319  Biso   1.000  C
  C562     1.0000 0.04408  0.62156  0.71782  Biso   1.000  C
  C563     1.0000 0.21998  0.47889  0.36522  Biso   1.000  C
  C564     1.0000 0.87921  0.28701  0.48438  Biso   1.000  C
  C565     1.0000 0.02252  0.85815  0.22147  Biso   1.000  C
  C566     1.0000 0.22079  0.99544  0.86044  Biso   1.000  C
  C567     1.0000 0.89257  0.20391  0.99203  Biso   1.000  C
  C568     1.0000 0.52218  0.84813  0.30583  Biso   1.000  C
  C569     1.0000 0.71825  0.00381  0.65092  Biso   1.000  C
  C570     1.0000 0.38042  0.19940  0.48884  Biso   1.000  C
  C571     1.0000 0.51701  0.35058  0.20673  Biso   1.000  C
  C572     1.0000 0.30807  0.50596  0.87337  Biso   1.000  C
  C573     1.0000 0.64831  0.70103  0.03395  Biso   1.000  C
  C574     1.0000 0.01776  0.35398  0.28639  Biso   1.000  C
  C575     1.0000 0.80817  0.51653  0.63757  Biso   1.000  C
  C576     1.0000 0.15508  0.69749  0.51246  Biso   1.000  C
  C577     1.0000 0.30740  0.48877  0.10602  Biso   1.000  C
  C578     1.0000 0.11095  0.28299  0.50554  Biso   1.000  C
  C579     1.0000 0.51889  0.08160  0.28678  Biso   1.000  C
  C580     1.0000 0.80631  0.50322  0.40299  Biso   1.000  C
  C581     1.0000 0.62314  0.28818  0.00281  Biso   1.000  C
  C582     1.0000 0.03801  0.09567  0.20428  Biso   1.000  C
  C583     1.0000 0.23356  0.98160  0.09684  Biso   1.000  C
  C584     1.0000 0.41498  0.78185  0.50119  Biso   1.000  C
  C585     1.0000 0.01119  0.59265  0.29407  Biso   1.000  C
  C586     1.0000 0.72620  0.99014  0.41025  Biso   1.000  C
  C587     1.0000 0.90590  0.78804  0.02438  Biso   1.000  C
  C588     1.0000 0.51787  0.58469  0.22194  Biso   1.000  C
  C589     1.0000 0.72638  0.50573  0.90231  Biso   1.000  C
  C590     1.0000 0.91788  0.70323  0.50698  Biso   1.000  C
  C591     1.0000 0.50154  0.90622  0.71981  Biso   1.000  C
  C592     1.0000 0.22495  0.50229  0.60463  Biso   1.000  C
  C593     1.0000 0.41488  0.70255  0.01329  Biso   1.000  C
  C594     1.0000 0.03475  0.88296  0.80091  Biso   1.000  C
  C595     1.0000 0.80512  0.99592  0.91212  Biso   1.000  C
  C596     1.0000 0.61477  0.20027  0.48674  Biso   1.000  C
  C597     1.0000 0.98870  0.38712  0.71088  Biso   1.000  C
  C598     1.0000 0.30463  0.99736  0.59768  Biso   1.000  C
  C599     1.0000 0.12741  0.20077  0.99411  Biso   1.000  C
  C600     1.0000 0.50821  0.40248  0.79081  Biso   1.000  C
  C601     1.0000 0.22192  0.99624  0.89192  Biso   1.000  C
  C602     1.0000 0.92453  0.20240  0.99252  Biso   1.000  C
  C603     1.0000 0.02055  0.89089  0.22280  Biso   1.000  C
  C604     1.0000 0.72046  0.00551  0.61975  Biso   1.000  C
  C605     1.0000 0.41146  0.19985  0.48674  Biso   1.000  C
  C606     1.0000 0.52057  0.87954  0.30319  Biso   1.000  C
  C607     1.0000 0.30922  0.50424  0.90373  Biso   1.000  C
  C608     1.0000 0.61733  0.70142  0.03267  Biso   1.000  C
  C609     1.0000 0.51713  0.38198  0.20702  Biso   1.000  C
  C610     1.0000 0.81102  0.51506  0.60648  Biso   1.000  C
  C611     1.0000 0.12387  0.69726  0.51464  Biso   1.000  C
  C612     1.0000 0.01348  0.38513  0.28586  Biso   1.000  C
  C613     1.0000 0.81288  0.99619  0.11461  Biso   1.000  C
  C614     1.0000 0.11078  0.78497  0.99870  Biso   1.000  C
  C615     1.0000 0.99685  0.08661  0.79101  Biso   1.000  C
  C616     1.0000 0.30850  0.97928  0.39372  Biso   1.000  C
  C617     1.0000 0.61665  0.78396  0.52426  Biso   1.000  C
  C618     1.0000 0.51105  0.10603  0.70867  Biso   1.000  C
  C619     1.0000 0.72256  0.51029  0.10270  Biso   1.000  C
  C620     1.0000 0.42166  0.28757  0.98983  Biso   1.000  C
  C621     1.0000 0.51399  0.60646  0.80864  Biso   1.000  C
  C622     1.0000 0.21843  0.48111  0.39716  Biso   1.000  C
  C623     1.0000 0.91052  0.28852  0.48039  Biso   1.000  C
  C624     1.0000 0.04082  0.58956  0.71657  Biso   1.000  C
  C625     1.0000 0.00821  0.19882  0.89235  Biso   1.000  C
  C626     1.0000 0.92318  0.98435  0.21802  Biso   1.000  C
  C627     1.0000 0.21970  0.88806  0.98333  Biso   1.000  C
  C628     1.0000 0.51531  0.20587  0.59496  Biso   1.000  C
  C629     1.0000 0.42302  0.96980  0.29172  Biso   1.000  C
  C630     1.0000 0.72011  0.89128  0.50175  Biso   1.000  C
  C631     1.0000 0.52674  0.70887  0.91886  Biso   1.000  C
  C632     1.0000 0.61908  0.48883  0.21074  Biso   1.000  C
  C633     1.0000 0.31291  0.39120  0.01338  Biso   1.000  C
  C634     1.0000 0.02743  0.70160  0.61321  Biso   1.000  C
  C635     1.0000 0.11342  0.47368  0.28994  Biso   1.000  C
  C636     1.0000 0.79986  0.39183  0.50667  Biso   1.000  C
  C637     1.0000 0.02462  0.78819  0.11236  Biso   1.000  C
  C638     1.0000 0.11057  0.01004  0.79210  Biso   1.000  C
  C639     1.0000 0.81531  0.10125  0.01570  Biso   1.000  C
  C640     1.0000 0.51870  0.77950  0.41679  Biso   1.000  C
  C641     1.0000 0.60740  0.99241  0.71917  Biso   1.000  C
  C642     1.0000 0.30645  0.08963  0.48830  Biso   1.000  C
  C643     1.0000 0.51743  0.27845  0.09504  Biso   1.000  C
  C644     1.0000 0.41705  0.50217  0.79933  Biso   1.000  C
  C645     1.0000 0.72553  0.59890  0.01314  Biso   1.000  C
  C646     1.0000 0.02506  0.28556  0.39768  Biso   1.000  C
  C647     1.0000 0.91906  0.51363  0.71431  Biso   1.000  C
  C648     1.0000 0.22606  0.58864  0.49131  Biso   1.000  C
  C649     1.0000 0.02049  0.69817  0.40453  Biso   1.000  C
  C650     1.0000 0.40325  0.01516  0.71290  Biso   1.000  C
  C651     1.0000 0.72497  0.39821  0.00908  Biso   1.000  C
  C652     1.0000 0.50071  0.69473  0.12257  Biso   1.000  C
  C653     1.0000 0.90581  0.97327  0.80206  Biso   1.000  C
  C654     1.0000 0.22066  0.38663  0.51162  Biso   1.000  C
  C655     1.0000 0.52081  0.19429  0.38726  Biso   1.000  C
  C656     1.0000 0.11807  0.47270  0.70890  Biso   1.000  C
  C657     1.0000 0.80567  0.90036  0.01964  Biso   1.000  C
  C658     1.0000 0.02603  0.20227  0.09755  Biso   1.000  C
  C659     1.0000 0.61966  0.50230  0.79422  Biso   1.000  C
  C660     1.0000 0.30856  0.88757  0.50042  Biso   1.000  C
  C661     1.0000 0.00413  0.28505  0.59551  Biso   1.000  C
  C662     1.0000 0.62672  0.97757  0.29674  Biso   1.000  C
  C663     1.0000 0.30888  0.59638  0.01437  Biso   1.000  C
  C664     1.0000 0.52175  0.29371  0.89467  Biso   1.000  C
  C665     1.0000 0.12441  0.97896  0.20484  Biso   1.000  C
  C666     1.0000 0.81199  0.59929  0.48871  Biso   1.000  C
  C667     1.0000 0.51928  0.79221  0.62197  Biso   1.000  C
  C668     1.0000 0.91122  0.50387  0.29369  Biso   1.000  C
  C669     1.0000 0.23401  0.09259  0.00469  Biso   1.000  C
  C670     1.0000 0.00104  0.78307  0.90930  Biso   1.000  C
  C671     1.0000 0.41552  0.46529  0.21188  Biso   1.000  C
  C672     1.0000 0.72421  0.09953  0.50271  Biso   1.000  C
  C673     1.0000 0.20553  0.00233  0.80006  Biso   1.000  C
  C674     1.0000 0.82879  0.19375  0.00741  Biso   1.000  C
  C675     1.0000 0.02633  0.79483  0.20464  Biso   1.000  C
  C676     1.0000 0.70049  0.99768  0.71283  Biso   1.000  C
  C677     1.0000 0.31744  0.18734  0.49083  Biso   1.000  C
  C678     1.0000 0.52138  0.78749  0.32235  Biso   1.000  C
  C679     1.0000 0.32342  0.50481  0.80847  Biso   1.000  C
  C680     1.0000 0.71006  0.69325  0.02361  Biso   1.000  C
  C681     1.0000 0.51867  0.28747  0.18758  Biso   1.000  C
  C682     1.0000 0.82429  0.51933  0.69962  Biso   1.000  C
  C683     1.0000 0.21730  0.68411  0.50049  Biso   1.000  C
  C684     1.0000 0.03427  0.29492  0.30201  Biso   1.000  C
  C685     1.0000 0.82868  0.97524  0.20829  Biso   1.000  C
  C686     1.0000 0.20397  0.79410  0.99216  Biso   1.000  C
  C687     1.0000 0.99425  0.18245  0.79984  Biso   1.000  C
  C688     1.0000 0.32594  0.97534  0.29805  Biso   1.000  C
  C689     1.0000 0.71109  0.79823  0.50865  Biso   1.000  C
  C690     1.0000 0.51258  0.19755  0.68935  Biso   1.000  C
  C691     1.0000 0.71092  0.51160  0.19863  Biso   1.000  C
  C692     1.0000 0.32705  0.30033  0.00382  Biso   1.000  C
  C693     1.0000 0.51639  0.70156  0.82293  Biso   1.000  C
  C694     1.0000 0.20723  0.47093  0.30305  Biso   1.000  C
  C695     1.0000 0.81685  0.29827  0.49372  Biso   1.000  C
  C696     1.0000 0.03297  0.68522  0.70588  Biso   1.000  C
  C697     1.0000 0.72114  0.97561  0.31612  Biso   1.000  C
  C698     1.0000 0.32055  0.69214  0.00992  Biso   1.000  C
  C699     1.0000 0.98656  0.29522  0.69030  Biso   1.000  C
  C700     1.0000 0.21656  0.98372  0.19078  Biso   1.000  C
  C701     1.0000 0.82246  0.69077  0.49986  Biso   1.000  C
  C702     1.0000 0.50675  0.30696  0.80073  Biso   1.000  C
  C703     1.0000 0.81627  0.51081  0.30622  Biso   1.000  C
  C704     1.0000 0.22362  0.18769  0.00376  Biso   1.000  C
  C705     1.0000 0.51230  0.81231  0.71472  Biso   1.000  C
  C706     1.0000 0.31848  0.46600  0.19834  Biso   1.000  C
  C707     1.0000 0.70873  0.19127  0.49580  Biso   1.000  C
  C708     1.0000 0.01831  0.79118  0.81403  Biso   1.000  C
  C709     1.0000 0.31164  0.00891  0.69288  Biso   1.000  C
  C710     1.0000 0.71661  0.30473  0.00699  Biso   1.000  C
  C711     1.0000 0.02351  0.68389  0.30939  Biso   1.000  C
  C712     1.0000 0.81194  0.98687  0.81834  Biso   1.000  C
  C713     1.0000 0.20515  0.29339  0.50545  Biso   1.000  C
  C714     1.0000 0.51111  0.67906  0.21436  Biso   1.000  C
  C715     1.0000 0.21268  0.49324  0.69953  Biso   1.000  C
  C716     1.0000 0.81600  0.80452  0.02746  Biso   1.000  C
  C717     1.0000 0.52214  0.17755  0.29632  Biso   1.000  C
  C718     1.0000 0.71232  0.50570  0.80777  Biso   1.000  C
  C719     1.0000 0.32232  0.79289  0.49375  Biso   1.000  C
  C720     1.0000 0.03289  0.19145  0.19069  Biso   1.000  C
  C721     1.0000 0.53870  0.78826  0.29577  Biso   1.000  C
  C722     1.0000 0.32687  0.52000  0.78014  Biso   1.000  C
  C723     1.0000 0.79197  0.29925  0.51327  Biso   1.000  C
  C724     1.0000 0.01292  0.76737  0.19919  Biso   1.000  C
  C725     1.0000 0.79806  0.53749  0.69640  Biso   1.000  C
  C726     1.0000 0.29821  0.30404  0.99325  Biso   1.000  C
  C727     1.0000 0.02410  0.26557  0.30335  Biso   1.000  C
  C728     1.0000 0.23437  0.01741  0.80309  Biso   1.000  C
  C729     1.0000 0.74103  0.80419  0.51584  Biso   1.000  C
  C730     1.0000 0.49473  0.28156  0.20761  Biso   1.000  C
  C731     1.0000 0.72423  0.97613  0.71130  Biso   1.000  C
  C732     1.0000 0.22916  0.79237  0.97259  Biso   1.000  C
  C733     1.0000 0.49171  0.19783  0.71242  Biso   1.000  C
  C734     1.0000 0.70802  0.49300  0.22440  Biso   1.000  C
  C735     1.0000 0.21169  0.71085  0.48496  Biso   1.000  C
  C736     1.0000 0.97759  0.20902  0.80411  Biso   1.000  C
  C737     1.0000 0.22998  0.44917  0.30884  Biso   1.000  C
  C738     1.0000 0.73671  0.68944  0.04059  Biso   1.000  C
  C739     1.0000 0.05456  0.68822  0.72884  Biso   1.000  C
  C740     1.0000 0.80014  0.96116  0.20102  Biso   1.000  C
  C741     1.0000 0.28909  0.18292  0.47745  Biso   1.000  C
  C742     1.0000 0.52686  0.69946  0.79313  Biso   1.000  C
  C743     1.0000 0.29966  0.96058  0.30213  Biso   1.000  C
  C744     1.0000 0.83281  0.22120  0.02334  Biso   1.000  C
  C745     1.0000 0.04526  0.70656  0.31087  Biso   1.000  C
  C746     1.0000 0.28560  0.02660  0.68703  Biso   1.000  C
  C747     1.0000 0.74139  0.30747  0.02558  Biso   1.000  C
  C748     1.0000 0.52562  0.70687  0.20985  Biso   1.000  C
  C749     1.0000 0.80870  0.96350  0.79649  Biso   1.000  C
  C750     1.0000 0.22985  0.29519  0.52355  Biso   1.000  C
  C751     1.0000 0.53988  0.17544  0.27087  Biso   1.000  C
  C752     1.0000 0.24308  0.48543  0.69403  Biso   1.000  C
  C753     1.0000 0.79188  0.80639  0.00953  Biso   1.000  C
  C754     1.0000 0.05609  0.18733  0.21194  Biso   1.000  C
  C755     1.0000 0.71020  0.49529  0.77727  Biso   1.000  C
  C756     1.0000 0.29433  0.79622  0.50983  Biso   1.000  C
  C757     1.0000 0.97042  0.26882  0.68585  Biso   1.000  C
  C758     1.0000 0.72178  0.99198  0.28952  Biso   1.000  C
  C759     1.0000 0.29456  0.68829  0.02684  Biso   1.000  C
  C760     1.0000 0.52182  0.31205  0.77334  Biso   1.000  C
  C761     1.0000 0.24331  0.99961  0.18765  Biso   1.000  C
  C762     1.0000 0.82509  0.71883  0.48545  Biso   1.000  C
  C763     1.0000 0.49116  0.81241  0.73807  Biso   1.000  C
  C764     1.0000 0.78797  0.52573  0.31104  Biso   1.000  C
  C765     1.0000 0.24915  0.18519  0.02268  Biso   1.000  C
  C766     1.0000 0.00869  0.79665  0.78400  Biso   1.000  C
  C767     1.0000 0.31959  0.47624  0.22895  Biso   1.000  C
  C768     1.0000 0.71062  0.21125  0.47136  Biso   1.000  C
  C769     1.0000 0.50375  0.72870  0.83066  Biso   1.000  C
  C770     1.0000 0.82525  0.50661  0.72894  Biso   1.000  C
  C771     1.0000 0.70329  0.76954  0.49703  Biso   1.000  C
  C772     1.0000 0.01023  0.70639  0.70381  Biso   1.000  C
  C773     1.0000 0.29533  0.48919  0.81269  Biso   1.000  C
  C774     1.0000 0.20256  0.77096  0.01458  Biso   1.000  C
  C775     1.0000 0.00778  0.18009  0.77117  Biso   1.000  C
  C776     1.0000 0.69988  0.01217  0.74047  Biso   1.000  C
  C777     1.0000 0.81763  0.27556  0.47155  Biso   1.000  C
  C778     1.0000 0.53270  0.22231  0.69003  Biso   1.000  C
  C779     1.0000 0.19990  0.99044  0.77057  Biso   1.000  C
  C780     1.0000 0.33497  0.27188  0.01636  Biso   1.000  C
  C781     1.0000 0.54193  0.26613  0.18801  Biso   1.000  C
  C782     1.0000 0.20627  0.48439  0.27369  Biso   1.000  C
  C783     1.0000 0.32186  0.21422  0.50734  Biso   1.000  C
  C784     1.0000 0.05004  0.30180  0.27504  Biso   1.000  C
  C785     1.0000 0.73605  0.53005  0.19495  Biso   1.000  C
  C786     1.0000 0.80190  0.19058  0.99043  Biso   1.000  C
  C787     1.0000 0.04074  0.79752  0.23312  Biso   1.000  C
  C788     1.0000 0.33071  0.99196  0.27074  Biso   1.000  C
  C789     1.0000 0.24540  0.67919  0.51342  Biso   1.000  C
  C790     1.0000 0.50331  0.76298  0.32830  Biso   1.000  C
  C791     1.0000 0.83414  0.98259  0.23838  Biso   1.000  C
  C792     1.0000 0.70660  0.71876  0.00397  Biso   1.000  C
  C793     1.0000 0.50611  0.20436  0.29849  Biso   1.000  C
  C794     1.0000 0.29066  0.45250  0.19011  Biso   1.000  C
  C795     1.0000 0.20139  0.26765  0.48794  Biso   1.000  C
  C796     1.0000 0.01374  0.21785  0.19208  Biso   1.000  C
  C797     1.0000 0.81999  0.49618  0.27684  Biso   1.000  C
  C798     1.0000 0.71404  0.27847  0.98902  Biso   1.000  C
  C799     1.0000 0.00305  0.68532  0.28549  Biso   1.000  C
  C800     1.0000 0.21352  0.96640  0.21707  Biso   1.000  C
  C801     1.0000 0.32593  0.76711  0.47668  Biso   1.000  C
  C802     1.0000 0.49767  0.67538  0.24240  Biso   1.000  C
  C803     1.0000 0.74602  0.95652  0.32230  Biso   1.000  C
  C804     1.0000 0.81813  0.77911  0.04689  Biso   1.000  C
  C805     1.0000 0.53689  0.79176  0.71699  Biso   1.000  C
  C806     1.0000 0.73823  0.52352  0.81373  Biso   1.000  C
  C807     1.0000 0.79456  0.68503  0.51434  Biso   1.000  C
  C808     1.0000 0.03142  0.76392  0.81975  Biso   1.000  C
  C809     1.0000 0.20598  0.50480  0.72784  Biso   1.000  C
  C810     1.0000 0.32289  0.71847  0.99180  Biso   1.000  C
  C811     1.0000 0.00470  0.29622  0.71696  Biso   1.000  C
  C812     1.0000 0.78960  0.01006  0.81845  Biso   1.000  C
  C813     1.0000 0.73175  0.19236  0.51672  Biso   1.000  C
  C814     1.0000 0.49332  0.27834  0.80642  Biso   1.000  C
  C815     1.0000 0.31549  0.98983  0.71871  Biso   1.000  C
  C816     1.0000 0.22241  0.21301  0.98485  Biso   1.000  C
  C817     1.0000 0.97400  0.22925  0.78232  Biso   1.000  C
  C818     1.0000 0.77990  0.95728  0.22401  Biso   1.000  C
  C819     1.0000 0.25040  0.77236  0.97610  Biso   1.000  C
  C820     1.0000 0.49188  0.21955  0.73336  Biso   1.000  C
  C821     1.0000 0.27889  0.96092  0.28151  Biso   1.000  C
  C822     1.0000 0.76047  0.78156  0.51480  Biso   1.000  C
  C823     1.0000 0.52534  0.72220  0.77347  Biso   1.000  C
  C824     1.0000 0.73092  0.49411  0.24500  Biso   1.000  C
  C825     1.0000 0.27809  0.28192  0.99572  Biso   1.000  C
  C826     1.0000 0.05266  0.70921  0.75049  Biso   1.000  C
  C827     1.0000 0.24884  0.44160  0.28623  Biso   1.000  C
  C828     1.0000 0.76996  0.27896  0.51000  Biso   1.000  C
  C829     1.0000 0.01481  0.74450  0.21795  Biso   1.000  C
  C830     1.0000 0.25344  0.01996  0.77951  Biso   1.000  C
  C831     1.0000 0.80971  0.24192  0.02264  Biso   1.000  C
  C832     1.0000 0.53573  0.76572  0.27701  Biso   1.000  C
  C833     1.0000 0.74650  0.97199  0.73037  Biso   1.000  C
  C834     1.0000 0.26572  0.20157  0.48361  Biso   1.000  C
  C835     1.0000 0.49494  0.25854  0.22695  Biso   1.000  C
  C836     1.0000 0.30571  0.51711  0.75997  Biso   1.000  C
  C837     1.0000 0.75801  0.71016  0.04090  Biso   1.000  C
  C838     1.0000 0.03012  0.24490  0.28121  Biso   1.000  C
  C839     1.0000 0.77674  0.53709  0.71690  Biso   1.000  C
  C840     1.0000 0.23318  0.73043  0.48087  Biso   1.000  C
  C841     1.0000 0.22045  0.99275  0.74780  Biso   1.000  C
  C842     1.0000 0.77981  0.21232  0.99300  Biso   1.000  C
  C843     1.0000 0.04195  0.77395  0.25195  Biso   1.000  C
  C844     1.0000 0.71915  0.00554  0.76138  Biso   1.000  C
  C845     1.0000 0.29852  0.23429  0.50913  Biso   1.000  C
  C846     1.0000 0.49886  0.74245  0.30639  Biso   1.000  C
  C847     1.0000 0.27466  0.48948  0.79108  Biso   1.000  C
  C848     1.0000 0.72808  0.73962  0.00533  Biso   1.000  C
  C849     1.0000 0.54257  0.24386  0.20727  Biso   1.000  C
  C850     1.0000 0.80448  0.50743  0.74984  Biso   1.000  C
  C851     1.0000 0.26620  0.69931  0.50996  Biso   1.000  C
  C852     1.0000 0.05339  0.28233  0.25239  Biso   1.000  C
  C853     1.0000 0.81244  0.97664  0.25974  Biso   1.000  C
  C854     1.0000 0.22530  0.75101  0.01698  Biso   1.000  C
  C855     1.0000 0.00313  0.20170  0.74930  Biso   1.000  C
  C856     1.0000 0.30865  0.99369  0.25090  Biso   1.000  C
  C857     1.0000 0.72525  0.74889  0.49910  Biso   1.000  C
  C858     1.0000 0.53238  0.24336  0.71210  Biso   1.000  C
  C859     1.0000 0.75591  0.53258  0.21689  Biso   1.000  C
  C860     1.0000 0.31477  0.25004  0.01694  Biso   1.000  C
  C861     1.0000 0.50364  0.75176  0.81075  Biso   1.000  C
  C862     1.0000 0.22734  0.47550  0.25333  Biso   1.000  C
  C863     1.0000 0.79630  0.25373  0.47099  Biso   1.000  C
  C864     1.0000 0.00764  0.72690  0.72617  Biso   1.000  C
  C865     1.0000 0.73191  0.50327  0.75658  Biso   1.000  C
  C866     1.0000 0.80224  0.73956  0.48677  Biso   1.000  C
  C867     1.0000 0.49144  0.79438  0.76258  Biso   1.000  C
  C868     1.0000 0.26406  0.49081  0.71527  Biso   1.000  C
  C869     1.0000 0.27079  0.70774  0.02330  Biso   1.000  C
  C870     1.0000 0.01052  0.77670  0.76329  Biso   1.000  C
  C871     1.0000 0.78426  0.96242  0.77867  Biso   1.000  C
  C872     1.0000 0.73042  0.23164  0.46952  Biso   1.000  C
  C873     1.0000 0.96889  0.24779  0.70775  Biso   1.000  C
  C874     1.0000 0.26499  0.02483  0.70797  Biso   1.000  C
  C875     1.0000 0.26908  0.20662  0.02115  Biso   1.000  C
  C876     1.0000 0.52115  0.28974  0.75290  Biso   1.000  C
  C877     1.0000 0.29762  0.46891  0.24800  Biso   1.000  C
  C878     1.0000 0.25024  0.27456  0.51926  Biso   1.000  C
  C879     1.0000 0.54064  0.19556  0.24912  Biso   1.000  C
  C880     1.0000 0.76779  0.52747  0.28981  Biso   1.000  C
  C881     1.0000 0.76281  0.28563  0.02553  Biso   1.000  C
  C882     1.0000 0.05752  0.20740  0.23396  Biso   1.000  C
  C883     1.0000 0.26478  0.99768  0.20786  Biso   1.000  C
  C884     1.0000 0.27431  0.77447  0.50876  Biso   1.000  C
  C885     1.0000 0.04642  0.72674  0.28917  Biso   1.000  C
  C886     1.0000 0.74369  0.98698  0.26993  Biso   1.000  C
  C887     1.0000 0.77256  0.78470  0.00719  Biso   1.000  C
  C888     1.0000 0.52319  0.72827  0.23095  Biso   1.000  C
  C889     1.0000 0.76752  0.95129  0.30212  Biso   1.000  C
  C890     1.0000 0.29927  0.73877  0.99174  Biso   1.000  C
  C891     1.0000 0.00072  0.27498  0.73794  Biso   1.000  C
  C892     1.0000 0.23499  0.96604  0.23699  Biso   1.000  C
  C893     1.0000 0.77209  0.70578  0.51364  Biso   1.000  C
  C894     1.0000 0.49473  0.25746  0.78513  Biso   1.000  C
  C895     1.0000 0.79973  0.50040  0.25619  Biso   1.000  C
  C896     1.0000 0.24158  0.23511  0.98493  Biso   1.000  C
  C897     1.0000 0.53569  0.77270  0.74060  Biso   1.000  C
  C898     1.0000 0.26865  0.45005  0.21001  Biso   1.000  C
  C899     1.0000 0.75247  0.21420  0.51475  Biso   1.000  C
  C900     1.0000 0.03513  0.74429  0.79702  Biso   1.000  C
  C901     1.0000 0.29382  0.99096  0.73991  Biso   1.000  C
  C902     1.0000 0.73691  0.25805  0.98823  Biso   1.000  C
  C903     1.0000 0.00447  0.70508  0.26347  Biso   1.000  C
  C904     1.0000 0.76629  0.00881  0.79853  Biso   1.000  C
  C905     1.0000 0.22378  0.24875  0.48447  Biso   1.000  C
  C906     1.0000 0.49874  0.69700  0.26406  Biso   1.000  C
  C907     1.0000 0.22808  0.50705  0.74904  Biso   1.000  C
  C908     1.0000 0.79524  0.75866  0.04601  Biso   1.000  C
  C909     1.0000 0.50670  0.22508  0.27773  Biso   1.000  C
  C910     1.0000 0.75890  0.52844  0.79218  Biso   1.000  C
  C911     1.0000 0.30469  0.74565  0.47761  Biso   1.000  C
  C912     1.0000 0.02180  0.24053  0.21007  Biso   1.000  C
  C913     1.0000 0.77985  0.52148  0.74280  Biso   1.000  C
  C914     1.0000 0.75361  0.75604  0.50380  Biso   1.000  C
  C915     1.0000 0.51510  0.74868  0.78237  Biso   1.000  C
  C916     1.0000 0.27887  0.50373  0.76584  Biso   1.000  C
  C917     1.0000 0.24997  0.75276  0.99937  Biso   1.000  C
  C918     1.0000 0.02976  0.72878  0.74808  Biso   1.000  C
  C919     1.0000 0.74330  0.98698  0.75674  Biso   1.000  C
  C920     1.0000 0.77206  0.25570  0.48996  Biso   1.000  C
  C921     1.0000 0.98603  0.22581  0.75536  Biso   1.000  C
  C922     1.0000 0.24633  0.00807  0.75336  Biso   1.000  C
  C923     1.0000 0.28702  0.25507  0.00669  Biso   1.000  C
  C924     1.0000 0.51164  0.24188  0.73373  Biso   1.000  C
  C925     1.0000 0.24838  0.45517  0.25861  Biso   1.000  C
  C926     1.0000 0.27134  0.22785  0.49785  Biso   1.000  C
  C927     1.0000 0.52039  0.24115  0.22825  Biso   1.000  C
  C928     1.0000 0.75224  0.51471  0.24097  Biso   1.000  C
  C929     1.0000 0.78391  0.23847  0.00742  Biso   1.000  C
  C930     1.0000 0.04283  0.25464  0.25611  Biso   1.000  C
  C931     1.0000 0.28354  0.97630  0.25502  Biso   1.000  C
  C932     1.0000 0.25847  0.72573  0.49573  Biso   1.000  C
  C933     1.0000 0.02822  0.74870  0.24484  Biso   1.000  C
  C934     1.0000 0.78703  0.96356  0.25271  Biso   1.000  C
  C935     1.0000 0.75157  0.73572  0.02468  Biso   1.000  C
  C936     1.0000 0.51434  0.74580  0.28083  Biso   1.000  C
  C937     1.0000 0.75986  0.26035  0.00908  Biso   1.000  C
  C938     1.0000 0.02585  0.72574  0.26593  Biso   1.000  C
  C939     1.0000 0.27014  0.00914  0.73355  Biso   1.000  C
  C940     1.0000 0.24803  0.25054  0.50138  Biso   1.000  C
  C941     1.0000 0.51278  0.72275  0.25882  Biso   1.000  C
  C942     1.0000 0.76457  0.98485  0.77935  Biso   1.000  C
  C943     1.0000 0.77342  0.75986  0.02539  Biso   1.000  C
  C944     1.0000 0.52230  0.22124  0.25230  Biso   1.000  C
  C945     1.0000 0.25687  0.50186  0.74204  Biso   1.000  C
  C946     1.0000 0.28031  0.74839  0.49443  Biso   1.000  C
  C947     1.0000 0.04315  0.23460  0.23167  Biso   1.000  C
  C948     1.0000 0.75576  0.51908  0.76387  Biso   1.000  C
  C949     1.0000 0.27273  0.73251  0.00572  Biso   1.000  C
  C950     1.0000 0.98332  0.25042  0.73417  Biso   1.000  C
  C951     1.0000 0.76436  0.96427  0.27509  Biso   1.000  C
  C952     1.0000 0.77537  0.73261  0.49821  Biso   1.000  C
  C953     1.0000 0.50870  0.26287  0.75863  Biso   1.000  C
  C954     1.0000 0.25992  0.98262  0.23483  Biso   1.000  C
  C955     1.0000 0.26563  0.23154  0.00310  Biso   1.000  C
  C956     1.0000 0.51403  0.77324  0.76222  Biso   1.000  C
  C957     1.0000 0.77454  0.51505  0.26292  Biso   1.000  C
  C958     1.0000 0.75072  0.23335  0.49153  Biso   1.000  C
  C959     1.0000 0.02620  0.75093  0.76974  Biso   1.000  C
  C960     1.0000 0.27390  0.45447  0.23941  Biso   1.000  C
  Cu1      1.0000 0.01782  0.48875  0.65889  Biso   1.000  Cu
  Cu2      1.0000 0.67096  0.99656  0.51090  Biso   1.000  Cu
  Cu3      1.0000 0.51777  0.64659  0.01597  Biso   1.000  Cu
  Cu4      1.0000 0.51860  0.50110  0.85512  Biso   1.000  Cu
  Cu5      1.0000 0.17103  0.99164  0.99507  Biso   1.000  Cu
  Cu6      1.0000 0.02168  0.64502  0.50765  Biso   1.000  Cu
  Cu7      1.0000 0.50664  0.00366  0.66239  Biso   1.000  Cu
  Cu8      1.0000 0.86188  0.49503  0.50224  Biso   1.000  Cu
  Cu9      1.0000 0.02431  0.14823  0.99402  Biso   1.000  Cu
  Cu10     1.0000 0.01232  0.98728  0.84923  Biso   1.000  Cu
  Cu11     1.0000 0.36372  0.49527  0.00448  Biso   1.000  Cu
  Cu12     1.0000 0.51526  0.14739  0.49250  Biso   1.000  Cu
  Cu13     1.0000 0.01071  0.48648  0.34467  Biso   1.000  Cu
  Cu14     1.0000 0.36138  0.98824  0.49907  Biso   1.000  Cu
  Cu15     1.0000 0.52204  0.34068  0.99860  Biso   1.000  Cu
  Cu16     1.0000 0.51764  0.48444  0.15905  Biso   1.000  Cu
  Cu17     1.0000 0.86542  0.99855  0.01160  Biso   1.000  Cu
  Cu18     1.0000 0.01153  0.34242  0.49605  Biso   1.000  Cu
  Cu19     1.0000 0.52231  0.98344  0.34744  Biso   1.000  Cu
  Cu20     1.0000 0.16769  0.48967  0.50232  Biso   1.000  Cu
  Cu21     1.0000 0.01047  0.84096  0.01024  Biso   1.000  Cu
  Cu22     1.0000 0.02140  0.99003  0.15792  Biso   1.000  Cu
  Cu23     1.0000 0.67321  0.49909  0.00211  Biso   1.000  Cu
  Cu24     1.0000 0.51361  0.83793  0.51589  Biso   1.000  Cu
  Cu25     1.0000 0.22548  0.99090  0.99236  Biso   1.000  Cu
  Cu26     1.0000 0.02306  0.20322  0.99726  Biso   1.000  Cu
  Cu27     1.0000 0.02517  0.99436  0.21302  Biso   1.000  Cu
  Cu28     1.0000 0.72367  0.99474  0.51350  Biso   1.000  Cu
  Cu29     1.0000 0.51489  0.20016  0.48985  Biso   1.000  Cu
  Cu30     1.0000 0.52522  0.97891  0.29463  Biso   1.000  Cu
  Cu31     1.0000 0.30854  0.49384  0.00635  Biso   1.000  Cu
  Cu32     1.0000 0.51697  0.69957  0.02047  Biso   1.000  Cu
  Cu33     1.0000 0.51906  0.48031  0.21444  Biso   1.000  Cu
  Cu34     1.0000 0.80746  0.49739  0.50499  Biso   1.000  Cu
  Cu35     1.0000 0.02161  0.69880  0.50840  Biso   1.000  Cu
  Cu36     1.0000 0.01091  0.48778  0.29089  Biso   1.000  Cu
  Cu37     1.0000 0.81013  0.00066  0.01518  Biso   1.000  Cu
  Cu38     1.0000 0.00950  0.78814  0.01132  Biso   1.000  Cu
  Cu39     1.0000 0.00864  0.98511  0.79583  Biso   1.000  Cu
  Cu40     1.0000 0.30837  0.98994  0.49739  Biso   1.000  Cu
  Cu41     1.0000 0.51523  0.78318  0.51803  Biso   1.000  Cu
  Cu42     1.0000 0.50652  0.00527  0.71791  Biso   1.000  Cu
  Cu43     1.0000 0.72643  0.49771  0.00284  Biso   1.000  Cu
  Cu44     1.0000 0.52485  0.28787  0.99365  Biso   1.000  Cu
  Cu45     1.0000 0.51773  0.50758  0.79860  Biso   1.000  Cu
  Cu46     1.0000 0.22059  0.48700  0.50327  Biso   1.000  Cu
  Cu47     1.0000 0.00951  0.28840  0.49650  Biso   1.000  Cu
  Cu48     1.0000 0.01862  0.48945  0.71249  Biso   1.000  Cu
  H1       1.0000 0.25337  0.77652  0.51962  Biso   1.000  H
  H2       1.0000 0.53334  0.29321  0.73318  Biso   1.000  H
  H3       1.0000 0.74798  0.53887  0.29415  Biso   1.000  H
  H4       1.0000 0.75476  0.78823  0.99057  Biso   1.000  H
  H5       1.0000 0.95808  0.22651  0.70352  Biso   1.000  H
  H6       1.0000 0.29684  0.47710  0.27111  Biso   1.000  H
  H7       1.0000 0.26852  0.27713  0.53521  Biso   1.000  H
  H8       1.0000 0.00513  0.78422  0.74179  Biso   1.000  H
  H9       1.0000 0.74362  0.00113  0.25026  Biso   1.000  H
  H10      1.0000 0.77941  0.29022  0.04090  Biso   1.000  H
  H11      1.0000 0.47421  0.79486  0.77936  Biso   1.000  H
  H12      1.0000 0.28459  0.00924  0.20147  Biso   1.000  H
  H13      1.0000 0.73059  0.24820  0.45289  Biso   1.000  H
  H14      1.0000 0.53218  0.74955  0.22629  Biso   1.000  H
  H15      1.0000 0.28693  0.48754  0.71050  Biso   1.000  H
  H16      1.0000 0.28856  0.20485  0.03430  Biso   1.000  H
  H17      1.0000 0.06400  0.74308  0.29324  Biso   1.000  H
  H18      1.0000 0.72933  0.49890  0.73394  Biso   1.000  H
  H19      1.0000 0.80631  0.76093  0.47677  Biso   1.000  H
  H20      1.0000 0.07243  0.20347  0.25116  Biso   1.000  H
  H21      1.0000 0.24570  0.03966  0.70511  Biso   1.000  H
  H22      1.0000 0.25106  0.70026  0.03424  Biso   1.000  H
  H23      1.0000 0.55299  0.19158  0.22889  Biso   1.000  H
  H24      1.0000 0.77993  0.94343  0.76692  Biso   1.000  H
  H25      1.0000 0.27387  0.03131  0.78318  Biso   1.000  H
  H26      1.0000 0.81401  0.26173  0.03507  Biso   1.000  H
  H27      1.0000 0.00595  0.72470  0.21079  Biso   1.000  H
  H28      1.0000 0.76491  0.95762  0.72496  Biso   1.000  H
  H29      1.0000 0.24424  0.19303  0.47702  Biso   1.000  H
  H30      1.0000 0.55015  0.76301  0.25929  Biso   1.000  H
  H31      1.0000 0.30786  0.52753  0.73908  Biso   1.000  H
  H32      1.0000 0.77737  0.70811  0.05468  Biso   1.000  H
  H33      1.0000 0.47357  0.25299  0.23926  Biso   1.000  H
  H34      1.0000 0.75777  0.55076  0.71452  Biso   1.000  H
  H35      1.0000 0.22892  0.74879  0.46700  Biso   1.000  H
  H36      1.0000 0.02042  0.22333  0.28362  Biso   1.000  H
  H37      1.0000 0.75997  0.94450  0.22192  Biso   1.000  H
  H38      1.0000 0.26880  0.77208  0.96200  Biso   1.000  H
  H39      1.0000 0.96102  0.24799  0.78573  Biso   1.000  H
  H40      1.0000 0.25825  0.95084  0.28671  Biso   1.000  H
  H41      1.0000 0.78374  0.78597  0.51946  Biso   1.000  H
  H42      1.0000 0.47578  0.21774  0.75146  Biso   1.000  H
  H43      1.0000 0.72968  0.48180  0.26516  Biso   1.000  H
  H44      1.0000 0.25578  0.28581  0.98949  Biso   1.000  H
  H45      1.0000 0.53568  0.71821  0.75341  Biso   1.000  H
  H46      1.0000 0.26652  0.42571  0.29082  Biso   1.000  H
  H47      1.0000 0.74986  0.28410  0.52254  Biso   1.000  H
  H48      1.0000 0.06779  0.70962  0.76792  Biso   1.000  H
  H49      1.0000 0.22717  0.48596  0.23222  Biso   1.000  H
  H50      1.0000 0.30089  0.25368  0.52185  Biso   1.000  H
  H51      1.0000 0.56234  0.23067  0.20730  Biso   1.000  H
  H52      1.0000 0.77055  0.54947  0.21675  Biso   1.000  H
  H53      1.0000 0.76016  0.20972  0.98128  Biso   1.000  H
  H54      1.0000 0.06233  0.28969  0.23120  Biso   1.000  H
  H55      1.0000 0.31246  0.00592  0.23100  Biso   1.000  H
  H56      1.0000 0.28733  0.69691  0.52149  Biso   1.000  H
  H57      1.0000 0.05368  0.77874  0.27243  Biso   1.000  H
  H58      1.0000 0.81601  0.98011  0.28332  Biso   1.000  H
  H59      1.0000 0.72560  0.75758  0.99109  Biso   1.000  H
  H60      1.0000 0.48359  0.72571  0.31159  Biso   1.000  H
  H61      1.0000 0.80616  0.49400  0.76911  Biso   1.000  H
  H62      1.0000 0.71962  0.72590  0.49155  Biso   1.000  H
  H63      1.0000 0.49503  0.77217  0.81987  Biso   1.000  H
  H64      1.0000 0.25380  0.48121  0.79595  Biso   1.000  H
  H65      1.0000 0.22195  0.73251  0.03160  Biso   1.000  H
  H66      1.0000 0.99102  0.74432  0.72449  Biso   1.000  H
  H67      1.0000 0.71516  0.01415  0.78394  Biso   1.000  H
  H68      1.0000 0.79821  0.23599  0.45727  Biso   1.000  H
  H69      1.0000 0.01186  0.20336  0.72844  Biso   1.000  H
  H70      1.0000 0.21374  0.98594  0.72643  Biso   1.000  H
  H71      1.0000 0.32060  0.22918  0.02675  Biso   1.000  H
  H72      1.0000 0.54834  0.25983  0.71044  Biso   1.000  H
  H73      1.0000 0.77982  0.54073  0.79821  Biso   1.000  H
  H74      1.0000 0.75345  0.69905  0.52552  Biso   1.000  H
  H75      1.0000 0.55178  0.75512  0.74092  Biso   1.000  H
  H76      1.0000 0.22305  0.51314  0.77122  Biso   1.000  H
  H77      1.0000 0.30203  0.75982  0.98199  Biso   1.000  H
  H78      1.0000 0.04340  0.72415  0.80269  Biso   1.000  H
  H79      1.0000 0.75414  0.02829  0.79636  Biso   1.000  H
  H80      1.0000 0.76931  0.21800  0.53009  Biso   1.000  H
  H81      1.0000 0.00970  0.27837  0.75886  Biso   1.000  H
  H82      1.0000 0.29349  0.97693  0.75750  Biso   1.000  H
  H83      1.0000 0.24023  0.25157  0.96814  Biso   1.000  H
  H84      1.0000 0.48391  0.23660  0.79160  Biso   1.000  H
  H85      1.0000 0.24790  0.44334  0.20305  Biso   1.000  H
  H86      1.0000 0.22126  0.23000  0.47015  Biso   1.000  H
  H87      1.0000 0.49059  0.24405  0.28336  Biso   1.000  H
  H88      1.0000 0.80400  0.49254  0.23270  Biso   1.000  H
  H89      1.0000 0.73533  0.23814  0.97608  Biso   1.000  H
  H90      1.0000 0.01099  0.26094  0.21101  Biso   1.000  H
  H91      1.0000 0.23463  0.94886  0.25341  Biso   1.000  H
  H92      1.0000 0.30747  0.72785  0.46179  Biso   1.000  H
  H93      1.0000 0.98705  0.70508  0.24585  Biso   1.000  H
  H94      1.0000 0.78428  0.93513  0.30415  Biso   1.000  H
  H95      1.0000 0.79867  0.74170  0.06227  Biso   1.000  H
  H96      1.0000 0.49025  0.69299  0.28726  Biso   1.000  H
  H97      1.0000 0.88030  0.00156  0.92445  Biso   1.000  H
  H98      1.0000 0.92079  0.86358  0.02195  Biso   1.000  H
  H99      1.0000 0.01055  0.89828  0.87369  Biso   1.000  H
  H100     1.0000 0.38108  0.00213  0.59196  Biso   1.000  H
  H101     1.0000 0.42493  0.85549  0.50468  Biso   1.000  H
  H102     1.0000 0.49697  0.90882  0.64380  Biso   1.000  H
  H103     1.0000 0.64852  0.50487  0.91305  Biso   1.000  H
  H104     1.0000 0.61119  0.36613  0.00550  Biso   1.000  H
  H105     1.0000 0.51559  0.40915  0.86553  Biso   1.000  H
  H106     1.0000 0.15401  0.48462  0.59034  Biso   1.000  H
  H107     1.0000 0.10347  0.35888  0.50978  Biso   1.000  H
  H108     1.0000 0.00555  0.40050  0.63571  Biso   1.000  H
  H109     1.0000 0.15979  0.99155  0.08381  Biso   1.000  H
  H110     1.0000 0.11580  0.12741  0.00451  Biso   1.000  H
  H111     1.0000 0.02747  0.08318  0.12904  Biso   1.000  H
  H112     1.0000 0.65025  0.99140  0.41743  Biso   1.000  H
  H113     1.0000 0.60485  0.12529  0.49842  Biso   1.000  H
  H114     1.0000 0.52807  0.07566  0.36269  Biso   1.000  H
  H115     1.0000 0.38303  0.49850  0.09939  Biso   1.000  H
  H116     1.0000 0.42327  0.62541  0.00314  Biso   1.000  H
  H117     1.0000 0.50527  0.57668  0.14576  Biso   1.000  H
  H118     1.0000 0.87889  0.49528  0.41139  Biso   1.000  H
  H119     1.0000 0.92763  0.62867  0.50468  Biso   1.000  H
  H120     1.0000 0.00890  0.57966  0.37039  Biso   1.000  H
  H121     1.0000 0.10411  0.99522  0.86735  Biso   1.000  H
  H122     1.0000 0.88633  0.08513  0.00290  Biso   1.000  H
  H123     1.0000 0.02269  0.86276  0.10547  Biso   1.000  H
  H124     1.0000 0.60258  0.99777  0.64341  Biso   1.000  H
  H125     1.0000 0.38274  0.08458  0.48877  Biso   1.000  H
  H126     1.0000 0.50968  0.85432  0.42524  Biso   1.000  H
  H127     1.0000 0.42706  0.50909  0.87490  Biso   1.000  H
  H128     1.0000 0.65051  0.58811  0.00423  Biso   1.000  H
  H129     1.0000 0.52688  0.35204  0.08698  Biso   1.000  H
  H130     1.0000 0.92554  0.50019  0.63834  Biso   1.000  H
  H131     1.0000 0.15219  0.58215  0.50373  Biso   1.000  H
  H132     1.0000 0.00850  0.35907  0.40574  Biso   1.000  H
  H133     1.0000 0.92891  0.00389  0.14587  Biso   1.000  H
  H134     1.0000 0.14376  0.89955  0.98960  Biso   1.000  H
  H135     1.0000 0.01463  0.12485  0.90671  Biso   1.000  H
  H136     1.0000 0.42842  0.97476  0.36780  Biso   1.000  H
  H137     1.0000 0.64747  0.90247  0.52510  Biso   1.000  H
  H138     1.0000 0.51635  0.13046  0.58584  Biso   1.000  H
  H139     1.0000 0.60973  0.48416  0.13789  Biso   1.000  H
  H140     1.0000 0.38579  0.40518  0.00756  Biso   1.000  H
  H141     1.0000 0.53228  0.63348  0.92731  Biso   1.000  H
  H142     1.0000 0.10255  0.48728  0.36441  Biso   1.000  H
  H143     1.0000 0.87494  0.40426  0.49724  Biso   1.000  H
  H144     1.0000 0.03152  0.62715  0.59959  Biso   1.000  H
  H145     1.0000 0.60918  0.49269  0.86969  Biso   1.000  H
  H146     1.0000 0.88644  0.58747  0.49766  Biso   1.000  H
  H147     1.0000 0.50289  0.86278  0.60449  Biso   1.000  H
  H148     1.0000 0.10963  0.47978  0.63490  Biso   1.000  H
  H149     1.0000 0.38327  0.58352  0.00970  Biso   1.000  H
  H150     1.0000 0.99851  0.85632  0.91546  Biso   1.000  H
  H151     1.0000 0.91987  0.99390  0.87473  Biso   1.000  H
  H152     1.0000 0.64954  0.08487  0.50165  Biso   1.000  H
  H153     1.0000 0.00270  0.36014  0.58713  Biso   1.000  H
  H154     1.0000 0.42122  0.00578  0.64004  Biso   1.000  H
  H155     1.0000 0.15685  0.08434  0.00411  Biso   1.000  H
  H156     1.0000 0.51250  0.36757  0.90956  Biso   1.000  H
  H157     1.0000 0.42346  0.48926  0.14076  Biso   1.000  H
  H158     1.0000 0.14512  0.39959  0.51521  Biso   1.000  H
  H159     1.0000 0.52695  0.12076  0.40571  Biso   1.000  H
  H160     1.0000 0.91690  0.49178  0.37147  Biso   1.000  H
  H161     1.0000 0.64942  0.40433  0.00581  Biso   1.000  H
  H162     1.0000 0.01998  0.12501  0.08790  Biso   1.000  H
  H163     1.0000 0.11493  0.98650  0.12873  Biso   1.000  H
  H164     1.0000 0.38277  0.89981  0.49956  Biso   1.000  H
  H165     1.0000 0.00774  0.62390  0.41846  Biso   1.000  H
  H166     1.0000 0.61234  0.98944  0.37244  Biso   1.000  H
  H167     1.0000 0.88188  0.90677  0.00864  Biso   1.000  H
  H168     1.0000 0.50813  0.62066  0.10928  Biso   1.000  H
  H169     1.0000 0.01171  0.07757  0.86635  Biso   1.000  H
  H170     1.0000 0.88818  0.00512  0.10314  Biso   1.000  H
  H171     1.0000 0.10003  0.86103  0.99249  Biso   1.000  H
  H172     1.0000 0.51955  0.09071  0.63412  Biso   1.000  H
  H173     1.0000 0.38286  0.97094  0.40799  Biso   1.000  H
  H174     1.0000 0.60697  0.85767  0.52266  Biso   1.000  H
  H175     1.0000 0.52566  0.59635  0.88283  Biso   1.000  H
  H176     1.0000 0.64842  0.49641  0.09231  Biso   1.000  H
  H177     1.0000 0.42904  0.36134  0.99709  Biso   1.000  H
  H178     1.0000 0.04230  0.57941  0.64180  Biso   1.000  H
  H179     1.0000 0.14394  0.48405  0.40886  Biso   1.000  H
  H180     1.0000 0.91762  0.36315  0.48460  Biso   1.000  H
  H181     1.0000 0.01408  0.90486  0.14707  Biso   1.000  H
  H182     1.0000 0.14705  0.99287  0.90555  Biso   1.000  H
  H183     1.0000 0.93120  0.12504  0.00030  Biso   1.000  H
  H184     1.0000 0.51350  0.89694  0.37755  Biso   1.000  H
  H185     1.0000 0.64593  0.99858  0.60211  Biso   1.000  H
  H186     1.0000 0.42435  0.12468  0.48708  Biso   1.000  H
  H187     1.0000 0.52886  0.39325  0.13247  Biso   1.000  H
  H188     1.0000 0.38252  0.50222  0.91697  Biso   1.000  H
  H189     1.0000 0.60558  0.62881  0.01497  Biso   1.000  H
  H190     1.0000 0.99954  0.39912  0.36061  Biso   1.000  H
  H191     1.0000 0.88395  0.50738  0.59271  Biso   1.000  H
  H192     1.0000 0.11020  0.62559  0.49913  Biso   1.000  H
  H193     1.0000 0.28666  0.84722  0.49276  Biso   1.000  H
  H194     1.0000 0.51865  0.27359  0.85159  Biso   1.000  H
  H195     1.0000 0.87304  0.51537  0.27201  Biso   1.000  H
  H196     1.0000 0.78285  0.86179  0.02705  Biso   1.000  H
  H197     1.0000 0.00026  0.26447  0.63830  Biso   1.000  H
  H198     1.0000 0.37260  0.45713  0.23238  Biso   1.000  H
  H199     1.0000 0.23981  0.34208  0.50557  Biso   1.000  H
  H200     1.0000 0.99994  0.76103  0.86630  Biso   1.000  H
  H201     1.0000 0.66805  0.97002  0.27706  Biso   1.000  H
  H202     1.0000 0.74529  0.35503  0.01743  Biso   1.000  H
  H203     1.0000 0.52156  0.77215  0.66634  Biso   1.000  H
  H204     1.0000 0.16701  0.97957  0.22494  Biso   1.000  H
  H205     1.0000 0.74535  0.14342  0.50395  Biso   1.000  H
  H206     1.0000 0.49470  0.71410  0.16728  Biso   1.000  H
  H207     1.0000 0.16026  0.47162  0.73196  Biso   1.000  H
  H208     1.0000 0.25350  0.13497  0.99662  Biso   1.000  H
  H209     1.0000 0.02659  0.71816  0.36337  Biso   1.000  H
  H210     1.0000 0.66076  0.50559  0.77407  Biso   1.000  H
  H211     1.0000 0.79296  0.64086  0.48315  Biso   1.000  H
  H212     1.0000 0.03203  0.21983  0.14120  Biso   1.000  H
  H213     1.0000 0.35839  0.01819  0.72988  Biso   1.000  H
  H214     1.0000 0.28780  0.63734  0.01560  Biso   1.000  H
  H215     1.0000 0.51910  0.21660  0.34362  Biso   1.000  H
  H216     1.0000 0.86141  0.97163  0.78397  Biso   1.000  H
  H217     1.0000 0.23960  0.47892  0.35145  Biso   1.000  H
  H218     1.0000 0.36879  0.22038  0.48694  Biso   1.000  H
  H219     1.0000 0.51287  0.33768  0.22597  Biso   1.000  H
  H220     1.0000 0.74736  0.51634  0.14296  Biso   1.000  H
  H221     1.0000 0.88187  0.22421  0.98930  Biso   1.000  H
  H222     1.0000 0.02071  0.34110  0.26567  Biso   1.000  H
  H223     1.0000 0.28910  0.98313  0.35045  Biso   1.000  H
  H224     1.0000 0.16730  0.71762  0.51648  Biso   1.000  H
  H225     1.0000 0.01893  0.84764  0.24229  Biso   1.000  H
  H226     1.0000 0.79170  0.98701  0.15793  Biso   1.000  H
  H227     1.0000 0.65926  0.71966  0.04277  Biso   1.000  H
  H228     1.0000 0.52299  0.83638  0.28501  Biso   1.000  H
  H229     1.0000 0.78704  0.51810  0.64980  Biso   1.000  H
  H230     1.0000 0.66075  0.76434  0.52411  Biso   1.000  H
  H231     1.0000 0.50674  0.64877  0.78837  Biso   1.000  H
  H232     1.0000 0.28707  0.50483  0.86305  Biso   1.000  H
  H233     1.0000 0.15610  0.76324  0.99479  Biso   1.000  H
  H234     1.0000 0.04622  0.63397  0.73861  Biso   1.000  H
  H235     1.0000 0.73646  0.00540  0.66435  Biso   1.000  H
  H236     1.0000 0.86949  0.26654  0.48027  Biso   1.000  H
  H237     1.0000 0.99243  0.12777  0.76933  Biso   1.000  H
  H238     1.0000 0.24088  0.99435  0.84927  Biso   1.000  H
  H239     1.0000 0.37690  0.26656  0.99336  Biso   1.000  H
  H240     1.0000 0.51260  0.15084  0.72559  Biso   1.000  H
  H241     1.0000 0.74645  0.49883  0.86051  Biso   1.000  H
  H242     1.0000 0.87811  0.72925  0.50630  Biso   1.000  H
  H243     1.0000 0.50961  0.86514  0.74432  Biso   1.000  H
  H244     1.0000 0.24455  0.50369  0.64831  Biso   1.000  H
  H245     1.0000 0.37213  0.72411  0.01200  Biso   1.000  H
  H246     1.0000 0.03462  0.84013  0.78106  Biso   1.000  H
  H247     1.0000 0.77998  0.99467  0.86909  Biso   1.000  H
  H248     1.0000 0.65637  0.22154  0.48133  Biso   1.000  H
  H249     1.0000 0.98374  0.34672  0.72962  Biso   1.000  H
  H250     1.0000 0.28043  0.00171  0.64230  Biso   1.000  H
  H251     1.0000 0.16985  0.22259  0.99302  Biso   1.000  H
  H252     1.0000 0.50022  0.36133  0.76862  Biso   1.000  H
  H253     1.0000 0.28439  0.48067  0.14642  Biso   1.000  H
  H254     1.0000 0.15412  0.26081  0.50850  Biso   1.000  H
  H255     1.0000 0.51743  0.12356  0.26302  Biso   1.000  H
  H256     1.0000 0.78158  0.51217  0.36304  Biso   1.000  H
  H257     1.0000 0.66776  0.26660  0.00628  Biso   1.000  H
  H258     1.0000 0.03309  0.13997  0.22490  Biso   1.000  H
  H259     1.0000 0.25188  0.97623  0.14224  Biso   1.000  H
  H260     1.0000 0.37279  0.75904  0.49981  Biso   1.000  H
  H261     1.0000 0.02031  0.63476  0.27373  Biso   1.000  H
  H262     1.0000 0.75084  0.98166  0.36912  Biso   1.000  H
  H263     1.0000 0.86082  0.77045  0.02673  Biso   1.000  H
  H264     1.0000 0.52629  0.62430  0.24543  Biso   1.000  H
  H265     1.0000 0.00168  0.21805  0.84957  Biso   1.000  H
  H266     1.0000 0.88357  0.97490  0.24310  Biso   1.000  H
  H267     1.0000 0.23831  0.84350  0.98062  Biso   1.000  H
  H268     1.0000 0.51502  0.23046  0.63633  Biso   1.000  H
  H269     1.0000 0.38226  0.96862  0.26776  Biso   1.000  H
  H270     1.0000 0.74038  0.84845  0.49738  Biso   1.000  H
  H271     1.0000 0.52399  0.73182  0.87729  Biso   1.000  H
  H272     1.0000 0.65584  0.50373  0.23325  Biso   1.000  H
  H273     1.0000 0.29572  0.35081  0.01846  Biso   1.000  H
  H274     1.0000 0.02982  0.71944  0.65685  Biso   1.000  H
  H275     1.0000 0.15447  0.47058  0.26821  Biso   1.000  H
  H276     1.0000 0.77963  0.34986  0.50453  Biso   1.000  H
  H277     1.0000 0.03474  0.76624  0.15309  Biso   1.000  H
  H278     1.0000 0.15460  0.01257  0.77107  Biso   1.000  H
  H279     1.0000 0.79524  0.14340  0.02187  Biso   1.000  H
  H280     1.0000 0.52674  0.75756  0.37578  Biso   1.000  H
  H281     1.0000 0.64752  0.99886  0.74454  Biso   1.000  H
  H282     1.0000 0.28437  0.12993  0.48798  Biso   1.000  H
  H283     1.0000 0.51238  0.25527  0.13772  Biso   1.000  H
  H284     1.0000 0.37637  0.49933  0.77597  Biso   1.000  H
  H285     1.0000 0.74642  0.64188  0.01732  Biso   1.000  H
  H286     1.0000 0.04187  0.26613  0.35750  Biso   1.000  H
  H287     1.0000 0.87770  0.52165  0.73590  Biso   1.000  H
  H288     1.0000 0.24873  0.63102  0.49449  Biso   1.000  H
  H289     1.0000 0.11647  0.22164  0.99278  Biso   1.000  H
  H290     1.0000 0.04214  0.08315  0.22498  Biso   1.000  H
  H291     1.0000 0.25506  0.97976  0.08478  Biso   1.000  H
  H292     1.0000 0.60309  0.21970  0.48204  Biso   1.000  H
  H293     1.0000 0.52232  0.07149  0.26514  Biso   1.000  H
  H294     1.0000 0.74696  0.99338  0.42267  Biso   1.000  H
  H295     1.0000 0.42542  0.72325  0.01770  Biso   1.000  H
  H296     1.0000 0.52183  0.57034  0.24109  Biso   1.000  H
  H297     1.0000 0.28681  0.48947  0.09420  Biso   1.000  H
  H298     1.0000 0.93108  0.72213  0.50537  Biso   1.000  H
  H299     1.0000 0.01128  0.58031  0.27309  Biso   1.000  H
  H300     1.0000 0.78559  0.50823  0.41496  Biso   1.000  H
  H301     1.0000 0.91468  0.76698  0.02335  Biso   1.000  H
  H302     1.0000 0.04687  0.89196  0.78272  Biso   1.000  H
  H303     1.0000 0.78481  0.99360  0.92432  Biso   1.000  H
  H304     1.0000 0.42557  0.76132  0.50587  Biso   1.000  H
  H305     1.0000 0.49788  0.92033  0.73820  Biso   1.000  H
  H306     1.0000 0.28730  0.99693  0.58256  Biso   1.000  H
  H307     1.0000 0.61103  0.26845  0.00056  Biso   1.000  H
  H308     1.0000 0.50367  0.41505  0.77017  Biso   1.000  H
  H309     1.0000 0.74590  0.50515  0.91514  Biso   1.000  H
  H310     1.0000 0.09926  0.26302  0.50452  Biso   1.000  H
  H311     1.0000 0.98786  0.39931  0.73088  Biso   1.000  H
  H312     1.0000 0.24524  0.50526  0.59228  Biso   1.000  H
  H313     1.0000 0.24315  0.99682  0.90314  Biso   1.000  H
  H314     1.0000 0.93628  0.22483  0.99095  Biso   1.000  H
  H315     1.0000 0.01857  0.89875  0.24468  Biso   1.000  H
  H316     1.0000 0.74144  0.00790  0.60773  Biso   1.000  H
  H317     1.0000 0.42057  0.22145  0.48558  Biso   1.000  H
  H318     1.0000 0.52481  0.88960  0.28169  Biso   1.000  H
  H319     1.0000 0.28887  0.50566  0.91737  Biso   1.000  H
  H320     1.0000 0.60744  0.72228  0.03560  Biso   1.000  H
  H321     1.0000 0.51643  0.39232  0.22807  Biso   1.000  H
  H322     1.0000 0.78904  0.51680  0.59534  Biso   1.000  H
  H323     1.0000 0.11553  0.71783  0.52225  Biso   1.000  H
  H324     1.0000 0.01354  0.39592  0.26535  Biso   1.000  H
  H325     1.0000 0.79328  0.99526  0.10256  Biso   1.000  H
  H326     1.0000 0.10034  0.76420  0.99771  Biso   1.000  H
  H327     1.0000 0.99493  0.07352  0.77241  Biso   1.000  H
  H328     1.0000 0.28722  0.98113  0.40406  Biso   1.000  H
  H329     1.0000 0.60604  0.76296  0.52436  Biso   1.000  H
  H330     1.0000 0.50649  0.09645  0.72896  Biso   1.000  H
  H331     1.0000 0.74287  0.51355  0.09095  Biso   1.000  H
  H332     1.0000 0.43624  0.26863  0.98537  Biso   1.000  H
  H333     1.0000 0.50974  0.59519  0.78677  Biso   1.000  H
  H334     1.0000 0.23933  0.48253  0.40756  Biso   1.000  H
  H335     1.0000 0.92247  0.26831  0.47389  Biso   1.000  H
  H336     1.0000 0.04062  0.57723  0.73694  Biso   1.000  H
  H337     1.0000 0.01182  0.21962  0.90203  Biso   1.000  H
  H338     1.0000 0.93343  0.98139  0.23764  Biso   1.000  H
  H339     1.0000 0.24084  0.89913  0.98143  Biso   1.000  H
  H340     1.0000 0.51257  0.22462  0.58098  Biso   1.000  H
  H341     1.0000 0.43559  0.96699  0.27116  Biso   1.000  H
  H342     1.0000 0.73944  0.89987  0.49281  Biso   1.000  H
  H343     1.0000 0.52716  0.72904  0.93183  Biso   1.000  H
  H344     1.0000 0.60731  0.48421  0.23080  Biso   1.000  H
  H345     1.0000 0.29195  0.40113  0.01376  Biso   1.000  H
  H346     1.0000 0.02518  0.72215  0.60244  Biso   1.000  H
  H347     1.0000 0.10167  0.46579  0.27120  Biso   1.000  H
  H348     1.0000 0.77892  0.40248  0.50869  Biso   1.000  H
  H349     1.0000 0.02455  0.76847  0.09958  Biso   1.000  H
  H350     1.0000 0.09663  0.01701  0.77521  Biso   1.000  H
  H351     1.0000 0.79521  0.08987  0.02019  Biso   1.000  H
  H352     1.0000 0.51768  0.75869  0.43013  Biso   1.000  H
  H353     1.0000 0.59373  0.98894  0.73915  Biso   1.000  H
  H354     1.0000 0.28578  0.07827  0.48763  Biso   1.000  H
  H355     1.0000 0.51377  0.25880  0.08089  Biso   1.000  H
  H356     1.0000 0.42786  0.49630  0.78010  Biso   1.000  H
  H357     1.0000 0.74557  0.58910  0.00997  Biso   1.000  H
  H358     1.0000 0.03078  0.26616  0.40999  Biso   1.000  H
  H359     1.0000 0.93183  0.51795  0.73302  Biso   1.000  H
  H360     1.0000 0.24434  0.57655  0.48539  Biso   1.000  H
  H361     1.0000 0.02704  0.71718  0.41534  Biso   1.000  H
  H362     1.0000 0.41463  0.01684  0.73355  Biso   1.000  H
  H363     1.0000 0.74523  0.41185  0.00785  Biso   1.000  H
  H364     1.0000 0.50016  0.71567  0.11156  Biso   1.000  H
  H365     1.0000 0.91600  0.96574  0.78259  Biso   1.000  H
  H366     1.0000 0.23954  0.39902  0.51322  Biso   1.000  H
  H367     1.0000 0.51964  0.21401  0.40067  Biso   1.000  H
  H368     1.0000 0.10621  0.47221  0.72906  Biso   1.000  H
  H369     1.0000 0.78394  0.91049  0.02096  Biso   1.000  H
  H370     1.0000 0.02381  0.22217  0.08566  Biso   1.000  H
  H371     1.0000 0.60872  0.50163  0.77166  Biso   1.000  H
  H372     1.0000 0.28805  0.89896  0.50142  Biso   1.000  H
  H373     1.0000 0.00475  0.26523  0.58312  Biso   1.000  H
  H374     1.0000 0.61411  0.97118  0.27828  Biso   1.000  H
  H375     1.0000 0.28905  0.58624  0.02072  Biso   1.000  H
  H376     1.0000 0.52402  0.27279  0.90545  Biso   1.000  H
  H377     1.0000 0.11315  0.97686  0.22593  Biso   1.000  H
  H378     1.0000 0.79213  0.58883  0.48382  Biso   1.000  H
  H379     1.0000 0.52438  0.77056  0.61205  Biso   1.000  H
  H380     1.0000 0.92436  0.50432  0.27240  Biso   1.000  H
  H381     1.0000 0.25511  0.08195  0.00537  Biso   1.000  H
  H382     1.0000 0.99917  0.76312  0.92125  Biso   1.000  H
  H383     1.0000 0.42505  0.46005  0.23343  Biso   1.000  H
  H384     1.0000 0.74438  0.08726  0.50482  Biso   1.000  H
  H385     1.0000 0.22909  0.43941  0.33108  Biso   1.000  H
  H386     1.0000 0.28600  0.16368  0.46390  Biso   1.000  H
  H387     1.0000 0.47619  0.29576  0.20780  Biso   1.000  H
  H388     1.0000 0.69018  0.47708  0.22533  Biso   1.000  H
  H389     1.0000 0.85203  0.22150  0.03489  Biso   1.000  H
  H390     1.0000 0.01287  0.25910  0.32244  Biso   1.000  H
  H391     1.0000 0.29556  0.94570  0.32156  Biso   1.000  H
  H392     1.0000 0.19040  0.71533  0.47329  Biso   1.000  H
  H393     1.0000 0.99984  0.76370  0.17882  Biso   1.000  H
  H394     1.0000 0.79692  0.95441  0.17866  Biso   1.000  H
  H395     1.0000 0.73860  0.67125  0.05632  Biso   1.000  H
  H396     1.0000 0.55366  0.80577  0.29009  Biso   1.000  H
  H397     1.0000 0.79450  0.55191  0.67652  Biso   1.000  H
  H398     1.0000 0.75076  0.82188  0.52699  Biso   1.000  H
  H399     1.0000 0.53925  0.68006  0.78492  Biso   1.000  H
  H400     1.0000 0.34531  0.53153  0.77387  Biso   1.000  H
  H401     1.0000 0.22947  0.80626  0.95371  Biso   1.000  H
  H402     1.0000 0.07480  0.67397  0.73013  Biso   1.000  H
  H403     1.0000 0.72424  0.96185  0.69095  Biso   1.000  H
  H404     1.0000 0.78769  0.31431  0.53005  Biso   1.000  H
  H405     1.0000 0.96448  0.21028  0.82513  Biso   1.000  H
  H406     1.0000 0.24049  0.02757  0.82269  Biso   1.000  H
  H407     1.0000 0.29084  0.32304  0.98212  Biso   1.000  H
  H408     1.0000 0.47486  0.18163  0.71325  Biso   1.000  H
  H409     1.0000 0.28578  0.44308  0.16750  Biso   1.000  H
  H410     1.0000 0.18215  0.26569  0.47475  Biso   1.000  H
  H411     1.0000 0.49012  0.20732  0.31603  Biso   1.000  H
  H412     1.0000 0.83811  0.47857  0.27257  Biso   1.000  H
  H413     1.0000 0.69706  0.27561  0.97335  Biso   1.000  H
  H414     1.0000 0.99566  0.21956  0.17838  Biso   1.000  H
  H415     1.0000 0.19492  0.95149  0.22029  Biso   1.000  H
  H416     1.0000 0.34415  0.76663  0.46026  Biso   1.000  H
  H417     1.0000 0.98428  0.67077  0.28609  Biso   1.000  H
  H418     1.0000 0.74595  0.94318  0.34152  Biso   1.000  H
  H419     1.0000 0.83309  0.77725  0.06604  Biso   1.000  H
  H420     1.0000 0.48937  0.65370  0.24851  Biso   1.000  H
  H421     1.0000 0.74041  0.53168  0.83547  Biso   1.000  H
  H422     1.0000 0.79221  0.66709  0.52991  Biso   1.000  H
  H423     1.0000 0.55450  0.79135  0.70097  Biso   1.000  H
  H424     1.0000 0.18528  0.51191  0.73361  Biso   1.000  H
  H425     1.0000 0.33993  0.72178  0.97759  Biso   1.000  H
  H426     1.0000 0.03845  0.75991  0.84175  Biso   1.000  H
  H427     1.0000 0.79222  0.02911  0.83292  Biso   1.000  H
  H428     1.0000 0.73143  0.17863  0.53402  Biso   1.000  H
  H429     1.0000 0.01895  0.31376  0.72115  Biso   1.000  H
  H430     1.0000 0.33534  0.97505  0.72278  Biso   1.000  H
  H431     1.0000 0.20696  0.21054  0.96701  Biso   1.000  H
  H432     1.0000 0.48054  0.27645  0.82672  Biso   1.000  H
  H433     1.0000 0.28383  0.04020  0.66808  Biso   1.000  H
  H434     1.0000 0.74466  0.32688  0.03920  Biso   1.000  H
  H435     1.0000 0.06139  0.70677  0.32854  Biso   1.000  H
  H436     1.0000 0.82274  0.94472  0.79677  Biso   1.000  H
  H437     1.0000 0.23376  0.31065  0.53914  Biso   1.000  H
  H438     1.0000 0.53784  0.70878  0.18967  Biso   1.000  H
  H439     1.0000 0.24979  0.47335  0.67467  Biso   1.000  H
  H440     1.0000 0.79259  0.82571  0.99368  Biso   1.000  H
  H441     1.0000 0.55289  0.15639  0.26643  Biso   1.000  H
  H442     1.0000 0.69241  0.48323  0.76868  Biso   1.000  H
  H443     1.0000 0.28833  0.81364  0.52559  Biso   1.000  H
  H444     1.0000 0.07164  0.16870  0.21138  Biso   1.000  H
  H445     1.0000 0.70784  0.01005  0.28294  Biso   1.000  H
  H446     1.0000 0.29320  0.67315  0.04376  Biso   1.000  H
  H447     1.0000 0.95991  0.26535  0.66470  Biso   1.000  H
  H448     1.0000 0.24706  0.01419  0.16840  Biso   1.000  H
  H449     1.0000 0.84466  0.72582  0.47537  Biso   1.000  H
  H450     1.0000 0.53147  0.33203  0.76748  Biso   1.000  H
  H451     1.0000 0.78217  0.53721  0.33132  Biso   1.000  H
  H452     1.0000 0.25276  0.16949  0.04087  Biso   1.000  H
  H453     1.0000 0.47149  0.82618  0.73691  Biso   1.000  H
  H454     1.0000 0.33860  0.49074  0.23314  Biso   1.000  H
  H455     1.0000 0.69294  0.20896  0.45602  Biso   1.000  H
  H456     1.0000 0.99450  0.81581  0.77815  Biso   1.000  H
  H457     1.0000 0.68275  0.76115  0.48994  Biso   1.000  H
  H458     1.0000 0.49528  0.73367  0.85164  Biso   1.000  H
  H459     1.0000 0.84350  0.49408  0.73731  Biso   1.000  H
  H460     1.0000 0.18418  0.76781  0.03034  Biso   1.000  H
  H461     1.0000 0.99032  0.70469  0.68964  Biso   1.000  H
  H462     1.0000 0.28816  0.47624  0.83160  Biso   1.000  H
  H463     1.0000 0.83624  0.27661  0.45677  Biso   1.000  H
  H464     1.0000 0.02196  0.16207  0.76498  Biso   1.000  H
  H465     1.0000 0.68199  0.02742  0.74896  Biso   1.000  H
  H466     1.0000 0.35547  0.26727  0.02738  Biso   1.000  H
  H467     1.0000 0.54799  0.22293  0.67248  Biso   1.000  H
  H468     1.0000 0.17970  0.97936  0.76558  Biso   1.000  H
  H469     1.0000 0.34021  0.21746  0.52069  Biso   1.000  H
  H470     1.0000 0.55970  0.26807  0.17270  Biso   1.000  H
  H471     1.0000 0.19167  0.50092  0.26535  Biso   1.000  H
  H472     1.0000 0.79806  0.17115  0.97871  Biso   1.000  H
  H473     1.0000 0.06273  0.32188  0.27217  Biso   1.000  H
  H474     1.0000 0.73977  0.54202  0.17488  Biso   1.000  H
  H475     1.0000 0.25098  0.66103  0.52629  Biso   1.000  H
  H476     1.0000 0.05290  0.81825  0.23968  Biso   1.000  H
  H477     1.0000 0.34832  0.00740  0.26633  Biso   1.000  H
  H478     1.0000 0.68850  0.72236  0.99007  Biso   1.000  H
  H479     1.0000 0.49098  0.76297  0.34882  Biso   1.000  H
  H480     1.0000 0.85135  0.99600  0.24638  Biso   1.000  H
  N1       1.0000 0.68942  0.17146  0.49616  Biso   1.000  N
  N2       1.0000 0.51097  0.66021  0.19409  Biso   1.000  N
  N3       1.0000 0.19308  0.49113  0.67990  Biso   1.000  N
  N4       1.0000 0.20352  0.16942  0.00267  Biso   1.000  N
  N5       1.0000 0.02020  0.66559  0.32938  Biso   1.000  N
  N6       1.0000 0.69392  0.50260  0.82825  Biso   1.000  N
  N7       1.0000 0.84213  0.67285  0.49954  Biso   1.000  N
  N8       1.0000 0.03017  0.17120  0.17159  Biso   1.000  N
  N9       1.0000 0.33261  0.00816  0.67496  Biso   1.000  N
  N10      1.0000 0.33959  0.67199  0.01067  Biso   1.000  N
  N11      1.0000 0.52121  0.15812  0.31536  Biso   1.000  N
  N12      1.0000 0.83161  0.98855  0.83701  Biso   1.000  N
  N13      1.0000 0.34185  0.81230  0.49423  Biso   1.000  N
  N14      1.0000 0.50620  0.32685  0.82104  Biso   1.000  N
  N15      1.0000 0.83547  0.50897  0.32544  Biso   1.000  N
  N16      1.0000 0.83452  0.82388  0.02639  Biso   1.000  N
  N17      1.0000 0.98898  0.31486  0.67162  Biso   1.000  N
  N18      1.0000 0.33885  0.47097  0.18021  Biso   1.000  N
  N19      1.0000 0.18612  0.31427  0.50663  Biso   1.000  N
  N20      1.0000 0.01596  0.81032  0.83445  Biso   1.000  N
  N21      1.0000 0.69894  0.97769  0.33431  Biso   1.000  N
  N22      1.0000 0.69596  0.32277  0.00890  Biso   1.000  N
  N23      1.0000 0.51094  0.82879  0.69345  Biso   1.000  N
  N24      1.0000 0.19752  0.98320  0.17147  Biso   1.000  N
  N25      1.0000 0.84323  0.51652  0.68032  Biso   1.000  N
  N26      1.0000 0.69008  0.81621  0.51279  Biso   1.000  N
  N27      1.0000 0.51874  0.68097  0.84145  Biso   1.000  N
  N28      1.0000 0.34187  0.50530  0.82822  Biso   1.000  N
  N29      1.0000 0.18491  0.81427  0.99075  Biso   1.000  N
  N30      1.0000 0.03346  0.66527  0.68665  Biso   1.000  N
  N31      1.0000 0.68334  0.00032  0.69187  Biso   1.000  N
  N32      1.0000 0.83528  0.31846  0.49286  Biso   1.000  N
  N33      1.0000 0.00018  0.16428  0.82046  Biso   1.000  N
  N34      1.0000 0.18666  0.00081  0.81963  Biso   1.000  N
  N35      1.0000 0.34712  0.31910  0.00198  Biso   1.000  N
  N36      1.0000 0.51318  0.17759  0.67003  Biso   1.000  N
  N37      1.0000 0.18816  0.47638  0.32226  Biso   1.000  N
  N38      1.0000 0.33656  0.16616  0.49022  Biso   1.000  N
  N39      1.0000 0.51780  0.30824  0.17021  Biso   1.000  N
  N40      1.0000 0.69176  0.51008  0.17901  Biso   1.000  N
  N41      1.0000 0.84879  0.17499  0.00502  Biso   1.000  N
  N42      1.0000 0.02775  0.31378  0.32206  Biso   1.000  N
  N43      1.0000 0.34499  0.97569  0.31885  Biso   1.000  N
  N44      1.0000 0.19807  0.66430  0.50258  Biso   1.000  N
  N45      1.0000 0.02532  0.81647  0.18776  Biso   1.000  N
  N46      1.0000 0.84672  0.98341  0.18971  Biso   1.000  N
  N47      1.0000 0.69171  0.67282  0.02372  Biso   1.000  N
  N48      1.0000 0.52177  0.80773  0.34110  Biso   1.000  N
  O1       1.0000 0.35983  0.53662  0.00864  Biso   1.000  O
  O2       1.0000 0.00949  0.33863  0.53734  Biso   1.000  O
  O3       1.0000 0.56393  0.98737  0.34752  Biso   1.000  O
  O4       1.0000 0.86234  0.53856  0.49760  Biso   1.000  O
  O5       1.0000 0.52247  0.34242  0.95768  Biso   1.000  O
  O6       1.0000 0.06448  0.98643  0.15426  Biso   1.000  O
  O7       1.0000 0.18022  0.03446  0.00259  Biso   1.000  O
  O8       1.0000 0.51218  0.83792  0.55834  Biso   1.000  O
  O9       1.0000 0.96908  0.48904  0.34520  Biso   1.000  O
  O10      1.0000 0.67161  0.03952  0.50427  Biso   1.000  O
  O11      1.0000 0.00448  0.83716  0.96634  Biso   1.000  O
  O12      1.0000 0.47719  0.48130  0.16395  Biso   1.000  O
  O13      1.0000 0.67268  0.45783  0.00070  Biso   1.000  O
  O14      1.0000 0.02119  0.64680  0.46528  Biso   1.000  O
  O15      1.0000 0.46682  0.00984  0.66527  Biso   1.000  O
  O16      1.0000 0.17080  0.44881  0.51061  Biso   1.000  O
  O17      1.0000 0.50975  0.64630  0.05910  Biso   1.000  O
  O18      1.0000 0.96995  0.98586  0.85095  Biso   1.000  O
  O19      1.0000 0.86053  0.95708  0.00897  Biso   1.000  O
  O20      1.0000 0.51838  0.14700  0.45116  Biso   1.000  O
  O21      1.0000 0.05661  0.47254  0.65624  Biso   1.000  O
  O22      1.0000 0.35921  0.94729  0.50585  Biso   1.000  O
  O23      1.0000 0.02701  0.15167  0.03525  Biso   1.000  O
  O24      1.0000 0.55984  0.49555  0.84579  Biso   1.000  O
  O25      1.0000 0.98027  0.99656  0.16389  Biso   1.000  O
  O26      1.0000 0.17024  0.94852  0.99038  Biso   1.000  O
  O27      1.0000 0.02346  0.15085  0.95380  Biso   1.000  O
  O28      1.0000 0.47999  0.97962  0.34468  Biso   1.000  O
  O29      1.0000 0.67191  0.95417  0.51298  Biso   1.000  O
  O30      1.0000 0.51135  0.15127  0.53592  Biso   1.000  O
  O31      1.0000 0.56055  0.48826  0.15965  Biso   1.000  O
  O32      1.0000 0.36185  0.45241  0.00368  Biso   1.000  O
  O33      1.0000 0.52841  0.65320  0.97644  Biso   1.000  O
  O34      1.0000 0.05390  0.48412  0.34159  Biso   1.000  O
  O35      1.0000 0.85303  0.45163  0.50977  Biso   1.000  O
  O36      1.0000 0.02075  0.64968  0.55069  Biso   1.000  O
  O37      1.0000 0.05259  0.99126  0.84409  Biso   1.000  O
  O38      1.0000 0.86185  0.03938  0.01532  Biso   1.000  O
  O39      1.0000 0.01399  0.83935  0.05375  Biso   1.000  O
  O40      1.0000 0.55061  0.99658  0.66396  Biso   1.000  O
  O41      1.0000 0.35717  0.03130  0.49260  Biso   1.000  O
  O42      1.0000 0.51564  0.83411  0.47651  Biso   1.000  O
  O43      1.0000 0.47694  0.50555  0.84971  Biso   1.000  O
  O44      1.0000 0.67388  0.54029  0.00182  Biso   1.000  O
  O45      1.0000 0.51455  0.33306  0.03842  Biso   1.000  O
  O46      1.0000 0.97678  0.50455  0.65960  Biso   1.000  O
  O47      1.0000 0.17204  0.53069  0.49534  Biso   1.000  O
  O48      1.0000 0.01981  0.33894  0.45439  Biso   1.000  O
  O49      1.0000 0.01897  0.94917  0.16907  Biso   1.000  O
  O50      1.0000 0.17006  0.99897  0.95503  Biso   1.000  O
  O51      1.0000 0.98402  0.14868  0.99573  Biso   1.000  O
  O52      1.0000 0.52422  0.94309  0.35011  Biso   1.000  O
  O53      1.0000 0.67239  0.00326  0.55448  Biso   1.000  O
  O54      1.0000 0.47361  0.14959  0.49173  Biso   1.000  O
  O55      1.0000 0.52066  0.44246  0.15523  Biso   1.000  O
  O56      1.0000 0.36121  0.50140  0.96217  Biso   1.000  O
  O57      1.0000 0.55831  0.64750  0.02378  Biso   1.000  O
  O58      1.0000 0.00860  0.44799  0.33810  Biso   1.000  O
  O59      1.0000 0.85859  0.50390  0.54397  Biso   1.000  O
  O60      1.0000 0.06197  0.64754  0.50705  Biso   1.000  O
  O61      1.0000 0.00811  0.02969  0.84535  Biso   1.000  O
  O62      1.0000 0.86321  0.00012  0.05311  Biso   1.000  O
  O63      1.0000 0.05165  0.83827  0.00532  Biso   1.000  O
  O64      1.0000 0.51259  0.04412  0.66198  Biso   1.000  O
  O65      1.0000 0.35758  0.98171  0.45708  Biso   1.000  O
  O66      1.0000 0.55655  0.83557  0.52096  Biso   1.000  O
  O67      1.0000 0.52153  0.54265  0.85696  Biso   1.000  O
  O68      1.0000 0.67280  0.50355  0.04279  Biso   1.000  O
  O69      1.0000 0.47955  0.33843  0.99181  Biso   1.000  O
  O70      1.0000 0.03202  0.52886  0.66204  Biso   1.000  O
  O71      1.0000 0.16695  0.48537  0.46051  Biso   1.000  O
  O72      1.0000 0.96710  0.34116  0.49096  Biso   1.000  O
  O73      1.0000 0.00420  0.44890  0.66073  Biso   1.000  O
  O74      1.0000 0.67013  0.99332  0.47053  Biso   1.000  O
  O75      1.0000 0.47643  0.65102  0.00888  Biso   1.000  O
  O76      1.0000 0.51588  0.45855  0.84639  Biso   1.000  O
  O77      1.0000 0.17965  0.98716  0.03550  Biso   1.000  O
  O78      1.0000 0.97750  0.64854  0.50555  Biso   1.000  O
  O79      1.0000 0.50001  0.96208  0.66418  Biso   1.000  O
  O80      1.0000 0.85763  0.48980  0.46237  Biso   1.000  O
  O81      1.0000 0.06673  0.15131  0.99533  Biso   1.000  O
  O82      1.0000 0.01866  0.94597  0.84862  Biso   1.000  O
  O83      1.0000 0.35949  0.49556  0.04627  Biso   1.000  O
  O84      1.0000 0.55637  0.14814  0.49534  Biso   1.000  O
  O85      1.0000 0.01201  0.52927  0.34255  Biso   1.000  O
  O86      1.0000 0.36100  0.99683  0.54066  Biso   1.000  O
  O87      1.0000 0.56436  0.34017  0.00298  Biso   1.000  O
  O88      1.0000 0.51387  0.52519  0.16672  Biso   1.000  O
  O89      1.0000 0.86091  0.00174  0.97063  Biso   1.000  O
  O90      1.0000 0.05188  0.33841  0.50175  Biso   1.000  O
  O91      1.0000 0.51782  0.02540  0.34122  Biso   1.000  O
  O92      1.0000 0.17337  0.49505  0.54421  Biso   1.000  O
  O93      1.0000 0.96487  0.83578  0.01725  Biso   1.000  O
  O94      1.0000 0.03075  0.03182  0.15766  Biso   1.000  O
  O95      1.0000 0.67304  0.50017  0.96099  Biso   1.000  O
  O96      1.0000 0.47393  0.83178  0.50963  Biso   1.000  O
  O97      1.0000 0.47167  0.19766  0.49397  Biso   1.000  O
  O98      1.0000 0.52191  0.44069  0.20662  Biso   1.000  O
  O99      1.0000 0.21604  0.48407  0.45953  Biso   1.000  O
  O100     1.0000 0.98275  0.19753  0.99714  Biso   1.000  O
  O101     1.0000 0.01078  0.44776  0.28820  Biso   1.000  O
  O102     1.0000 0.72172  0.49234  0.04458  Biso   1.000  O
  O103     1.0000 0.06366  0.69701  0.51028  Biso   1.000  O
  O104     1.0000 0.02358  0.95372  0.21576  Biso   1.000  O
  O105     1.0000 0.30902  0.98452  0.45431  Biso   1.000  O
  O106     1.0000 0.55833  0.69633  0.02834  Biso   1.000  O
  O107     1.0000 0.53036  0.93735  0.30131  Biso   1.000  O
  O108     1.0000 0.81589  0.99663  0.05702  Biso   1.000  O
  O109     1.0000 0.55587  0.78687  0.52323  Biso   1.000  O
  O110     1.0000 0.51916  0.54877  0.80805  Biso   1.000  O
  O111     1.0000 0.81130  0.50307  0.54682  Biso   1.000  O
  O112     1.0000 0.05119  0.78972  0.00322  Biso   1.000  O
  O113     1.0000 0.02861  0.52891  0.70961  Biso   1.000  O
  O114     1.0000 0.31155  0.49702  0.96380  Biso   1.000  O
  O115     1.0000 0.96910  0.29272  0.49009  Biso   1.000  O
  O116     1.0000 0.00158  0.02646  0.79730  Biso   1.000  O
  O117     1.0000 0.72011  0.99691  0.55720  Biso   1.000  O
  O118     1.0000 0.48094  0.29005  0.98797  Biso   1.000  O
  O119     1.0000 0.51314  0.04600  0.71087  Biso   1.000  O
  O120     1.0000 0.21953  0.99899  0.95325  Biso   1.000  O
  O121     1.0000 0.05911  0.47741  0.70756  Biso   1.000  O
  O122     1.0000 0.72098  0.03834  0.50797  Biso   1.000  O
  O123     1.0000 0.51041  0.69440  0.06092  Biso   1.000  O
  O124     1.0000 0.55822  0.50159  0.79719  Biso   1.000  O
  O125     1.0000 0.22767  0.03268  0.99822  Biso   1.000  O
  O126     1.0000 0.02277  0.69518  0.46648  Biso   1.000  O
  O127     1.0000 0.46539  0.01156  0.71502  Biso   1.000  O
  O128     1.0000 0.81456  0.54015  0.49875  Biso   1.000  O
  O129     1.0000 0.02365  0.19987  0.03808  Biso   1.000  O
  O130     1.0000 0.96945  0.97295  0.80347  Biso   1.000  O
  O131     1.0000 0.31233  0.53544  0.01318  Biso   1.000  O
  O132     1.0000 0.51414  0.19420  0.44808  Biso   1.000  O
  O133     1.0000 0.96771  0.48794  0.29576  Biso   1.000  O
  O134     1.0000 0.31034  0.94924  0.50362  Biso   1.000  O
  O135     1.0000 0.53165  0.29511  0.95344  Biso   1.000  O
  O136     1.0000 0.47667  0.47424  0.21230  Biso   1.000  O
  O137     1.0000 0.81233  0.96064  0.01387  Biso   1.000  O
  O138     1.0000 0.00676  0.29115  0.53779  Biso   1.000  O
  O139     1.0000 0.56809  0.98431  0.29955  Biso   1.000  O
  O140     1.0000 0.21882  0.44617  0.50985  Biso   1.000  O
  O141     1.0000 0.00131  0.79006  0.96923  Biso   1.000  O
  O142     1.0000 0.06637  0.99320  0.20308  Biso   1.000  O
  O143     1.0000 0.72156  0.45615  0.99837  Biso   1.000  O
  O144     1.0000 0.51177  0.79043  0.56114  Biso   1.000  O
  O145     1.0000 0.56032  0.48327  0.20837  Biso   1.000  O
  O146     1.0000 0.22057  0.52841  0.50044  Biso   1.000  O
  O147     1.0000 0.51494  0.19970  0.53287  Biso   1.000  O
  O148     1.0000 0.05322  0.48626  0.29325  Biso   1.000  O
  O149     1.0000 0.72215  0.53819  0.00661  Biso   1.000  O
  O150     1.0000 0.02469  0.19810  0.95269  Biso   1.000  O
  O151     1.0000 0.98275  0.99923  0.21307  Biso   1.000  O
  O152     1.0000 0.30912  0.03111  0.49273  Biso   1.000  O
  O153     1.0000 0.01993  0.69858  0.55161  Biso   1.000  O
  O154     1.0000 0.48273  0.97610  0.29700  Biso   1.000  O
  O155     1.0000 0.81416  0.04198  0.01919  Biso   1.000  O
  O156     1.0000 0.52678  0.70134  0.97956  Biso   1.000  O
  O157     1.0000 0.47576  0.51195  0.80316  Biso   1.000  O
  O158     1.0000 0.80517  0.45489  0.50909  Biso   1.000  O
  O159     1.0000 0.52307  0.78479  0.47702  Biso   1.000  O
  O160     1.0000 0.97756  0.49722  0.70854  Biso   1.000  O
  O161     1.0000 0.31290  0.45128  0.00580  Biso   1.000  O
  O162     1.0000 0.01604  0.79028  0.05231  Biso   1.000  O
  O163     1.0000 0.05022  0.99615  0.79524  Biso   1.000  O
  O164     1.0000 0.72044  0.95177  0.51374  Biso   1.000  O
  O165     1.0000 0.01113  0.29156  0.45592  Biso   1.000  O
  O166     1.0000 0.54777  0.99668  0.71188  Biso   1.000  O
  O167     1.0000 0.21860  0.94927  0.98468  Biso   1.000  O
  O168     1.0000 0.51788  0.28596  0.03485  Biso   1.000  O
  O169     1.0000 0.02749  0.03819  0.20544  Biso   1.000  O
  O170     1.0000 0.22774  0.98159  0.03464  Biso   1.000  O
  O171     1.0000 0.06683  0.20017  0.99801  Biso   1.000  O
  O172     1.0000 0.52040  0.02047  0.29245  Biso   1.000  O
  O173     1.0000 0.71902  0.99074  0.47143  Biso   1.000  O
  O174     1.0000 0.55680  0.19677  0.48939  Biso   1.000  O
  O175     1.0000 0.51357  0.52225  0.21586  Biso   1.000  O
  O176     1.0000 0.31097  0.49271  0.04760  Biso   1.000  O
  O177     1.0000 0.47491  0.69977  0.01313  Biso   1.000  O
  O178     1.0000 0.01253  0.53084  0.29383  Biso   1.000  O
  O179     1.0000 0.80848  0.49097  0.46180  Biso   1.000  O
  O180     1.0000 0.97882  0.69686  0.51059  Biso   1.000  O
  O181     1.0000 0.01930  0.94282  0.79982  Biso   1.000  O
  O182     1.0000 0.81192  0.00125  0.97393  Biso   1.000  O
  O183     1.0000 0.96629  0.78815  0.02004  Biso   1.000  O
  O184     1.0000 0.49830  0.96489  0.71437  Biso   1.000  O
  O185     1.0000 0.31319  0.99228  0.53893  Biso   1.000  O
  O186     1.0000 0.47382  0.78234  0.51011  Biso   1.000  O
  O187     1.0000 0.51209  0.46413  0.79796  Biso   1.000  O
  O188     1.0000 0.72209  0.50249  0.96242  Biso   1.000  O
  O189     1.0000 0.56639  0.29098  0.99986  Biso   1.000  O
  O190     1.0000 0.00710  0.44943  0.71029  Biso   1.000  O
  O191     1.0000 0.22182  0.48877  0.54334  Biso   1.000  O
  O192     1.0000 0.05228  0.29047  0.50163  Biso   1.000  O
