data_image0
_cell_length_a       46.591
_cell_length_b       46.7831
_cell_length_c       46.5497
_cell_angle_alpha    90
_cell_angle_beta     90
_cell_angle_gamma    90

_symmetry_space_group_name_H-M    "P 1"
_symmetry_int_tables_number       1

loop_
  _symmetry_equiv_pos_as_xyz
  'x, y, z'

loop_
  _atom_site_label
  _atom_site_occupancy
  _atom_site_fract_x
  _atom_site_fract_y
  _atom_site_fract_z
  _atom_site_thermal_displace_type
  _atom_site_B_iso_or_equiv
  _atom_site_type_symbol
  C1       1.0000 0.55303  0.99958  0.34160  Biso   1.000  C
  C2       1.0000 0.31304  0.55330  0.01524  Biso   1.000  C
  C3       1.0000 0.98381  0.30614  0.57897  Biso   1.000  C
  C4       1.0000 0.05362  0.97576  0.19443  Biso   1.000  C
  C5       1.0000 0.81951  0.53831  0.51294  Biso   1.000  C
  C6       1.0000 0.47764  0.30259  0.97541  Biso   1.000  C
  C7       1.0000 0.94654  0.48081  0.33346  Biso   1.000  C
  C8       1.0000 0.17317  0.05126  0.01044  Biso   1.000  C
  C9       1.0000 0.49884  0.80500  0.55667  Biso   1.000  C
  C10      1.0000 0.44490  0.49520  0.19707  Biso   1.000  C
  C11      1.0000 0.66727  0.04062  0.52813  Biso   1.000  C
  C12      1.0000 0.99248  0.80604  0.95622  Biso   1.000  C
  C13      1.0000 0.42755  0.98623  0.69740  Biso   1.000  C
  C14      1.0000 0.66643  0.42932  0.01841  Biso   1.000  C
  C15      1.0000 0.99737  0.66559  0.45188  Biso   1.000  C
  C16      1.0000 0.92966  0.98449  0.83741  Biso   1.000  C
  C17      1.0000 0.17151  0.43347  0.51663  Biso   1.000  C
  C18      1.0000 0.50689  0.66919  0.05867  Biso   1.000  C
  C19      1.0000 0.04930  0.49547  0.70035  Biso   1.000  C
  C20      1.0000 0.81930  0.93375  0.04217  Biso   1.000  C
  C21      1.0000 0.48873  0.16769  0.47905  Biso   1.000  C
  C22      1.0000 0.54672  0.48063  0.83726  Biso   1.000  C
  C23      1.0000 0.31525  0.92569  0.50691  Biso   1.000  C
  C24      1.0000 0.97613  0.16768  0.08333  Biso   1.000  C
  C25      1.0000 0.31016  0.03842  0.50809  Biso   1.000  C
  C26      1.0000 0.48557  0.30142  0.08549  Biso   1.000  C
  C27      1.0000 0.05342  0.47545  0.32827  Biso   1.000  C
  C28      1.0000 0.80646  0.03979  0.01433  Biso   1.000  C
  C29      1.0000 0.99562  0.30323  0.46983  Biso   1.000  C
  C30      1.0000 0.55305  0.48933  0.19947  Biso   1.000  C
  C31      1.0000 0.17709  0.54359  0.51404  Biso   1.000  C
  C32      1.0000 0.99904  0.80655  0.06490  Biso   1.000  C
  C33      1.0000 0.44329  0.99518  0.33870  Biso   1.000  C
  C34      1.0000 0.68042  0.53720  0.01439  Biso   1.000  C
  C35      1.0000 0.50318  0.80692  0.44938  Biso   1.000  C
  C36      1.0000 0.94589  0.98806  0.20329  Biso   1.000  C
  C37      1.0000 0.67533  0.93492  0.52066  Biso   1.000  C
  C38      1.0000 0.50452  0.66950  0.95078  Biso   1.000  C
  C39      1.0000 0.93919  0.48709  0.69419  Biso   1.000  C
  C40      1.0000 0.17273  0.94084  0.01088  Biso   1.000  C
  C41      1.0000 0.00741  0.66912  0.56019  Biso   1.000  C
  C42      1.0000 0.43951  0.47709  0.83962  Biso   1.000  C
  C43      1.0000 0.81250  0.43087  0.51628  Biso   1.000  C
  C44      1.0000 0.98937  0.16844  0.97496  Biso   1.000  C
  C45      1.0000 0.53303  0.95538  0.70023  Biso   1.000  C
  C46      1.0000 0.31230  0.44412  0.03337  Biso   1.000  C
  C47      1.0000 0.48344  0.15661  0.58937  Biso   1.000  C
  C48      1.0000 0.03782  0.99029  0.83592  Biso   1.000  C
  C49      1.0000 0.98326  0.04312  0.84157  Biso   1.000  C
  C50      1.0000 0.81743  0.99983  0.07682  Biso   1.000  C
  C51      1.0000 0.05161  0.80742  0.00505  Biso   1.000  C
  C52      1.0000 0.49784  0.02482  0.70465  Biso   1.000  C
  C53      1.0000 0.31017  0.98496  0.45409  Biso   1.000  C
  C54      1.0000 0.55744  0.80564  0.50698  Biso   1.000  C
  C55      1.0000 0.48873  0.53461  0.83367  Biso   1.000  C
  C56      1.0000 0.67229  0.48300  0.07226  Biso   1.000  C
  C57      1.0000 0.42594  0.30689  0.03422  Biso   1.000  C
  C58      1.0000 0.98822  0.54630  0.69370  Biso   1.000  C
  C59      1.0000 0.17083  0.49077  0.46383  Biso   1.000  C
  C60      1.0000 0.93616  0.30177  0.51909  Biso   1.000  C
  C61      1.0000 0.99148  0.92657  0.19454  Biso   1.000  C
  C62      1.0000 0.17113  0.99822  0.95510  Biso   1.000  C
  C63      1.0000 0.92917  0.16834  0.01999  Biso   1.000  C
  C64      1.0000 0.49765  0.94228  0.33339  Biso   1.000  C
  C65      1.0000 0.66407  0.98061  0.58030  Biso   1.000  C
  C66      1.0000 0.43368  0.16427  0.53030  Biso   1.000  C
  C67      1.0000 0.49652  0.43847  0.20121  Biso   1.000  C
  C68      1.0000 0.31521  0.49048  0.96848  Biso   1.000  C
  C69      1.0000 0.55886  0.66741  0.00688  Biso   1.000  C
  C70      1.0000 0.99830  0.42630  0.33450  Biso   1.000  C
  C71      1.0000 0.81751  0.48367  0.57005  Biso   1.000  C
  C72      1.0000 0.05228  0.66544  0.49707  Biso   1.000  C
  C73      1.0000 0.00198  0.53430  0.32970  Biso   1.000  C
  C74      1.0000 0.30860  0.97909  0.56237  Biso   1.000  C
  C75      1.0000 0.53433  0.30081  0.02608  Biso   1.000  C
  C76      1.0000 0.49822  0.55072  0.19537  Biso   1.000  C
  C77      1.0000 0.81226  0.97363  0.97486  Biso   1.000  C
  C78      1.0000 0.04278  0.31176  0.53175  Biso   1.000  C
  C79      1.0000 0.49815  0.05085  0.34442  Biso   1.000  C
  C80      1.0000 0.17418  0.49247  0.57286  Biso   1.000  C
  C81      1.0000 0.94378  0.80770  0.02061  Biso   1.000  C
  C82      1.0000 0.00739  0.03389  0.20165  Biso   1.000  C
  C83      1.0000 0.67417  0.48234  0.96427  Biso   1.000  C
  C84      1.0000 0.44879  0.80817  0.50001  Biso   1.000  C
  C85      1.0000 0.99796  0.43911  0.70076  Biso   1.000  C
  C86      1.0000 0.67268  0.99644  0.46841  Biso   1.000  C
  C87      1.0000 0.44729  0.66929  0.00713  Biso   1.000  C
  C88      1.0000 0.49837  0.42585  0.84219  Biso   1.000  C
  C89      1.0000 0.17690  0.99452  0.06203  Biso   1.000  C
  C90      1.0000 0.94749  0.67169  0.51469  Biso   1.000  C
  C91      1.0000 0.46729  0.92356  0.69218  Biso   1.000  C
  C92      1.0000 0.81893  0.47935  0.46046  Biso   1.000  C
  C93      1.0000 0.03528  0.16545  0.03897  Biso   1.000  C
  C94      1.0000 0.98738  0.93482  0.83355  Biso   1.000  C
  C95      1.0000 0.31333  0.50752  0.07527  Biso   1.000  C
  C96      1.0000 0.54145  0.16315  0.53485  Biso   1.000  C
  C97      1.0000 0.66493  0.07158  0.52766  Biso   1.000  C
  C98      1.0000 0.50116  0.67153  0.08955  Biso   1.000  C
  C99      1.0000 0.08150  0.49663  0.70248  Biso   1.000  C
  C100     1.0000 0.17350  0.08209  0.02000  Biso   1.000  C
  C101     1.0000 0.00217  0.66364  0.42085  Biso   1.000  C
  C102     1.0000 0.57836  0.47733  0.83679  Biso   1.000  C
  C103     1.0000 0.81981  0.57070  0.51403  Biso   1.000  C
  C104     1.0000 0.97986  0.16863  0.11561  Biso   1.000  C
  C105     1.0000 0.39511  0.98977  0.69710  Biso   1.000  C
  C106     1.0000 0.31380  0.58486  0.01391  Biso   1.000  C
  C107     1.0000 0.49585  0.16875  0.44826  Biso   1.000  C
  C108     1.0000 0.89700  0.97945  0.84031  Biso   1.000  C
  C109     1.0000 0.31619  0.89325  0.50427  Biso   1.000  C
  C110     1.0000 0.48173  0.30210  0.94403  Biso   1.000  C
  C111     1.0000 0.91361  0.48104  0.33267  Biso   1.000  C
  C112     1.0000 0.82040  0.90252  0.04611  Biso   1.000  C
  C113     1.0000 0.98725  0.30610  0.61146  Biso   1.000  C
  C114     1.0000 0.41309  0.49595  0.19755  Biso   1.000  C
  C115     1.0000 0.17031  0.40118  0.51329  Biso   1.000  C
  C116     1.0000 0.99274  0.80690  0.92380  Biso   1.000  C
  C117     1.0000 0.58550  0.99665  0.33963  Biso   1.000  C
  C118     1.0000 0.66408  0.39652  0.01963  Biso   1.000  C
  C119     1.0000 0.49055  0.80278  0.58782  Biso   1.000  C
  C120     1.0000 0.08484  0.97941  0.19416  Biso   1.000  C
  C121     1.0000 0.81771  0.00461  0.10868  Biso   1.000  C
  C122     1.0000 0.08376  0.80959  0.00600  Biso   1.000  C
  C123     1.0000 0.98085  0.07567  0.84326  Biso   1.000  C
  C124     1.0000 0.31045  0.98782  0.42108  Biso   1.000  C
  C125     1.0000 0.58947  0.80423  0.50410  Biso   1.000  C
  C126     1.0000 0.49883  0.05702  0.70663  Biso   1.000  C
  C127     1.0000 0.67153  0.48788  0.10461  Biso   1.000  C
  C128     1.0000 0.39405  0.30941  0.03467  Biso   1.000  C
  C129     1.0000 0.48238  0.56638  0.83068  Biso   1.000  C
  C130     1.0000 0.17138  0.49349  0.43200  Biso   1.000  C
  C131     1.0000 0.90439  0.30129  0.51448  Biso   1.000  C
  C132     1.0000 0.98839  0.57956  0.69086  Biso   1.000  C
  C133     1.0000 0.16940  0.99339  0.92288  Biso   1.000  C
  C134     1.0000 0.89740  0.16848  0.02003  Biso   1.000  C
  C135     1.0000 0.98658  0.89514  0.19452  Biso   1.000  C
  C136     1.0000 0.66477  0.97706  0.61203  Biso   1.000  C
  C137     1.0000 0.40286  0.16579  0.52374  Biso   1.000  C
  C138     1.0000 0.49736  0.91017  0.32872  Biso   1.000  C
  C139     1.0000 0.31384  0.48551  0.93690  Biso   1.000  C
  C140     1.0000 0.59102  0.66624  0.00781  Biso   1.000  C
  C141     1.0000 0.50138  0.40679  0.20444  Biso   1.000  C
  C142     1.0000 0.81487  0.48229  0.60194  Biso   1.000  C
  C143     1.0000 0.08355  0.66541  0.49225  Biso   1.000  C
  C144     1.0000 0.99467  0.39542  0.33682  Biso   1.000  C
  C145     1.0000 0.31500  0.50531  0.10670  Biso   1.000  C
  C146     1.0000 0.07455  0.31082  0.53422  Biso   1.000  C
  C147     1.0000 0.50222  0.08208  0.34576  Biso   1.000  C
  C148     1.0000 0.81792  0.48095  0.42745  Biso   1.000  C
  C149     1.0000 0.56671  0.29874  0.02980  Biso   1.000  C
  C150     1.0000 0.00657  0.06695  0.20355  Biso   1.000  C
  C151     1.0000 0.17984  0.99170  0.09502  Biso   1.000  C
  C152     1.0000 0.41736  0.80609  0.49905  Biso   1.000  C
  C153     1.0000 0.99791  0.56603  0.32755  Biso   1.000  C
  C154     1.0000 0.67588  0.00147  0.43658  Biso   1.000  C
  C155     1.0000 0.91290  0.80705  0.02810  Biso   1.000  C
  C156     1.0000 0.49443  0.58337  0.19180  Biso   1.000  C
  C157     1.0000 0.67577  0.47988  0.93055  Biso   1.000  C
  C158     1.0000 0.91560  0.67241  0.51626  Biso   1.000  C
  C159     1.0000 0.46465  0.89117  0.68876  Biso   1.000  C
  C160     1.0000 0.17557  0.49271  0.60525  Biso   1.000  C
  C161     1.0000 0.41480  0.67252  0.00602  Biso   1.000  C
  C162     1.0000 0.99201  0.90302  0.83281  Biso   1.000  C
  C163     1.0000 0.80872  0.97255  0.94346  Biso   1.000  C
  C164     1.0000 0.57258  0.16304  0.53286  Biso   1.000  C
  C165     1.0000 0.99969  0.40700  0.70279  Biso   1.000  C
  C166     1.0000 0.30741  0.97606  0.59397  Biso   1.000  C
  C167     1.0000 0.06851  0.16617  0.03710  Biso   1.000  C
  C168     1.0000 0.50418  0.39445  0.84574  Biso   1.000  C
  C169     1.0000 0.99608  0.80487  0.09615  Biso   1.000  C
  C170     1.0000 0.06927  0.99686  0.83381  Biso   1.000  C
  C171     1.0000 0.80513  0.07223  0.01203  Biso   1.000  C
  C172     1.0000 0.49958  0.80677  0.41692  Biso   1.000  C
  C173     1.0000 0.56519  0.95391  0.70117  Biso   1.000  C
  C174     1.0000 0.30873  0.07095  0.50841  Biso   1.000  C
  C175     1.0000 0.48764  0.30260  0.11776  Biso   1.000  C
  C176     1.0000 0.40795  0.47517  0.84021  Biso   1.000  C
  C177     1.0000 0.68330  0.56895  0.01162  Biso   1.000  C
  C178     1.0000 0.00175  0.30503  0.43930  Biso   1.000  C
  C179     1.0000 0.90740  0.48003  0.69554  Biso   1.000  C
  C180     1.0000 0.17951  0.57577  0.51018  Biso   1.000  C
  C181     1.0000 0.98981  0.17063  0.94331  Biso   1.000  C
  C182     1.0000 0.91296  0.99597  0.20361  Biso   1.000  C
  C183     1.0000 0.17317  0.90895  0.01284  Biso   1.000  C
  C184     1.0000 0.48205  0.15364  0.62062  Biso   1.000  C
  C185     1.0000 0.41321  0.98528  0.33549  Biso   1.000  C
  C186     1.0000 0.67889  0.90274  0.51966  Biso   1.000  C
  C187     1.0000 0.49610  0.66891  0.91972  Biso   1.000  C
  C188     1.0000 0.58297  0.48251  0.19987  Biso   1.000  C
  C189     1.0000 0.30978  0.41217  0.03977  Biso   1.000  C
  C190     1.0000 0.00433  0.66949  0.59135  Biso   1.000  C
  C191     1.0000 0.08502  0.47594  0.33070  Biso   1.000  C
  C192     1.0000 0.81009  0.39693  0.51582  Biso   1.000  C
  C193     1.0000 0.83559  0.97978  0.92358  Biso   1.000  C
  C194     1.0000 0.89708  0.83374  0.03161  Biso   1.000  C
  C195     1.0000 0.99121  0.88504  0.85855  Biso   1.000  C
  C196     1.0000 0.33329  0.97985  0.61147  Biso   1.000  C
  C197     1.0000 0.39717  0.83164  0.50467  Biso   1.000  C
  C198     1.0000 0.47448  0.87835  0.66206  Biso   1.000  C
  C199     1.0000 0.64955  0.47557  0.91531  Biso   1.000  C
  C200     1.0000 0.58135  0.32724  0.02856  Biso   1.000  C
  C201     1.0000 0.50024  0.37969  0.87303  Biso   1.000  C
  C202     1.0000 0.14886  0.49344  0.62174  Biso   1.000  C
  C203     1.0000 0.09172  0.33696  0.53063  Biso   1.000  C
  C204     1.0000 0.99734  0.38955  0.67668  Biso   1.000  C
  C205     1.0000 0.15148  0.99048  0.11109  Biso   1.000  C
  C206     1.0000 0.08708  0.14155  0.02987  Biso   1.000  C
  C207     1.0000 0.00188  0.08547  0.17895  Biso   1.000  C
  C208     1.0000 0.65018  0.99758  0.41833  Biso   1.000  C
  C209     1.0000 0.58855  0.13686  0.53022  Biso   1.000  C
  C210     1.0000 0.50084  0.09434  0.37538  Biso   1.000  C
  C211     1.0000 0.34175  0.50046  0.12204  Biso   1.000  C
  C212     1.0000 0.39645  0.64663  0.00698  Biso   1.000  C
  C213     1.0000 0.49208  0.59632  0.16257  Biso   1.000  C
  C214     1.0000 0.84453  0.47878  0.41000  Biso   1.000  C
  C215     1.0000 0.90017  0.64391  0.51836  Biso   1.000  C
  C216     1.0000 0.99889  0.58252  0.35497  Biso   1.000  C
  C217     1.0000 0.08670  0.99756  0.85930  Biso   1.000  C
  C218     1.0000 0.83205  0.08821  0.01368  Biso   1.000  C
  C219     1.0000 0.99389  0.83084  0.11304  Biso   1.000  C
  C220     1.0000 0.58248  0.95965  0.67550  Biso   1.000  C
  C221     1.0000 0.33386  0.08898  0.50910  Biso   1.000  C
  C222     1.0000 0.49831  0.83587  0.40349  Biso   1.000  C
  C223     1.0000 0.39283  0.47954  0.86759  Biso   1.000  C
  C224     1.0000 0.65622  0.58575  0.00942  Biso   1.000  C
  C225     1.0000 0.48942  0.33188  0.13083  Biso   1.000  C
  C226     1.0000 0.89164  0.48158  0.66917  Biso   1.000  C
  C227     1.0000 0.15254  0.59155  0.50827  Biso   1.000  C
  C228     1.0000 0.99616  0.33045  0.42064  Biso   1.000  C
  C229     1.0000 0.89707  0.99755  0.17592  Biso   1.000  C
  C230     1.0000 0.14800  0.89100  0.01316  Biso   1.000  C
  C231     1.0000 0.98847  0.14391  0.92630  Biso   1.000  C
  C232     1.0000 0.39584  0.98555  0.36142  Biso   1.000  C
  C233     1.0000 0.65255  0.88411  0.51811  Biso   1.000  C
  C234     1.0000 0.48731  0.12701  0.63528  Biso   1.000  C
  C235     1.0000 0.59867  0.47986  0.17324  Biso   1.000  C
  C236     1.0000 0.33464  0.39344  0.03689  Biso   1.000  C
  C237     1.0000 0.49330  0.64097  0.90502  Biso   1.000  C
  C238     1.0000 0.09883  0.47920  0.35921  Biso   1.000  C
  C239     1.0000 0.83848  0.38200  0.51324  Biso   1.000  C
  C240     1.0000 0.00242  0.64239  0.60825  Biso   1.000  C
  C241     1.0000 0.59586  0.47918  0.86296  Biso   1.000  C
  C242     1.0000 0.84633  0.58768  0.51563  Biso   1.000  C
  C243     1.0000 0.48834  0.82879  0.60701  Biso   1.000  C
  C244     1.0000 0.09702  0.49730  0.67610  Biso   1.000  C
  C245     1.0000 0.34220  0.59930  0.01620  Biso   1.000  C
  C246     1.0000 0.99187  0.83299  0.90764  Biso   1.000  C
  C247     1.0000 0.88298  0.98305  0.86820  Biso   1.000  C
  C248     1.0000 0.63749  0.08708  0.52721  Biso   1.000  C
  C249     1.0000 0.99096  0.33380  0.62615  Biso   1.000  C
  C250     1.0000 0.38090  0.98777  0.66764  Biso   1.000  C
  C251     1.0000 0.14363  0.09343  0.02539  Biso   1.000  C
  C252     1.0000 0.49109  0.32848  0.92695  Biso   1.000  C
  C253     1.0000 0.39565  0.49533  0.17145  Biso   1.000  C
  C254     1.0000 0.14364  0.38493  0.51996  Biso   1.000  C
  C255     1.0000 0.49734  0.14227  0.43089  Biso   1.000  C
  C256     1.0000 0.89716  0.48208  0.35856  Biso   1.000  C
  C257     1.0000 0.63543  0.38144  0.02191  Biso   1.000  C
  C258     1.0000 0.98251  0.14105  0.13098  Biso   1.000  C
  C259     1.0000 0.09946  0.98492  0.16680  Biso   1.000  C
  C260     1.0000 0.34390  0.87909  0.50548  Biso   1.000  C
  C261     1.0000 0.00259  0.63716  0.40421  Biso   1.000  C
  C262     1.0000 0.60256  0.99378  0.36533  Biso   1.000  C
  C263     1.0000 0.84790  0.88677  0.04248  Biso   1.000  C
  C264     1.0000 0.49656  0.64530  0.10666  Biso   1.000  C
  C265     1.0000 0.98107  0.09145  0.87111  Biso   1.000  C
  C266     1.0000 0.84482  0.00239  0.12561  Biso   1.000  C
  C267     1.0000 0.09959  0.83754  0.00904  Biso   1.000  C
  C268     1.0000 0.49488  0.07352  0.68088  Biso   1.000  C
  C269     1.0000 0.33820  0.98826  0.40779  Biso   1.000  C
  C270     1.0000 0.60552  0.83090  0.50547  Biso   1.000  C
  C271     1.0000 0.48277  0.58410  0.85700  Biso   1.000  C
  C272     1.0000 0.64499  0.48702  0.12209  Biso   1.000  C
  C273     1.0000 0.38004  0.33726  0.03616  Biso   1.000  C
  C274     1.0000 0.99267  0.59348  0.66268  Biso   1.000  C
  C275     1.0000 0.14494  0.48597  0.41462  Biso   1.000  C
  C276     1.0000 0.88910  0.32829  0.51674  Biso   1.000  C
  C277     1.0000 0.98805  0.88085  0.16662  Biso   1.000  C
  C278     1.0000 0.14151  0.99763  0.90762  Biso   1.000  C
  C279     1.0000 0.88234  0.14018  0.01848  Biso   1.000  C
  C280     1.0000 0.49446  0.89161  0.35440  Biso   1.000  C
  C281     1.0000 0.63735  0.97036  0.62634  Biso   1.000  C
  C282     1.0000 0.38567  0.13806  0.51898  Biso   1.000  C
  C283     1.0000 0.49792  0.38843  0.17908  Biso   1.000  C
  C284     1.0000 0.34028  0.48378  0.91996  Biso   1.000  C
  C285     1.0000 0.60698  0.63828  0.00951  Biso   1.000  C
  C286     1.0000 0.99578  0.38185  0.36501  Biso   1.000  C
  C287     1.0000 0.84100  0.48135  0.61747  Biso   1.000  C
  C288     1.0000 0.09963  0.64063  0.49947  Biso   1.000  C
  C289     1.0000 0.34416  0.84794  0.50004  Biso   1.000  C
  C290     1.0000 0.49507  0.32688  0.89498  Biso   1.000  C
  C291     1.0000 0.86434  0.48396  0.35710  Biso   1.000  C
  C292     1.0000 0.84584  0.85411  0.04141  Biso   1.000  C
  C293     1.0000 0.99256  0.33444  0.65882  Biso   1.000  C
  C294     1.0000 0.36433  0.49611  0.17323  Biso   1.000  C
  C295     1.0000 0.14523  0.35447  0.52593  Biso   1.000  C
  C296     1.0000 0.99351  0.83157  0.87682  Biso   1.000  C
  C297     1.0000 0.63361  0.99626  0.36473  Biso   1.000  C
  C298     1.0000 0.63450  0.34910  0.02232  Biso   1.000  C
  C299     1.0000 0.48032  0.82678  0.63666  Biso   1.000  C
  C300     1.0000 0.13136  0.98543  0.16560  Biso   1.000  C
  C301     1.0000 0.63932  0.11827  0.52891  Biso   1.000  C
  C302     1.0000 0.49373  0.64867  0.13799  Biso   1.000  C
  C303     1.0000 0.12796  0.49634  0.67625  Biso   1.000  C
  C304     1.0000 0.14133  0.12548  0.02929  Biso   1.000  C
  C305     1.0000 0.99689  0.63924  0.37395  Biso   1.000  C
  C306     1.0000 0.62724  0.47839  0.86268  Biso   1.000  C
  C307     1.0000 0.84709  0.62002  0.51750  Biso   1.000  C
  C308     1.0000 0.98993  0.13939  0.16132  Biso   1.000  C
  C309     1.0000 0.34991  0.98413  0.66616  Biso   1.000  C
  C310     1.0000 0.34243  0.63110  0.01320  Biso   1.000  C
  C311     1.0000 0.49843  0.14572  0.40014  Biso   1.000  C
  C312     1.0000 0.85232  0.97732  0.86910  Biso   1.000  C
  C313     1.0000 0.14997  0.48774  0.38364  Biso   1.000  C
  C314     1.0000 0.35500  0.13992  0.51929  Biso   1.000  C
  C315     1.0000 0.49787  0.35585  0.18232  Biso   1.000  C
  C316     1.0000 0.64888  0.48388  0.15265  Biso   1.000  C
  C317     1.0000 0.85065  0.14059  0.01732  Biso   1.000  C
  C318     1.0000 0.99890  0.34993  0.36596  Biso   1.000  C
  C319     1.0000 0.33953  0.98175  0.37630  Biso   1.000  C
  C320     1.0000 0.13145  0.64294  0.49946  Biso   1.000  C
  C321     1.0000 0.99120  0.84881  0.16599  Biso   1.000  C
  C322     1.0000 0.84360  0.00220  0.15700  Biso   1.000  C
  C323     1.0000 0.63761  0.63946  0.01555  Biso   1.000  C
  C324     1.0000 0.49552  0.86130  0.35272  Biso   1.000  C
  C325     1.0000 0.83869  0.48198  0.64815  Biso   1.000  C
  C326     1.0000 0.63709  0.83004  0.50842  Biso   1.000  C
  C327     1.0000 0.48265  0.61590  0.85392  Biso   1.000  C
  C328     1.0000 0.33908  0.48282  0.88878  Biso   1.000  C
  C329     1.0000 0.13071  0.83725  0.00675  Biso   1.000  C
  C330     1.0000 0.99708  0.62406  0.66166  Biso   1.000  C
  C331     1.0000 0.63578  0.96545  0.65719  Biso   1.000  C
  C332     1.0000 0.85842  0.32751  0.51623  Biso   1.000  C
  C333     1.0000 0.98495  0.12326  0.87219  Biso   1.000  C
  C334     1.0000 0.14117  0.99529  0.87673  Biso   1.000  C
  C335     1.0000 0.34898  0.33727  0.04042  Biso   1.000  C
  C336     1.0000 0.49249  0.10421  0.68612  Biso   1.000  C
  C337     1.0000 0.64877  0.47855  0.88361  Biso   1.000  C
  C338     1.0000 0.86828  0.64225  0.52007  Biso   1.000  C
  C339     1.0000 0.47360  0.84628  0.65916  Biso   1.000  C
  C340     1.0000 0.14879  0.49625  0.65448  Biso   1.000  C
  C341     1.0000 0.36504  0.65078  0.01027  Biso   1.000  C
  C342     1.0000 0.99280  0.85402  0.85606  Biso   1.000  C
  C343     1.0000 0.83176  0.97621  0.89178  Biso   1.000  C
  C344     1.0000 0.61939  0.13952  0.53039  Biso   1.000  C
  C345     1.0000 0.99592  0.35701  0.67881  Biso   1.000  C
  C346     1.0000 0.33028  0.98210  0.64315  Biso   1.000  C
  C347     1.0000 0.11874  0.14478  0.03196  Biso   1.000  C
  C348     1.0000 0.49820  0.34906  0.87313  Biso   1.000  C
  C349     1.0000 0.34144  0.49864  0.15298  Biso   1.000  C
  C350     1.0000 0.12306  0.33262  0.53148  Biso   1.000  C
  C351     1.0000 0.50148  0.12559  0.37755  Biso   1.000  C
  C352     1.0000 0.84378  0.48298  0.37941  Biso   1.000  C
  C353     1.0000 0.61216  0.32729  0.02501  Biso   1.000  C
  C354     1.0000 0.99710  0.11703  0.18171  Biso   1.000  C
  C355     1.0000 0.15315  0.98918  0.14317  Biso   1.000  C
  C356     1.0000 0.36636  0.82792  0.49963  Biso   1.000  C
  C357     1.0000 0.99547  0.61479  0.35309  Biso   1.000  C
  C358     1.0000 0.65462  0.99765  0.38703  Biso   1.000  C
  C359     1.0000 0.86632  0.83296  0.03651  Biso   1.000  C
  C360     1.0000 0.49150  0.62802  0.16014  Biso   1.000  C
  C361     1.0000 0.98850  0.14492  0.89480  Biso   1.000  C
  C362     1.0000 0.86575  0.00206  0.17781  Biso   1.000  C
  C363     1.0000 0.15083  0.86028  0.00950  Biso   1.000  C
  C364     1.0000 0.48868  0.12732  0.66594  Biso   1.000  C
  C365     1.0000 0.36410  0.98224  0.35762  Biso   1.000  C
  C366     1.0000 0.65676  0.85291  0.51330  Biso   1.000  C
  C367     1.0000 0.48660  0.63904  0.87434  Biso   1.000  C
  C368     1.0000 0.62913  0.48164  0.17539  Biso   1.000  C
  C369     1.0000 0.32912  0.36237  0.03929  Biso   1.000  C
  C370     1.0000 0.00047  0.64496  0.63982  Biso   1.000  C
  C371     1.0000 0.13015  0.48441  0.36064  Biso   1.000  C
  C372     1.0000 0.83731  0.34983  0.51646  Biso   1.000  C
  C373     1.0000 0.99105  0.82738  0.14509  Biso   1.000  C
  C374     1.0000 0.11816  0.99526  0.85714  Biso   1.000  C
  C375     1.0000 0.82957  0.11905  0.01451  Biso   1.000  C
  C376     1.0000 0.49516  0.83678  0.37204  Biso   1.000  C
  C377     1.0000 0.61387  0.96100  0.67779  Biso   1.000  C
  C378     1.0000 0.33207  0.11931  0.51626  Biso   1.000  C
  C379     1.0000 0.49509  0.33293  0.16210  Biso   1.000  C
  C380     1.0000 0.36133  0.47995  0.86783  Biso   1.000  C
  C381     1.0000 0.65882  0.61705  0.01490  Biso   1.000  C
  C382     1.0000 0.99969  0.32836  0.38934  Biso   1.000  C
  C383     1.0000 0.85979  0.48068  0.66941  Biso   1.000  C
  C384     1.0000 0.15306  0.62245  0.50392  Biso   1.000  C
  C385     1.0000 0.16701  0.14428  0.03130  Biso   1.000  C
  C386     1.0000 0.99135  0.16515  0.17838  Biso   1.000  C
  C387     1.0000 0.14710  0.98123  0.19127  Biso   1.000  C
  C388     1.0000 0.66663  0.13324  0.52850  Biso   1.000  C
  C389     1.0000 0.50038  0.17324  0.38695  Biso   1.000  C
  C390     1.0000 0.64896  0.99793  0.33827  Biso   1.000  C
  C391     1.0000 0.31654  0.64899  0.01191  Biso   1.000  C
  C392     1.0000 0.49256  0.67598  0.15244  Biso   1.000  C
  C393     1.0000 0.35046  0.49570  0.20117  Biso   1.000  C
  C394     1.0000 0.81967  0.63621  0.51829  Biso   1.000  C
  C395     1.0000 0.99245  0.66475  0.35788  Biso   1.000  C
  C396     1.0000 0.84940  0.48559  0.33064  Biso   1.000  C
  C397     1.0000 0.81811  0.83799  0.04468  Biso   1.000  C
  C398     1.0000 0.99434  0.80572  0.86033  Biso   1.000  C
  C399     1.0000 0.83408  0.97185  0.84451  Biso   1.000  C
  C400     1.0000 0.31861  0.83095  0.49327  Biso   1.000  C
  C401     1.0000 0.47676  0.79893  0.64984  Biso   1.000  C
  C402     1.0000 0.33272  0.98458  0.69288  Biso   1.000  C
  C403     1.0000 0.66213  0.33525  0.02092  Biso   1.000  C
  C404     1.0000 0.49270  0.29978  0.87963  Biso   1.000  C
  C405     1.0000 0.64281  0.47729  0.83474  Biso   1.000  C
  C406     1.0000 0.17146  0.33902  0.52694  Biso   1.000  C
  C407     1.0000 0.99334  0.30803  0.67648  Biso   1.000  C
  C408     1.0000 0.14414  0.49446  0.70319  Biso   1.000  C
  C409     1.0000 0.13283  0.99253  0.82969  Biso   1.000  C
  C410     1.0000 0.80124  0.13360  0.01701  Biso   1.000  C
  C411     1.0000 0.98875  0.79948  0.15959  Biso   1.000  C
  C412     1.0000 0.62894  0.95552  0.70515  Biso   1.000  C
  C413     1.0000 0.30610  0.13450  0.51951  Biso   1.000  C
  C414     1.0000 0.49683  0.81137  0.35457  Biso   1.000  C
  C415     1.0000 0.34401  0.47936  0.84128  Biso   1.000  C
  C416     1.0000 0.68479  0.63224  0.02380  Biso   1.000  C
  C417     1.0000 0.49588  0.30697  0.18118  Biso   1.000  C
  C418     1.0000 0.84376  0.47893  0.69641  Biso   1.000  C
  C419     1.0000 0.18018  0.63842  0.49981  Biso   1.000  C
  C420     1.0000 0.00514  0.30160  0.37520  Biso   1.000  C
  C421     1.0000 0.85039  0.00444  0.20536  Biso   1.000  C
  C422     1.0000 0.17772  0.84719  0.00566  Biso   1.000  C
  C423     1.0000 0.99353  0.17135  0.87953  Biso   1.000  C
  C424     1.0000 0.35171  0.97712  0.33016  Biso   1.000  C
  C425     1.0000 0.68548  0.84049  0.51226  Biso   1.000  C
  C426     1.0000 0.48655  0.15319  0.68327  Biso   1.000  C
  C427     1.0000 0.64474  0.48512  0.20200  Biso   1.000  C
  C428     1.0000 0.30079  0.34975  0.04282  Biso   1.000  C
  C429     1.0000 0.48492  0.66466  0.85710  Biso   1.000  C
  C430     1.0000 0.14777  0.48664  0.33409  Biso   1.000  C
  C431     1.0000 0.81079  0.33388  0.51816  Biso   1.000  C
  C432     1.0000 0.00364  0.67177  0.65467  Biso   1.000  C
  C433     1.0000 0.98937  0.13860  0.84493  Biso   1.000  C
  C434     1.0000 0.81779  0.00474  0.17234  Biso   1.000  C
  C435     1.0000 0.14771  0.81161  0.00269  Biso   1.000  C
  C436     1.0000 0.49369  0.11998  0.71417  Biso   1.000  C
  C437     1.0000 0.31553  0.97654  0.35800  Biso   1.000  C
  C438     1.0000 0.65471  0.80542  0.50646  Biso   1.000  C
  C439     1.0000 0.47869  0.62955  0.82531  Biso   1.000  C
  C440     1.0000 0.67622  0.48708  0.16757  Biso   1.000  C
  C441     1.0000 0.33088  0.31354  0.04148  Biso   1.000  C
  C442     1.0000 0.99870  0.64057  0.68877  Biso   1.000  C
  C443     1.0000 0.17760  0.49396  0.37023  Biso   1.000  C
  C444     1.0000 0.84246  0.29950  0.51692  Biso   1.000  C
  C445     1.0000 0.98669  0.83121  0.19237  Biso   1.000  C
  C446     1.0000 0.16620  0.98824  0.85971  Biso   1.000  C
  C447     1.0000 0.83427  0.16724  0.01930  Biso   1.000  C
  C448     1.0000 0.49701  0.84687  0.32443  Biso   1.000  C
  C449     1.0000 0.66113  0.96437  0.67468  Biso   1.000  C
  C450     1.0000 0.33940  0.16632  0.52322  Biso   1.000  C
  C451     1.0000 0.49970  0.34281  0.21031  Biso   1.000  C
  C452     1.0000 0.31178  0.48411  0.87364  Biso   1.000  C
  C453     1.0000 0.65310  0.66663  0.02308  Biso   1.000  C
  C454     1.0000 0.00120  0.33279  0.34062  Biso   1.000  C
  C455     1.0000 0.81181  0.48162  0.66394  Biso   1.000  C
  C456     1.0000 0.14662  0.67058  0.49517  Biso   1.000  C
  C457     1.0000 0.99137  0.63012  0.32598  Biso   1.000  C
  C458     1.0000 0.30160  0.97950  0.65776  Biso   1.000  C
  C459     1.0000 0.62923  0.30173  0.02403  Biso   1.000  C
  C460     1.0000 0.48970  0.64592  0.18734  Biso   1.000  C
  C461     1.0000 0.80377  0.97076  0.87904  Biso   1.000  C
  C462     1.0000 0.13839  0.30571  0.53639  Biso   1.000  C
  C463     1.0000 0.50572  0.14312  0.35254  Biso   1.000  C
  C464     1.0000 0.17594  0.49897  0.66987  Biso   1.000  C
  C465     1.0000 0.85108  0.80691  0.03849  Biso   1.000  C
  C466     1.0000 0.99789  0.13118  0.20993  Biso   1.000  C
  C467     1.0000 0.67499  0.47988  0.86663  Biso   1.000  C
  C468     1.0000 0.35312  0.80027  0.49252  Biso   1.000  C
  C469     1.0000 0.99623  0.34261  0.70707  Biso   1.000  C
  C470     1.0000 0.68072  0.00311  0.37174  Biso   1.000  C
  C471     1.0000 0.35222  0.67837  0.00795  Biso   1.000  C
  C472     1.0000 0.49911  0.33239  0.84656  Biso   1.000  C
  C473     1.0000 0.18027  0.98525  0.15744  Biso   1.000  C
  C474     1.0000 0.85213  0.66890  0.52021  Biso   1.000  C
  C475     1.0000 0.46504  0.82765  0.68281  Biso   1.000  C
  C476     1.0000 0.81608  0.48505  0.36420  Biso   1.000  C
  C477     1.0000 0.13087  0.17304  0.03621  Biso   1.000  C
  C478     1.0000 0.99396  0.83843  0.82751  Biso   1.000  C
  C479     1.0000 0.31469  0.50010  0.16990  Biso   1.000  C
  C480     1.0000 0.63524  0.16590  0.53229  Biso   1.000  C
  C481     1.0000 0.37182  0.77520  0.48734  Biso   1.000  C
  C482     1.0000 0.50790  0.34621  0.81955  Biso   1.000  C
  C483     1.0000 0.78926  0.48762  0.38105  Biso   1.000  C
  C484     1.0000 0.86691  0.77921  0.03484  Biso   1.000  C
  C485     1.0000 0.99458  0.36110  0.73174  Biso   1.000  C
  C486     1.0000 0.28671  0.50085  0.15462  Biso   1.000  C
  C487     1.0000 0.11872  0.28135  0.54222  Biso   1.000  C
  C488     1.0000 0.99293  0.85569  0.80158  Biso   1.000  C
  C489     1.0000 0.70576  0.00571  0.39024  Biso   1.000  C
  C490     1.0000 0.61509  0.27261  0.02835  Biso   1.000  C
  C491     1.0000 0.45395  0.84056  0.70950  Biso   1.000  C
  C492     1.0000 0.20737  0.98213  0.14034  Biso   1.000  C
  C493     1.0000 0.61933  0.19222  0.53630  Biso   1.000  C
  C494     1.0000 0.48736  0.63164  0.21552  Biso   1.000  C
  C495     1.0000 0.20379  0.49796  0.65389  Biso   1.000  C
  C496     1.0000 0.11345  0.19921  0.04258  Biso   1.000  C
  C497     1.0000 0.98897  0.61507  0.29858  Biso   1.000  C
  C498     1.0000 0.70304  0.48221  0.88268  Biso   1.000  C
  C499     1.0000 0.86838  0.69731  0.52007  Biso   1.000  C
  C500     1.0000 0.00205  0.11349  0.23620  Biso   1.000  C
  C501     1.0000 0.27636  0.97438  0.63991  Biso   1.000  C
  C502     1.0000 0.36968  0.70500  0.00537  Biso   1.000  C
  C503     1.0000 0.50646  0.13092  0.32443  Biso   1.000  C
  C504     1.0000 0.77920  0.96665  0.89906  Biso   1.000  C
  C505     1.0000 0.62548  0.47268  0.80939  Biso   1.000  C
  C506     1.0000 0.79241  0.61959  0.51962  Biso   1.000  C
  C507     1.0000 0.47976  0.77206  0.63287  Biso   1.000  C
  C508     1.0000 0.12713  0.49299  0.72979  Biso   1.000  C
  C509     1.0000 0.28905  0.63400  0.01180  Biso   1.000  C
  C510     1.0000 0.99083  0.77851  0.87818  Biso   1.000  C
  C511     1.0000 0.84892  0.96856  0.81630  Biso   1.000  C
  C512     1.0000 0.69316  0.11676  0.52460  Biso   1.000  C
  C513     1.0000 0.99036  0.27994  0.65963  Biso   1.000  C
  C514     1.0000 0.34642  0.99033  0.72105  Biso   1.000  C
  C515     1.0000 0.19648  0.13250  0.02947  Biso   1.000  C
  C516     1.0000 0.48228  0.27449  0.89658  Biso   1.000  C
  C517     1.0000 0.36747  0.49664  0.22824  Biso   1.000  C
  C518     1.0000 0.19641  0.35344  0.51673  Biso   1.000  C
  C519     1.0000 0.49896  0.19920  0.40367  Biso   1.000  C
  C520     1.0000 0.86629  0.48346  0.30440  Biso   1.000  C
  C521     1.0000 0.68975  0.34898  0.01763  Biso   1.000  C
  C522     1.0000 0.98979  0.19359  0.16409  Biso   1.000  C
  C523     1.0000 0.13202  0.98080  0.21872  Biso   1.000  C
  C524     1.0000 0.29015  0.84437  0.49723  Biso   1.000  C
  C525     1.0000 0.99535  0.69195  0.37518  Biso   1.000  C
  C526     1.0000 0.63110  0.99950  0.31148  Biso   1.000  C
  C527     1.0000 0.79201  0.85332  0.05302  Biso   1.000  C
  C528     1.0000 0.49516  0.70275  0.13414  Biso   1.000  C
  C529     1.0000 0.77395  0.11660  0.01820  Biso   1.000  C
  C530     1.0000 0.99269  0.77417  0.14406  Biso   1.000  C
  C531     1.0000 0.11439  0.99572  0.80319  Biso   1.000  C
  C532     1.0000 0.27881  0.11627  0.51754  Biso   1.000  C
  C533     1.0000 0.50245  0.78252  0.36732  Biso   1.000  C
  C534     1.0000 0.61130  0.94849  0.73152  Biso   1.000  C
  C535     1.0000 0.71220  0.61348  0.02803  Biso   1.000  C
  C536     1.0000 0.49365  0.27930  0.16802  Biso   1.000  C
  C537     1.0000 0.35859  0.47607  0.81381  Biso   1.000  C
  C538     1.0000 0.20680  0.62269  0.50126  Biso   1.000  C
  C539     1.0000 0.01167  0.27618  0.39444  Biso   1.000  C
  C540     1.0000 0.85998  0.47828  0.72448  Biso   1.000  C
  C541     1.0000 0.20479  0.86242  0.01088  Biso   1.000  C
  C542     1.0000 0.99853  0.19780  0.89739  Biso   1.000  C
  C543     1.0000 0.86560  0.00313  0.23304  Biso   1.000  C
  C544     1.0000 0.71154  0.85851  0.51569  Biso   1.000  C
  C545     1.0000 0.47797  0.17971  0.66680  Biso   1.000  C
  C546     1.0000 0.36986  0.97545  0.30378  Biso   1.000  C
  C547     1.0000 0.27683  0.36958  0.04773  Biso   1.000  C
  C548     1.0000 0.48802  0.69339  0.87063  Biso   1.000  C
  C549     1.0000 0.62704  0.48615  0.22825  Biso   1.000  C
  C550     1.0000 0.78262  0.34980  0.52013  Biso   1.000  C
  C551     1.0000 0.00864  0.69900  0.63790  Biso   1.000  C
  C552     1.0000 0.13221  0.48281  0.30582  Biso   1.000  C
  C553     1.0000 0.98849  0.12344  0.81713  Biso   1.000  C
  C554     1.0000 0.79055  0.00972  0.15610  Biso   1.000  C
  C555     1.0000 0.13297  0.78403  0.99818  Biso   1.000  C
  C556     1.0000 0.50192  0.10088  0.73979  Biso   1.000  C
  C557     1.0000 0.28657  0.97729  0.37133  Biso   1.000  C
  C558     1.0000 0.63836  0.77770  0.50081  Biso   1.000  C
  C559     1.0000 0.47353  0.61115  0.80025  Biso   1.000  C
  C560     1.0000 0.70208  0.48984  0.15036  Biso   1.000  C
  C561     1.0000 0.34487  0.28501  0.03934  Biso   1.000  C
  C562     1.0000 0.99035  0.62695  0.71562  Biso   1.000  C
  C563     1.0000 0.20158  0.50131  0.38802  Biso   1.000  C
  C564     1.0000 0.85832  0.27239  0.51297  Biso   1.000  C
  C565     1.0000 0.98290  0.84665  0.21927  Biso   1.000  C
  C566     1.0000 0.19357  0.98160  0.87540  Biso   1.000  C
  C567     1.0000 0.85168  0.19493  0.01894  Biso   1.000  C
  C568     1.0000 0.49598  0.86461  0.29772  Biso   1.000  C
  C569     1.0000 0.68885  0.96998  0.65959  Biso   1.000  C
  C570     1.0000 0.35668  0.19408  0.52497  Biso   1.000  C
  C571     1.0000 0.50521  0.36192  0.23634  Biso   1.000  C
  C572     1.0000 0.28364  0.48780  0.88999  Biso   1.000  C
  C573     1.0000 0.63584  0.69347  0.02259  Biso   1.000  C
  C574     1.0000 0.99731  0.34728  0.31140  Biso   1.000  C
  C575     1.0000 0.78487  0.48151  0.64734  Biso   1.000  C
  C576     1.0000 0.12806  0.69524  0.48780  Biso   1.000  C
  C577     1.0000 0.28644  0.50411  0.12329  Biso   1.000  C
  C578     1.0000 0.08779  0.28375  0.53970  Biso   1.000  C
  C579     1.0000 0.50595  0.10019  0.32071  Biso   1.000  C
  C580     1.0000 0.79086  0.48479  0.41302  Biso   1.000  C
  C581     1.0000 0.58378  0.27122  0.03122  Biso   1.000  C
  C582     1.0000 0.00704  0.08261  0.23186  Biso   1.000  C
  C583     1.0000 0.20588  0.98293  0.10900  Biso   1.000  C
  C584     1.0000 0.40407  0.77895  0.48805  Biso   1.000  C
  C585     1.0000 0.99151  0.58238  0.29920  Biso   1.000  C
  C586     1.0000 0.70281  0.00629  0.42220  Biso   1.000  C
  C587     1.0000 0.89849  0.78009  0.03186  Biso   1.000  C
  C588     1.0000 0.49275  0.60081  0.21787  Biso   1.000  C
  C589     1.0000 0.70285  0.48352  0.91471  Biso   1.000  C
  C590     1.0000 0.89963  0.69898  0.52007  Biso   1.000  C
  C591     1.0000 0.45379  0.87203  0.71213  Biso   1.000  C
  C592     1.0000 0.20267  0.49571  0.62292  Biso   1.000  C
  C593     1.0000 0.40010  0.70151  0.00499  Biso   1.000  C
  C594     1.0000 0.99241  0.88815  0.80428  Biso   1.000  C
  C595     1.0000 0.78157  0.96495  0.93009  Biso   1.000  C
  C596     1.0000 0.58825  0.19100  0.53629  Biso   1.000  C
  C597     1.0000 0.99581  0.39239  0.73000  Biso   1.000  C
  C598     1.0000 0.27920  0.97253  0.60756  Biso   1.000  C
  C599     1.0000 0.08220  0.19545  0.04456  Biso   1.000  C
  C600     1.0000 0.50965  0.37771  0.81961  Biso   1.000  C
  C601     1.0000 0.19474  0.98270  0.90618  Biso   1.000  C
  C602     1.0000 0.88175  0.19653  0.01925  Biso   1.000  C
  C603     1.0000 0.98348  0.87786  0.22089  Biso   1.000  C
  C604     1.0000 0.69114  0.97684  0.62882  Biso   1.000  C
  C605     1.0000 0.38782  0.19343  0.52476  Biso   1.000  C
  C606     1.0000 0.49774  0.89680  0.29996  Biso   1.000  C
  C607     1.0000 0.28587  0.48649  0.92138  Biso   1.000  C
  C608     1.0000 0.60647  0.69352  0.01366  Biso   1.000  C
  C609     1.0000 0.50618  0.39306  0.23198  Biso   1.000  C
  C610     1.0000 0.78668  0.47973  0.61563  Biso   1.000  C
  C611     1.0000 0.09718  0.69248  0.48555  Biso   1.000  C
  C612     1.0000 0.99596  0.37988  0.31016  Biso   1.000  C
  C613     1.0000 0.79064  0.00855  0.12503  Biso   1.000  C
  C614     1.0000 0.10066  0.78297  0.00215  Biso   1.000  C
  C615     1.0000 0.98344  0.09258  0.81644  Biso   1.000  C
  C616     1.0000 0.28450  0.98288  0.40266  Biso   1.000  C
  C617     1.0000 0.60615  0.77661  0.50159  Biso   1.000  C
  C618     1.0000 0.50382  0.06917  0.73539  Biso   1.000  C
  C619     1.0000 0.69968  0.48857  0.11917  Biso   1.000  C
  C620     1.0000 0.37620  0.28320  0.03693  Biso   1.000  C
  C621     1.0000 0.47459  0.57988  0.80119  Biso   1.000  C
  C622     1.0000 0.19875  0.50247  0.41856  Biso   1.000  C
  C623     1.0000 0.88952  0.27401  0.51112  Biso   1.000  C
  C624     1.0000 0.98612  0.59641  0.71657  Biso   1.000  C
  C625     1.0000 0.99305  0.19861  0.92765  Biso   1.000  C
  C626     1.0000 0.89762  0.99983  0.23183  Biso   1.000  C
  C627     1.0000 0.20163  0.89485  0.01345  Biso   1.000  C
  C628     1.0000 0.47634  0.17970  0.63598  Biso   1.000  C
  C629     1.0000 0.40066  0.97861  0.30687  Biso   1.000  C
  C630     1.0000 0.70840  0.88874  0.51805  Biso   1.000  C
  C631     1.0000 0.49030  0.69628  0.90290  Biso   1.000  C
  C632     1.0000 0.59745  0.48319  0.22749  Biso   1.000  C
  C633     1.0000 0.28045  0.40052  0.04383  Biso   1.000  C
  C634     1.0000 0.00836  0.69678  0.60673  Biso   1.000  C
  C635     1.0000 0.10104  0.47801  0.30337  Biso   1.000  C
  C636     1.0000 0.78398  0.38170  0.52077  Biso   1.000  C
  C637     1.0000 0.99739  0.77610  0.11246  Biso   1.000  C
  C638     1.0000 0.08341  0.99929  0.80509  Biso   1.000  C
  C639     1.0000 0.77603  0.08552  0.01350  Biso   1.000  C
  C640     1.0000 0.50259  0.78028  0.39977  Biso   1.000  C
  C641     1.0000 0.57946  0.95026  0.72869  Biso   1.000  C
  C642     1.0000 0.28115  0.08573  0.51019  Biso   1.000  C
  C643     1.0000 0.49108  0.27698  0.13576  Biso   1.000  C
  C644     1.0000 0.39061  0.47596  0.81318  Biso   1.000  C
  C645     1.0000 0.71098  0.58286  0.02067  Biso   1.000  C
  C646     1.0000 0.01123  0.27800  0.42578  Biso   1.000  C
  C647     1.0000 0.89208  0.47790  0.72396  Biso   1.000  C
  C648     1.0000 0.20753  0.59150  0.50741  Biso   1.000  C
  C649     1.0000 0.00071  0.69223  0.40648  Biso   1.000  C
  C650     1.0000 0.37846  0.99101  0.72258  Biso   1.000  C
  C651     1.0000 0.69039  0.37994  0.01607  Biso   1.000  C
  C652     1.0000 0.49991  0.69998  0.10290  Biso   1.000  C
  C653     1.0000 0.87937  0.97050  0.81414  Biso   1.000  C
  C654     1.0000 0.19749  0.38509  0.50949  Biso   1.000  C
  C655     1.0000 0.49992  0.19765  0.43515  Biso   1.000  C
  C656     1.0000 0.09619  0.49544  0.72950  Biso   1.000  C
  C657     1.0000 0.79370  0.88531  0.05191  Biso   1.000  C
  C658     1.0000 0.98220  0.19562  0.13397  Biso   1.000  C
  C659     1.0000 0.59403  0.47210  0.80967  Biso   1.000  C
  C660     1.0000 0.28901  0.87546  0.50305  Biso   1.000  C
  C661     1.0000 0.98740  0.27957  0.62831  Biso   1.000  C
  C662     1.0000 0.60006  0.99828  0.31171  Biso   1.000  C
  C663     1.0000 0.28646  0.60233  0.01059  Biso   1.000  C
  C664     1.0000 0.47723  0.27511  0.92680  Biso   1.000  C
  C665     1.0000 0.10053  0.97933  0.22095  Biso   1.000  C
  C666     1.0000 0.79274  0.58687  0.51676  Biso   1.000  C
  C667     1.0000 0.48736  0.77422  0.60224  Biso   1.000  C
  C668     1.0000 0.89863  0.48136  0.30518  Biso   1.000  C
  C669     1.0000 0.19924  0.10099  0.02108  Biso   1.000  C
  C670     1.0000 0.98983  0.77745  0.90892  Biso   1.000  C
  C671     1.0000 0.39975  0.49548  0.22611  Biso   1.000  C
  C672     1.0000 0.69164  0.08628  0.52413  Biso   1.000  C
  C673     1.0000 0.17847  0.98876  0.81118  Biso   1.000  C
  C674     1.0000 0.78783  0.18102  0.01858  Biso   1.000  C
  C675     1.0000 0.98090  0.78519  0.20719  Biso   1.000  C
  C676     1.0000 0.67355  0.95563  0.72244  Biso   1.000  C
  C677     1.0000 0.29354  0.18202  0.52801  Biso   1.000  C
  C678     1.0000 0.49564  0.80077  0.30723  Biso   1.000  C
  C679     1.0000 0.29769  0.48351  0.82678  Biso   1.000  C
  C680     1.0000 0.70082  0.67853  0.03220  Biso   1.000  C
  C681     1.0000 0.50052  0.29971  0.23047  Biso   1.000  C
  C682     1.0000 0.79472  0.48142  0.70920  Biso   1.000  C
  C683     1.0000 0.19383  0.68300  0.48678  Biso   1.000  C
  C684     1.0000 0.01118  0.28642  0.33019  Biso   1.000  C
  C685     1.0000 0.80164  0.00663  0.21671  Biso   1.000  C
  C686     1.0000 0.19451  0.80053  0.00065  Biso   1.000  C
  C687     1.0000 0.99759  0.18541  0.83343  Biso   1.000  C
  C688     1.0000 0.30676  0.97176  0.31051  Biso   1.000  C
  C689     1.0000 0.70270  0.79539  0.50941  Biso   1.000  C
  C690     1.0000 0.49006  0.16651  0.73005  Biso   1.000  C
  C691     1.0000 0.69257  0.49376  0.21429  Biso   1.000  C
  C692     1.0000 0.28204  0.30439  0.04336  Biso   1.000  C
  C693     1.0000 0.47987  0.67582  0.80900  Biso   1.000  C
  C694     1.0000 0.19461  0.49374  0.32419  Biso   1.000  C
  C695     1.0000 0.79406  0.28854  0.52017  Biso   1.000  C
  C696     1.0000 0.00613  0.68774  0.70202  Biso   1.000  C
  C697     1.0000 0.69427  0.00824  0.32596  Biso   1.000  C
  C698     1.0000 0.30566  0.69443  0.00625  Biso   1.000  C
  C699     1.0000 0.99521  0.29656  0.72462  Biso   1.000  C
  C700     1.0000 0.19464  0.97786  0.20378  Biso   1.000  C
  C701     1.0000 0.80490  0.68205  0.52010  Biso   1.000  C
  C702     1.0000 0.49481  0.28549  0.83353  Biso   1.000  C
  C703     1.0000 0.80245  0.49208  0.31754  Biso   1.000  C
  C704     1.0000 0.17524  0.19233  0.03798  Biso   1.000  C
  C705     1.0000 0.46938  0.77973  0.69454  Biso   1.000  C
  C706     1.0000 0.30480  0.49877  0.21881  Biso   1.000  C
  C707     1.0000 0.68301  0.17961  0.53384  Biso   1.000  C
  C708     1.0000 0.99568  0.79232  0.81352  Biso   1.000  C
  C709     1.0000 0.28545  0.98306  0.70443  Biso   1.000  C
  C710     1.0000 0.67591  0.28810  0.02106  Biso   1.000  C
  C711     1.0000 0.98594  0.67778  0.31048  Biso   1.000  C
  C712     1.0000 0.78715  0.96178  0.83228  Biso   1.000  C
  C713     1.0000 0.18536  0.29182  0.53570  Biso   1.000  C
  C714     1.0000 0.48665  0.69402  0.19733  Biso   1.000  C
  C715     1.0000 0.19021  0.49340  0.71726  Biso   1.000  C
  C716     1.0000 0.80614  0.78809  0.04552  Biso   1.000  C
  C717     1.0000 0.50448  0.19175  0.34144  Biso   1.000  C
  C718     1.0000 0.69008  0.47969  0.81999  Biso   1.000  C
  C719     1.0000 0.30788  0.78425  0.48307  Biso   1.000  C
  C720     1.0000 0.99498  0.17572  0.22539  Biso   1.000  C
  C721     1.0000 0.51033  0.80400  0.27958  Biso   1.000  C
  C722     1.0000 0.30394  0.49708  0.79800  Biso   1.000  C
  C723     1.0000 0.79767  0.26396  0.54079  Biso   1.000  C
  C724     1.0000 0.96497  0.75873  0.20081  Biso   1.000  C
  C725     1.0000 0.76967  0.49892  0.70702  Biso   1.000  C
  C726     1.0000 0.25354  0.31240  0.03102  Biso   1.000  C
  C727     1.0000 0.02564  0.29059  0.30193  Biso   1.000  C
  C728     1.0000 0.20638  0.00270  0.81467  Biso   1.000  C
  C729     1.0000 0.72302  0.79503  0.53261  Biso   1.000  C
  C730     1.0000 0.48822  0.30512  0.25810  Biso   1.000  C
  C731     1.0000 0.70172  0.94155  0.71935  Biso   1.000  C
  C732     1.0000 0.22274  0.80656  0.98596  Biso   1.000  C
  C733     1.0000 0.48002  0.16109  0.76041  Biso   1.000  C
  C734     1.0000 0.68689  0.51096  0.23947  Biso   1.000  C
  C735     1.0000 0.19192  0.71408  0.49436  Biso   1.000  C
  C736     1.0000 0.98697  0.21420  0.83930  Biso   1.000  C
  C737     1.0000 0.18964  0.50999  0.29583  Biso   1.000  C
  C738     1.0000 0.69561  0.70329  0.05134  Biso   1.000  C
  C739     1.0000 0.01939  0.68167  0.73064  Biso   1.000  C
  C740     1.0000 0.77543  0.99051  0.21485  Biso   1.000  C
  C741     1.0000 0.26786  0.18106  0.51045  Biso   1.000  C
  C742     1.0000 0.49291  0.66878  0.78065  Biso   1.000  C
  C743     1.0000 0.31132  0.99074  0.28358  Biso   1.000  C
  C744     1.0000 0.78905  0.20547  0.03898  Biso   1.000  C
  C745     1.0000 0.99907  0.67777  0.28133  Biso   1.000  C
  C746     1.0000 0.25840  0.99643  0.69622  Biso   1.000  C
  C747     1.0000 0.70386  0.29166  0.03810  Biso   1.000  C
  C748     1.0000 0.50341  0.72052  0.19446  Biso   1.000  C
  C749     1.0000 0.78975  0.94369  0.80721  Biso   1.000  C
  C750     1.0000 0.21397  0.29658  0.54636  Biso   1.000  C
  C751     1.0000 0.52678  0.19218  0.32015  Biso   1.000  C
  C752     1.0000 0.18796  0.46997  0.73906  Biso   1.000  C
  C753     1.0000 0.77630  0.78938  0.03300  Biso   1.000  C
  C754     1.0000 0.01522  0.17100  0.24866  Biso   1.000  C
  C755     1.0000 0.68549  0.49717  0.79448  Biso   1.000  C
  C756     1.0000 0.28185  0.79218  0.46717  Biso   1.000  C
  C757     1.0000 0.98277  0.26709  0.72178  Biso   1.000  C
  C758     1.0000 0.69181  0.99265  0.29947  Biso   1.000  C
  C759     1.0000 0.28273  0.69540  0.02756  Biso   1.000  C
  C760     1.0000 0.50586  0.25723  0.84140  Biso   1.000  C
  C761     1.0000 0.19289  0.96002  0.23027  Biso   1.000  C
  C762     1.0000 0.77894  0.67911  0.50215  Biso   1.000  C
  C763     1.0000 0.44687  0.77519  0.71523  Biso   1.000  C
  C764     1.0000 0.77316  0.47968  0.32134  Biso   1.000  C
  C765     1.0000 0.19795  0.19136  0.05876  Biso   1.000  C
  C766     1.0000 0.97945  0.79382  0.78718  Biso   1.000  C
  C767     1.0000 0.30550  0.48152  0.24559  Biso   1.000  C
  C768     1.0000 0.71249  0.17171  0.54193  Biso   1.000  C
  C769     1.0000 0.46351  0.70257  0.81158  Biso   1.000  C
  C770     1.0000 0.79738  0.46083  0.73348  Biso   1.000  C
  C771     1.0000 0.70430  0.77211  0.48764  Biso   1.000  C
  C772     1.0000 0.99466  0.71617  0.69749  Biso   1.000  C
  C773     1.0000 0.26877  0.47171  0.83227  Biso   1.000  C
  C774     1.0000 0.19018  0.77002  0.01298  Biso   1.000  C
  C775     1.0000 0.01282  0.18320  0.80634  Biso   1.000  C
  C776     1.0000 0.66722  0.96897  0.75118  Biso   1.000  C
  C777     1.0000 0.76622  0.29093  0.50523  Biso   1.000  C
  C778     1.0000 0.50162  0.19701  0.72432  Biso   1.000  C
  C779     1.0000 0.17262  0.97484  0.78419  Biso   1.000  C
  C780     1.0000 0.28555  0.27685  0.05843  Biso   1.000  C
  C781     1.0000 0.51453  0.27244  0.22727  Biso   1.000  C
  C782     1.0000 0.22440  0.48251  0.33065  Biso   1.000  C
  C783     1.0000 0.29908  0.20693  0.54723  Biso   1.000  C
  C784     1.0000 0.99805  0.25807  0.33792  Biso   1.000  C
  C785     1.0000 0.72170  0.48302  0.21038  Biso   1.000  C
  C786     1.0000 0.76097  0.17635  0.00120  Biso   1.000  C
  C787     1.0000 0.99197  0.78956  0.23547  Biso   1.000  C
  C788     1.0000 0.27933  0.95576  0.31283  Biso   1.000  C
  C789     1.0000 0.21905  0.67377  0.47013  Biso   1.000  C
  C790     1.0000 0.47435  0.77673  0.31038  Biso   1.000  C
  C791     1.0000 0.80674  0.02520  0.24100  Biso   1.000  C
  C792     1.0000 0.73121  0.67385  0.02298  Biso   1.000  C
  C793     1.0000 0.48628  0.21679  0.34365  Biso   1.000  C
  C794     1.0000 0.28055  0.51873  0.21725  Biso   1.000  C
  C795     1.0000 0.17960  0.26258  0.52516  Biso   1.000  C
  C796     1.0000 0.97977  0.20435  0.22526  Biso   1.000  C
  C797     1.0000 0.80881  0.50820  0.29130  Biso   1.000  C
  C798     1.0000 0.67356  0.26125  0.00266  Biso   1.000  C
  C799     1.0000 0.96854  0.70193  0.31790  Biso   1.000  C
  C800     1.0000 0.22301  0.99217  0.19924  Biso   1.000  C
  C801     1.0000 0.31113  0.75360  0.49246  Biso   1.000  C
  C802     1.0000 0.46910  0.69069  0.22267  Biso   1.000  C
  C803     1.0000 0.71973  0.02664  0.33028  Biso   1.000  C
  C804     1.0000 0.81309  0.76126  0.06025  Biso   1.000  C
  C805     1.0000 0.49188  0.75785  0.69456  Biso   1.000  C
  C806     1.0000 0.71768  0.46516  0.82514  Biso   1.000  C
  C807     1.0000 0.80884  0.70767  0.53691  Biso   1.000  C
  C808     1.0000 0.01261  0.76564  0.81747  Biso   1.000  C
  C809     1.0000 0.21217  0.51645  0.72186  Biso   1.000  C
  C810     1.0000 0.30582  0.71743  0.98409  Biso   1.000  C
  C811     1.0000 0.01318  0.30290  0.75037  Biso   1.000  C
  C812     1.0000 0.75859  0.97320  0.83691  Biso   1.000  C
  C813     1.0000 0.67744  0.21009  0.52342  Biso   1.000  C
  C814     1.0000 0.48606  0.28907  0.80209  Biso   1.000  C
  C815     1.0000 0.28855  0.96990  0.73303  Biso   1.000  C
  C816     1.0000 0.17288  0.21845  0.01879  Biso   1.000  C
  C817     1.0000 0.98819  0.23662  0.81842  Biso   1.000  C
  C818     1.0000 0.75473  0.99338  0.23610  Biso   1.000  C
  C819     1.0000 0.24468  0.78560  0.98802  Biso   1.000  C
  C820     1.0000 0.48015  0.18434  0.78075  Biso   1.000  C
  C821     1.0000 0.28932  0.99099  0.26354  Biso   1.000  C
  C822     1.0000 0.74221  0.77248  0.53480  Biso   1.000  C
  C823     1.0000 0.48960  0.68864  0.75739  Biso   1.000  C
  C824     1.0000 0.70762  0.51557  0.26029  Biso   1.000  C
  C825     1.0000 0.23154  0.29042  0.03169  Biso   1.000  C
  C826     1.0000 0.02014  0.70315  0.75211  Biso   1.000  C
  C827     1.0000 0.21330  0.51118  0.27646  Biso   1.000  C
  C828     1.0000 0.77525  0.24360  0.54212  Biso   1.000  C
  C829     1.0000 0.96017  0.73720  0.22178  Biso   1.000  C
  C830     1.0000 0.22645  0.00142  0.79170  Biso   1.000  C
  C831     1.0000 0.76624  0.22504  0.04089  Biso   1.000  C
  C832     1.0000 0.50386  0.78594  0.25740  Biso   1.000  C
  C833     1.0000 0.72203  0.94331  0.74168  Biso   1.000  C
  C834     1.0000 0.24827  0.20364  0.51282  Biso   1.000  C
  C835     1.0000 0.49015  0.28538  0.28084  Biso   1.000  C
  C836     1.0000 0.28107  0.49854  0.77853  Biso   1.000  C
  C837     1.0000 0.71835  0.72109  0.05919  Biso   1.000  C
  C838     1.0000 0.02368  0.26766  0.28144  Biso   1.000  C
  C839     1.0000 0.74958  0.49678  0.72950  Biso   1.000  C
  C840     1.0000 0.21636  0.73353  0.48813  Biso   1.000  C
  C841     1.0000 0.19249  0.97288  0.76134  Biso   1.000  C
  C842     1.0000 0.74029  0.19758  0.00189  Biso   1.000  C
  C843     1.0000 0.98749  0.76861  0.25628  Biso   1.000  C
  C844     1.0000 0.68878  0.96945  0.77293  Biso   1.000  C
  C845     1.0000 0.27912  0.22914  0.54858  Biso   1.000  C
  C846     1.0000 0.47196  0.75739  0.28640  Biso   1.000  C
  C847     1.0000 0.24626  0.47510  0.81185  Biso   1.000  C
  C848     1.0000 0.75216  0.69326  0.03168  Biso   1.000  C
  C849     1.0000 0.51930  0.25380  0.25147  Biso   1.000  C
  C850     1.0000 0.77616  0.46017  0.75588  Biso   1.000  C
  C851     1.0000 0.24081  0.69346  0.46414  Biso   1.000  C
  C852     1.0000 0.99836  0.23517  0.31673  Biso   1.000  C
  C853     1.0000 0.78546  0.02892  0.26121  Biso   1.000  C
  C854     1.0000 0.21256  0.75093  0.01359  Biso   1.000  C
  C855     1.0000 0.01595  0.20583  0.78608  Biso   1.000  C
  C856     1.0000 0.25826  0.95922  0.29199  Biso   1.000  C
  C857     1.0000 0.72570  0.75222  0.48959  Biso   1.000  C
  C858     1.0000 0.50225  0.21698  0.74681  Biso   1.000  C
  C859     1.0000 0.74250  0.48726  0.23102  Biso   1.000  C
  C860     1.0000 0.26406  0.25653  0.05949  Biso   1.000  C
  C861     1.0000 0.45959  0.72001  0.78713  Biso   1.000  C
  C862     1.0000 0.24669  0.48765  0.31036  Biso   1.000  C
  C863     1.0000 0.74556  0.26957  0.50848  Biso   1.000  C
  C864     1.0000 0.99600  0.73663  0.71820  Biso   1.000  C
  C865     1.0000 0.70600  0.49745  0.77327  Biso   1.000  C
  C866     1.0000 0.75818  0.70082  0.50182  Biso   1.000  C
  C867     1.0000 0.44740  0.75252  0.73484  Biso   1.000  C
  C868     1.0000 0.20750  0.46980  0.76145  Biso   1.000  C
  C869     1.0000 0.26241  0.71622  0.02571  Biso   1.000  C
  C870     1.0000 0.98476  0.77490  0.76509  Biso   1.000  C
  C871     1.0000 0.76716  0.94161  0.78660  Biso   1.000  C
  C872     1.0000 0.73444  0.19300  0.53820  Biso   1.000  C
  C873     1.0000 0.98888  0.24714  0.74474  Biso   1.000  C
  C874     1.0000 0.23759  0.99889  0.71565  Biso   1.000  C
  C875     1.0000 0.21979  0.21415  0.05842  Biso   1.000  C
  C876     1.0000 0.50466  0.23361  0.82303  Biso   1.000  C
  C877     1.0000 0.28684  0.48302  0.26742  Biso   1.000  C
  C878     1.0000 0.23538  0.27607  0.54382  Biso   1.000  C
  C879     1.0000 0.52884  0.21469  0.30053  Biso   1.000  C
  C880     1.0000 0.75092  0.48877  0.30217  Biso   1.000  C
  C881     1.0000 0.72467  0.27059  0.03571  Biso   1.000  C
  C882     1.0000 0.01992  0.19219  0.26943  Biso   1.000  C
  C883     1.0000 0.21445  0.95786  0.25103  Biso   1.000  C
  C884     1.0000 0.26119  0.77134  0.46134  Biso   1.000  C
  C885     1.0000 0.99253  0.69874  0.26124  Biso   1.000  C
  C886     1.0000 0.71272  0.99396  0.27875  Biso   1.000  C
  C887     1.0000 0.75756  0.76634  0.03476  Biso   1.000  C
  C888     1.0000 0.50269  0.74337  0.21466  Biso   1.000  C
  C889     1.0000 0.73936  0.03026  0.30544  Biso   1.000  C
  C890     1.0000 0.28394  0.73785  0.98233  Biso   1.000  C
  C891     1.0000 0.01667  0.28186  0.77302  Biso   1.000  C
  C892     1.0000 0.24541  0.98790  0.21835  Biso   1.000  C
  C893     1.0000 0.78767  0.72856  0.53411  Biso   1.000  C
  C894     1.0000 0.48558  0.26450  0.78409  Biso   1.000  C
  C895     1.0000 0.78592  0.51198  0.27040  Biso   1.000  C
  C896     1.0000 0.19464  0.24034  0.02020  Biso   1.000  C
  C897     1.0000 0.49227  0.73714  0.71670  Biso   1.000  C
  C898     1.0000 0.26288  0.52140  0.24113  Biso   1.000  C
  C899     1.0000 0.70039  0.22975  0.51959  Biso   1.000  C
  C900     1.0000 0.01636  0.74588  0.79616  Biso   1.000  C
  C901     1.0000 0.26751  0.97401  0.75218  Biso   1.000  C
  C902     1.0000 0.69618  0.24296  0.99851  Biso   1.000  C
  C903     1.0000 0.96210  0.72331  0.29781  Biso   1.000  C
  C904     1.0000 0.73573  0.96943  0.81618  Biso   1.000  C
  C905     1.0000 0.20168  0.24305  0.52352  Biso   1.000  C
  C906     1.0000 0.46842  0.71310  0.24277  Biso   1.000  C
  C907     1.0000 0.23073  0.51441  0.74527  Biso   1.000  C
  C908     1.0000 0.79463  0.73786  0.06189  Biso   1.000  C
  C909     1.0000 0.48580  0.23660  0.32123  Biso   1.000  C
  C910     1.0000 0.73795  0.46674  0.80213  Biso   1.000  C
  C911     1.0000 0.28903  0.73333  0.48579  Biso   1.000  C
  C912     1.0000 0.98647  0.22647  0.24620  Biso   1.000  C
  C913     1.0000 0.75202  0.47817  0.75406  Biso   1.000  C
  C914     1.0000 0.74445  0.75116  0.51335  Biso   1.000  C
  C915     1.0000 0.47210  0.71326  0.76027  Biso   1.000  C
  C916     1.0000 0.25410  0.48710  0.78524  Biso   1.000  C
  C917     1.0000 0.24010  0.75853  0.00237  Biso   1.000  C
  C918     1.0000 0.00625  0.72988  0.74613  Biso   1.000  C
  C919     1.0000 0.71653  0.95743  0.76788  Biso   1.000  C
  C920     1.0000 0.75035  0.24583  0.52647  Biso   1.000  C
  C921     1.0000 0.00329  0.23239  0.79288  Biso   1.000  C
  C922     1.0000 0.21790  0.98731  0.76589  Biso   1.000  C
  C923     1.0000 0.23692  0.26354  0.04576  Biso   1.000  C
  C924     1.0000 0.49131  0.21193  0.77469  Biso   1.000  C
  C925     1.0000 0.24021  0.49987  0.28336  Biso   1.000  C
  C926     1.0000 0.25334  0.22759  0.53180  Biso   1.000  C
  C927     1.0000 0.50657  0.25931  0.27704  Biso   1.000  C
  C928     1.0000 0.73537  0.50513  0.25488  Biso   1.000  C
  C929     1.0000 0.74313  0.22273  0.01950  Biso   1.000  C
  C930     1.0000 0.01207  0.24134  0.29033  Biso   1.000  C
  C931     1.0000 0.26288  0.97676  0.26727  Biso   1.000  C
  C932     1.0000 0.23889  0.72312  0.47198  Biso   1.000  C
  C933     1.0000 0.97035  0.74374  0.24935  Biso   1.000  C
  C934     1.0000 0.75921  0.01277  0.25834  Biso   1.000  C
  C935     1.0000 0.74639  0.71706  0.04821  Biso   1.000  C
  C936     1.0000 0.48702  0.76142  0.26080  Biso   1.000  C
  C937     1.0000 0.72141  0.24669  0.01632  Biso   1.000  C
  C938     1.0000 0.97249  0.71975  0.26921  Biso   1.000  C
  C939     1.0000 0.24096  0.98751  0.74379  Biso   1.000  C
  C940     1.0000 0.22991  0.24910  0.53319  Biso   1.000  C
  C941     1.0000 0.48331  0.73888  0.23790  Biso   1.000  C
  C942     1.0000 0.73960  0.95468  0.79036  Biso   1.000  C
  C943     1.0000 0.76636  0.74169  0.05037  Biso   1.000  C
  C944     1.0000 0.50737  0.23683  0.29949  Biso   1.000  C
  C945     1.0000 0.22958  0.49091  0.76289  Biso   1.000  C
  C946     1.0000 0.26470  0.74235  0.47084  Biso   1.000  C
  C947     1.0000 0.00702  0.21993  0.26752  Biso   1.000  C
  C948     1.0000 0.73199  0.48335  0.77768  Biso   1.000  C
  C949     1.0000 0.26202  0.73626  0.00311  Biso   1.000  C
  C950     1.0000 0.00232  0.25520  0.76933  Biso   1.000  C
  C951     1.0000 0.73711  0.01174  0.28129  Biso   1.000  C
  C952     1.0000 0.76349  0.72504  0.51800  Biso   1.000  C
  C953     1.0000 0.49300  0.23715  0.79475  Biso   1.000  C
  C954     1.0000 0.23965  0.97338  0.24527  Biso   1.000  C
  C955     1.0000 0.21633  0.23851  0.04104  Biso   1.000  C
  C956     1.0000 0.47127  0.73603  0.73800  Biso   1.000  C
  C957     1.0000 0.75755  0.50328  0.27652  Biso   1.000  C
  C958     1.0000 0.72806  0.22270  0.52790  Biso   1.000  C
  C959     1.0000 0.00428  0.75112  0.76922  Biso   1.000  C
  C960     1.0000 0.26493  0.50370  0.26519  Biso   1.000  C
  Cu1      1.0000 0.99629  0.49082  0.66989  Biso   1.000  Cu
  Cu2      1.0000 0.64311  0.98363  0.52266  Biso   1.000  Cu
  Cu3      1.0000 0.50333  0.64215  0.00724  Biso   1.000  Cu
  Cu4      1.0000 0.49466  0.48296  0.86531  Biso   1.000  Cu
  Cu5      1.0000 0.14591  0.99701  0.01068  Biso   1.000  Cu
  Cu6      1.0000 0.00029  0.63938  0.50788  Biso   1.000  Cu
  Cu7      1.0000 0.48252  0.97684  0.67158  Biso   1.000  Cu
  Cu8      1.0000 0.84265  0.48295  0.51599  Biso   1.000  Cu
  Cu9      1.0000 0.98121  0.14171  0.02859  Biso   1.000  Cu
  Cu10     1.0000 0.98555  0.98777  0.86387  Biso   1.000  Cu
  Cu11     1.0000 0.34092  0.49870  0.02123  Biso   1.000  Cu
  Cu12     1.0000 0.48746  0.13753  0.53051  Biso   1.000  Cu
  Cu13     1.0000 0.00057  0.48214  0.35869  Biso   1.000  Cu
  Cu14     1.0000 0.33639  0.98318  0.50938  Biso   1.000  Cu
  Cu15     1.0000 0.48231  0.33088  0.02991  Biso   1.000  Cu
  Cu16     1.0000 0.49867  0.49041  0.17148  Biso   1.000  Cu
  Cu17     1.0000 0.84113  0.98965  0.02521  Biso   1.000  Cu
  Cu18     1.0000 0.98813  0.33430  0.52317  Biso   1.000  Cu
  Cu19     1.0000 0.49735  0.99421  0.36925  Biso   1.000  Cu
  Cu20     1.0000 0.14397  0.48973  0.52017  Biso   1.000  Cu
  Cu21     1.0000 0.99618  0.83435  0.00980  Biso   1.000  Cu
  Cu22     1.0000 0.99903  0.98197  0.17061  Biso   1.000  Cu
  Cu23     1.0000 0.64501  0.48519  0.01828  Biso   1.000  Cu
  Cu24     1.0000 0.50367  0.83409  0.50415  Biso   1.000  Cu
  Cu25     1.0000 0.20123  0.99608  0.00690  Biso   1.000  Cu
  Cu26     1.0000 0.98263  0.19453  0.03077  Biso   1.000  Cu
  Cu27     1.0000 0.00058  0.97873  0.22384  Biso   1.000  Cu
  Cu28     1.0000 0.69640  0.99049  0.52612  Biso   1.000  Cu
  Cu29     1.0000 0.48590  0.18872  0.53726  Biso   1.000  Cu
  Cu30     1.0000 0.49947  0.00117  0.31380  Biso   1.000  Cu
  Cu31     1.0000 0.28570  0.50045  0.02101  Biso   1.000  Cu
  Cu32     1.0000 0.50577  0.69713  0.00419  Biso   1.000  Cu
  Cu33     1.0000 0.49821  0.49572  0.22466  Biso   1.000  Cu
  Cu34     1.0000 0.78904  0.48509  0.51396  Biso   1.000  Cu
  Cu35     1.0000 0.00170  0.69384  0.50677  Biso   1.000  Cu
  Cu36     1.0000 0.00087  0.47772  0.30656  Biso   1.000  Cu
  Cu37     1.0000 0.78715  0.98368  0.02970  Biso   1.000  Cu
  Cu38     1.0000 0.99783  0.77910  0.00944  Biso   1.000  Cu
  Cu39     1.0000 0.98335  0.98992  0.81024  Biso   1.000  Cu
  Cu40     1.0000 0.28242  0.98037  0.50654  Biso   1.000  Cu
  Cu41     1.0000 0.50320  0.77853  0.50130  Biso   1.000  Cu
  Cu42     1.0000 0.47860  0.97019  0.72496  Biso   1.000  Cu
  Cu43     1.0000 0.69997  0.48098  0.01934  Biso   1.000  Cu
  Cu44     1.0000 0.47933  0.27480  0.02947  Biso   1.000  Cu
  Cu45     1.0000 0.49273  0.47757  0.81125  Biso   1.000  Cu
  Cu46     1.0000 0.19943  0.48859  0.51675  Biso   1.000  Cu
  Cu47     1.0000 0.99054  0.27981  0.52562  Biso   1.000  Cu
  Cu48     1.0000 0.99399  0.49473  0.72354  Biso   1.000  Cu
  H1       1.0000 0.24311  0.77829  0.45056  Biso   1.000  H
  H2       1.0000 0.51085  0.21189  0.82911  Biso   1.000  H
  H3       1.0000 0.72873  0.48206  0.30615  Biso   1.000  H
  H4       1.0000 0.73611  0.76795  0.02390  Biso   1.000  H
  H5       1.0000 0.97876  0.22671  0.74331  Biso   1.000  H
  H6       1.0000 0.28702  0.46629  0.28380  Biso   1.000  H
  H7       1.0000 0.25754  0.28133  0.54782  Biso   1.000  H
  H8       1.0000 0.97128  0.77642  0.74580  Biso   1.000  H
  H9       1.0000 0.71025  0.97740  0.26113  Biso   1.000  H
  H10      1.0000 0.74242  0.27238  0.05091  Biso   1.000  H
  H11      1.0000 0.42902  0.75087  0.74918  Biso   1.000  H
  H12      1.0000 0.20892  0.94682  0.27089  Biso   1.000  H
  H13      1.0000 0.75512  0.18641  0.54785  Biso   1.000  H
  H14      1.0000 0.51227  0.76423  0.20717  Biso   1.000  H
  H15      1.0000 0.20416  0.45321  0.77947  Biso   1.000  H
  H16      1.0000 0.23650  0.21273  0.07509  Biso   1.000  H
  H17      1.0000 0.00175  0.69869  0.23942  Biso   1.000  H
  H18      1.0000 0.70265  0.51209  0.75603  Biso   1.000  H
  H19      1.0000 0.73947  0.69928  0.48771  Biso   1.000  H
  H20      1.0000 0.03666  0.18638  0.28597  Biso   1.000  H
  H21      1.0000 0.21873  0.01284  0.70892  Biso   1.000  H
  H22      1.0000 0.24640  0.71605  0.04286  Biso   1.000  H
  H23      1.0000 0.54730  0.21785  0.28612  Biso   1.000  H
  H24      1.0000 0.77412  0.92800  0.76930  Biso   1.000  H
  H25      1.0000 0.24795  0.01069  0.79524  Biso   1.000  H
  H26      1.0000 0.76973  0.24133  0.05635  Biso   1.000  H
  H27      1.0000 0.94798  0.71799  0.21688  Biso   1.000  H
  H28      1.0000 0.74223  0.93374  0.73736  Biso   1.000  H
  H29      1.0000 0.22982  0.20282  0.49705  Biso   1.000  H
  H30      1.0000 0.51731  0.79367  0.23710  Biso   1.000  H
  H31      1.0000 0.28462  0.50815  0.75663  Biso   1.000  H
  H32      1.0000 0.71216  0.73664  0.07556  Biso   1.000  H
  H33      1.0000 0.48205  0.29124  0.30158  Biso   1.000  H
  H34      1.0000 0.73135  0.51079  0.72580  Biso   1.000  H
  H35      1.0000 0.21673  0.75634  0.49228  Biso   1.000  H
  H36      1.0000 0.03239  0.26980  0.26027  Biso   1.000  H
  H37      1.0000 0.73588  0.97943  0.23291  Biso   1.000  H
  H38      1.0000 0.26588  0.79333  0.97970  Biso   1.000  H
  H39      1.0000 0.97880  0.25950  0.82373  Biso   1.000  H
  H40      1.0000 0.29225  0.00701  0.24490  Biso   1.000  H
  H41      1.0000 0.75570  0.77065  0.55398  Biso   1.000  H
  H42      1.0000 0.47415  0.17807  0.80182  Biso   1.000  H
  H43      1.0000 0.70262  0.52850  0.27897  Biso   1.000  H
  H44      1.0000 0.21142  0.29447  0.01890  Biso   1.000  H
  H45      1.0000 0.49660  0.68125  0.73447  Biso   1.000  H
  H46      1.0000 0.20852  0.51941  0.25532  Biso   1.000  H
  H47      1.0000 0.77901  0.22524  0.55836  Biso   1.000  H
  H48      1.0000 0.02899  0.69946  0.77334  Biso   1.000  H
  H49      1.0000 0.26927  0.48071  0.31600  Biso   1.000  H
  H50      1.0000 0.28073  0.24723  0.56407  Biso   1.000  H
  H51      1.0000 0.53229  0.23388  0.24910  Biso   1.000  H
  H52      1.0000 0.76486  0.47954  0.22991  Biso   1.000  H
  H53      1.0000 0.71950  0.19454  0.99058  Biso   1.000  H
  H54      1.0000 0.98842  0.21458  0.31999  Biso   1.000  H
  H55      1.0000 0.23747  0.94782  0.29458  Biso   1.000  H
  H56      1.0000 0.25858  0.68535  0.45222  Biso   1.000  H
  H57      1.0000 0.99481  0.76962  0.27942  Biso   1.000  H
  H58      1.0000 0.79078  0.04257  0.28016  Biso   1.000  H
  H59      1.0000 0.77367  0.69186  0.02459  Biso   1.000  H
  H60      1.0000 0.45845  0.73816  0.28928  Biso   1.000  H
  H61      1.0000 0.78161  0.44526  0.77337  Biso   1.000  H
  H62      1.0000 0.73001  0.73693  0.47291  Biso   1.000  H
  H63      1.0000 0.44705  0.73919  0.78773  Biso   1.000  H
  H64      1.0000 0.22514  0.46816  0.81700  Biso   1.000  H
  H65      1.0000 0.20743  0.72880  0.02005  Biso   1.000  H
  H66      1.0000 0.98913  0.75843  0.71107  Biso   1.000  H
  H67      1.0000 0.68211  0.97909  0.79335  Biso   1.000  H
  H68      1.0000 0.72584  0.27299  0.49588  Biso   1.000  H
  H69      1.0000 0.02932  0.20567  0.76594  Biso   1.000  H
  H70      1.0000 0.18681  0.96183  0.74108  Biso   1.000  H
  H71      1.0000 0.26964  0.23567  0.07135  Biso   1.000  H
  H72      1.0000 0.51230  0.23817  0.74529  Biso   1.000  H
  H73      1.0000 0.75723  0.45458  0.80639  Biso   1.000  H
  H74      1.0000 0.79090  0.75100  0.54454  Biso   1.000  H
  H75      1.0000 0.51235  0.72368  0.71470  Biso   1.000  H
  H76      1.0000 0.24537  0.53352  0.74956  Biso   1.000  H
  H77      1.0000 0.28204  0.75264  0.96357  Biso   1.000  H
  H78      1.0000 0.02976  0.72659  0.80418  Biso   1.000  H
  H79      1.0000 0.71373  0.97887  0.82111  Biso   1.000  H
  H80      1.0000 0.69332  0.24860  0.50620  Biso   1.000  H
  H81      1.0000 0.02901  0.28464  0.79179  Biso   1.000  H
  H82      1.0000 0.26947  0.96318  0.77355  Biso   1.000  H
  H83      1.0000 0.19206  0.25878  0.00439  Biso   1.000  H
  H84      1.0000 0.48028  0.26527  0.76092  Biso   1.000  H
  H85      1.0000 0.24628  0.53598  0.24000  Biso   1.000  H
  H86      1.0000 0.19572  0.22174  0.51402  Biso   1.000  H
  H87      1.0000 0.46895  0.25359  0.32224  Biso   1.000  H
  H88      1.0000 0.79180  0.52272  0.24776  Biso   1.000  H
  H89      1.0000 0.69345  0.22319  0.98475  Biso   1.000  H
  H90      1.0000 0.97435  0.24612  0.24373  Biso   1.000  H
  H91      1.0000 0.26735  0.99448  0.21380  Biso   1.000  H
  H92      1.0000 0.29236  0.71107  0.49320  Biso   1.000  H
  H93      1.0000 0.94663  0.74041  0.30326  Biso   1.000  H
  H94      1.0000 0.75938  0.04294  0.30778  Biso   1.000  H
  H95      1.0000 0.80048  0.71797  0.07411  Biso   1.000  H
  H96      1.0000 0.45398  0.70971  0.26110  Biso   1.000  H
  H97      1.0000 0.85553  0.98257  0.93342  Biso   1.000  H
  H98      1.0000 0.90782  0.85511  0.03300  Biso   1.000  H
  H99      1.0000 0.99092  0.89635  0.87921  Biso   1.000  H
  H100     1.0000 0.35420  0.97903  0.59938  Biso   1.000  H
  H101     1.0000 0.40834  0.85271  0.50827  Biso   1.000  H
  H102     1.0000 0.48430  0.88895  0.64351  Biso   1.000  H
  H103     1.0000 0.62914  0.47147  0.92847  Biso   1.000  H
  H104     1.0000 0.56980  0.34617  0.02880  Biso   1.000  H
  H105     1.0000 0.49777  0.39281  0.89314  Biso   1.000  H
  H106     1.0000 0.12857  0.49603  0.60853  Biso   1.000  H
  H107     1.0000 0.08137  0.35687  0.52833  Biso   1.000  H
  H108     1.0000 0.99574  0.40080  0.65614  Biso   1.000  H
  H109     1.0000 0.12990  0.99270  0.10139  Biso   1.000  H
  H110     1.0000 0.07849  0.11983  0.02601  Biso   1.000  H
  H111     1.0000 0.00137  0.07785  0.15703  Biso   1.000  H
  H112     1.0000 0.62669  0.99670  0.42672  Biso   1.000  H
  H113     1.0000 0.57786  0.11500  0.53066  Biso   1.000  H
  H114     1.0000 0.49757  0.07931  0.39433  Biso   1.000  H
  H115     1.0000 0.36259  0.49700  0.11184  Biso   1.000  H
  H116     1.0000 0.40508  0.62491  0.00707  Biso   1.000  H
  H117     1.0000 0.49329  0.58490  0.14126  Biso   1.000  H
  H118     1.0000 0.86464  0.47340  0.41968  Biso   1.000  H
  H119     1.0000 0.91431  0.62584  0.51556  Biso   1.000  H
  H120     1.0000 0.00435  0.57124  0.37668  Biso   1.000  H
  H121     1.0000 0.07806  0.00076  0.88078  Biso   1.000  H
  H122     1.0000 0.85236  0.07652  0.01305  Biso   1.000  H
  H123     1.0000 0.99009  0.85106  0.10174  Biso   1.000  H
  H124     1.0000 0.57316  0.96075  0.65388  Biso   1.000  H
  H125     1.0000 0.35439  0.07886  0.50642  Biso   1.000  H
  H126     1.0000 0.49696  0.85700  0.41690  Biso   1.000  H
  H127     1.0000 0.40517  0.48324  0.88831  Biso   1.000  H
  H128     1.0000 0.63599  0.57534  0.00137  Biso   1.000  H
  H129     1.0000 0.48771  0.34914  0.11489  Biso   1.000  H
  H130     1.0000 0.90429  0.48669  0.64857  Biso   1.000  H
  H131     1.0000 0.13167  0.58123  0.50829  Biso   1.000  H
  H132     1.0000 0.99254  0.35175  0.43152  Biso   1.000  H
  H133     1.0000 0.90563  0.99128  0.15506  Biso   1.000  H
  H134     1.0000 0.12683  0.90093  0.01629  Biso   1.000  H
  H135     1.0000 0.98675  0.12386  0.93856  Biso   1.000  H
  H136     1.0000 0.40641  0.98755  0.38125  Biso   1.000  H
  H137     1.0000 0.63120  0.89417  0.51332  Biso   1.000  H
  H138     1.0000 0.48987  0.10875  0.62208  Biso   1.000  H
  H139     1.0000 0.58786  0.48088  0.15329  Biso   1.000  H
  H140     1.0000 0.35734  0.40079  0.03479  Biso   1.000  H
  H141     1.0000 0.49562  0.61920  0.91698  Biso   1.000  H
  H142     1.0000 0.08386  0.47502  0.37745  Biso   1.000  H
  H143     1.0000 0.86020  0.39342  0.51201  Biso   1.000  H
  H144     1.0000 0.00210  0.62168  0.59687  Biso   1.000  H
  H145     1.0000 0.58601  0.48106  0.88417  Biso   1.000  H
  H146     1.0000 0.86914  0.57791  0.51581  Biso   1.000  H
  H147     1.0000 0.49106  0.85040  0.59634  Biso   1.000  H
  H148     1.0000 0.08611  0.49958  0.65423  Biso   1.000  H
  H149     1.0000 0.36181  0.58828  0.01864  Biso   1.000  H
  H150     1.0000 0.99133  0.85468  0.91770  Biso   1.000  H
  H151     1.0000 0.89719  0.98795  0.88755  Biso   1.000  H
  H152     1.0000 0.61957  0.07388  0.52448  Biso   1.000  H
  H153     1.0000 0.98672  0.35362  0.61394  Biso   1.000  H
  H154     1.0000 0.39298  0.98863  0.64713  Biso   1.000  H
  H155     1.0000 0.12298  0.07985  0.02265  Biso   1.000  H
  H156     1.0000 0.49064  0.35006  0.93744  Biso   1.000  H
  H157     1.0000 0.40483  0.49485  0.14988  Biso   1.000  H
  H158     1.0000 0.12290  0.39574  0.52131  Biso   1.000  H
  H159     1.0000 0.49926  0.12014  0.43872  Biso   1.000  H
  H160     1.0000 0.90845  0.48687  0.37774  Biso   1.000  H
  H161     1.0000 0.61536  0.39201  0.02657  Biso   1.000  H
  H162     1.0000 0.98120  0.12004  0.11907  Biso   1.000  H
  H163     1.0000 0.08572  0.98447  0.14779  Biso   1.000  H
  H164     1.0000 0.36327  0.89180  0.50738  Biso   1.000  H
  H165     1.0000 0.00073  0.61444  0.41283  Biso   1.000  H
  H166     1.0000 0.59251  0.98839  0.38528  Biso   1.000  H
  H167     1.0000 0.86884  0.89945  0.04063  Biso   1.000  H
  H168     1.0000 0.49929  0.62296  0.09725  Biso   1.000  H
  H169     1.0000 0.97786  0.07944  0.89147  Biso   1.000  H
  H170     1.0000 0.86600  0.00436  0.11138  Biso   1.000  H
  H171     1.0000 0.08918  0.85845  0.01072  Biso   1.000  H
  H172     1.0000 0.49428  0.06570  0.65788  Biso   1.000  H
  H173     1.0000 0.35681  0.99046  0.42268  Biso   1.000  H
  H174     1.0000 0.59390  0.85107  0.50751  Biso   1.000  H
  H175     1.0000 0.48508  0.57400  0.87944  Biso   1.000  H
  H176     1.0000 0.62282  0.48603  0.11388  Biso   1.000  H
  H177     1.0000 0.39188  0.35752  0.03399  Biso   1.000  H
  H178     1.0000 0.99463  0.58285  0.64203  Biso   1.000  H
  H179     1.0000 0.12336  0.48094  0.42322  Biso   1.000  H
  H180     1.0000 0.89975  0.34884  0.51753  Biso   1.000  H
  H181     1.0000 0.98900  0.89161  0.14722  Biso   1.000  H
  H182     1.0000 0.12516  0.00297  0.92155  Biso   1.000  H
  H183     1.0000 0.89452  0.11973  0.01823  Biso   1.000  H
  H184     1.0000 0.49528  0.90030  0.37682  Biso   1.000  H
  H185     1.0000 0.61597  0.97269  0.61407  Biso   1.000  H
  H186     1.0000 0.39745  0.11793  0.51593  Biso   1.000  H
  H187     1.0000 0.49212  0.39977  0.15898  Biso   1.000  H
  H188     1.0000 0.36086  0.48371  0.93108  Biso   1.000  H
  H189     1.0000 0.59922  0.61744  0.00175  Biso   1.000  H
  H190     1.0000 0.99489  0.39408  0.38427  Biso   1.000  H
  H191     1.0000 0.86177  0.47998  0.60659  Biso   1.000  H
  H192     1.0000 0.08854  0.62007  0.50499  Biso   1.000  H
  H193     1.0000 0.26972  0.82973  0.49762  Biso   1.000  H
  H194     1.0000 0.48288  0.25425  0.88709  Biso   1.000  H
  H195     1.0000 0.85442  0.48324  0.28414  Biso   1.000  H
  H196     1.0000 0.77363  0.84055  0.06256  Biso   1.000  H
  H197     1.0000 0.99076  0.25801  0.66994  Biso   1.000  H
  H198     1.0000 0.35689  0.49740  0.24869  Biso   1.000  H
  H199     1.0000 0.21621  0.34135  0.51850  Biso   1.000  H
  H200     1.0000 0.98968  0.75836  0.86740  Biso   1.000  H
  H201     1.0000 0.64053  0.00266  0.28978  Biso   1.000  H
  H202     1.0000 0.71054  0.33845  0.01303  Biso   1.000  H
  H203     1.0000 0.47596  0.75270  0.64357  Biso   1.000  H
  H204     1.0000 0.14563  0.98459  0.23766  Biso   1.000  H
  H205     1.0000 0.71489  0.12623  0.52110  Biso   1.000  H
  H206     1.0000 0.48967  0.72394  0.14509  Biso   1.000  H
  H207     1.0000 0.13572  0.49105  0.75324  Biso   1.000  H
  H208     1.0000 0.21464  0.14768  0.03215  Biso   1.000  H
  H209     1.0000 0.99559  0.71313  0.36397  Biso   1.000  H
  H210     1.0000 0.63604  0.46768  0.78810  Biso   1.000  H
  H211     1.0000 0.77107  0.63006  0.52223  Biso   1.000  H
  H212     1.0000 0.99274  0.21343  0.17551  Biso   1.000  H
  H213     1.0000 0.33491  0.99094  0.74092  Biso   1.000  H
  H214     1.0000 0.26984  0.64767  0.00967  Biso   1.000  H
  H215     1.0000 0.50487  0.21959  0.39328  Biso   1.000  H
  H216     1.0000 0.83526  0.96280  0.79618  Biso   1.000  H
  H217     1.0000 0.22185  0.51001  0.37789  Biso   1.000  H
  H218     1.0000 0.34603  0.21446  0.52645  Biso   1.000  H
  H219     1.0000 0.51058  0.35450  0.25824  Biso   1.000  H
  H220     1.0000 0.72407  0.49101  0.16002  Biso   1.000  H
  H221     1.0000 0.83974  0.21551  0.01669  Biso   1.000  H
  H222     1.0000 0.99408  0.33562  0.29152  Biso   1.000  H
  H223     1.0000 0.26782  0.97384  0.35860  Biso   1.000  H
  H224     1.0000 0.13565  0.71615  0.48078  Biso   1.000  H
  H225     1.0000 0.97828  0.83605  0.23937  Biso   1.000  H
  H226     1.0000 0.77063  0.01620  0.16523  Biso   1.000  H
  H227     1.0000 0.64535  0.71506  0.02692  Biso   1.000  H
  H228     1.0000 0.49859  0.85489  0.27636  Biso   1.000  H
  H229     1.0000 0.76414  0.47967  0.65790  Biso   1.000  H
  H230     1.0000 0.64954  0.75721  0.50105  Biso   1.000  H
  H231     1.0000 0.46908  0.62246  0.77963  Biso   1.000  H
  H232     1.0000 0.26400  0.49339  0.87829  Biso   1.000  H
  H233     1.0000 0.14479  0.76431  0.99225  Biso   1.000  H
  H234     1.0000 0.98505  0.63955  0.73501  Biso   1.000  H
  H235     1.0000 0.70955  0.96992  0.67155  Biso   1.000  H
  H236     1.0000 0.84769  0.25018  0.51328  Biso   1.000  H
  H237     1.0000 0.99359  0.13610  0.79849  Biso   1.000  H
  H238     1.0000 0.21339  0.97627  0.86531  Biso   1.000  H
  H239     1.0000 0.33315  0.26397  0.04012  Biso   1.000  H
  H240     1.0000 0.50709  0.10911  0.76191  Biso   1.000  H
  H241     1.0000 0.72402  0.48780  0.87221  Biso   1.000  H
  H242     1.0000 0.85874  0.71702  0.52437  Biso   1.000  H
  H243     1.0000 0.44447  0.82696  0.72717  Biso   1.000  H
  H244     1.0000 0.22430  0.49534  0.66655  Biso   1.000  H
  H245     1.0000 0.35887  0.72508  0.00059  Biso   1.000  H
  H246     1.0000 0.99333  0.84227  0.78241  Biso   1.000  H
  H247     1.0000 0.75864  0.96155  0.88795  Biso   1.000  H
  H248     1.0000 0.62967  0.21285  0.54230  Biso   1.000  H
  H249     1.0000 0.99217  0.35075  0.75249  Biso   1.000  H
  H250     1.0000 0.25357  0.97202  0.64737  Biso   1.000  H
  H251     1.0000 0.12323  0.22140  0.04380  Biso   1.000  H
  H252     1.0000 0.51374  0.33443  0.80073  Biso   1.000  H
  H253     1.0000 0.26719  0.50032  0.16739  Biso   1.000  H
  H254     1.0000 0.12766  0.25977  0.54810  Biso   1.000  H
  H255     1.0000 0.50917  0.14245  0.30492  Biso   1.000  H
  H256     1.0000 0.76832  0.49340  0.37079  Biso   1.000  H
  H257     1.0000 0.62647  0.25286  0.03042  Biso   1.000  H
  H258     1.0000 0.00156  0.12202  0.25832  Biso   1.000  H
  H259     1.0000 0.22894  0.97931  0.14990  Biso   1.000  H
  H260     1.0000 0.36205  0.75232  0.48388  Biso   1.000  H
  H261     1.0000 0.98329  0.62422  0.27768  Biso   1.000  H
  H262     1.0000 0.72723  0.00682  0.38152  Biso   1.000  H
  H263     1.0000 0.85388  0.75891  0.03420  Biso   1.000  H
  H264     1.0000 0.48332  0.64299  0.23476  Biso   1.000  H
  H265     1.0000 0.00702  0.21657  0.88572  Biso   1.000  H
  H266     1.0000 0.85531  0.00448  0.25382  Biso   1.000  H
  H267     1.0000 0.22707  0.85518  0.01301  Biso   1.000  H
  H268     1.0000 0.47642  0.20113  0.67823  Biso   1.000  H
  H269     1.0000 0.36312  0.97025  0.28132  Biso   1.000  H
  H270     1.0000 0.73253  0.84866  0.51546  Biso   1.000  H
  H271     1.0000 0.49093  0.71406  0.85883  Biso   1.000  H
  H272     1.0000 0.63839  0.48914  0.24994  Biso   1.000  H
  H273     1.0000 0.25390  0.36185  0.05046  Biso   1.000  H
  H274     1.0000 0.01321  0.71985  0.64883  Biso   1.000  H
  H275     1.0000 0.14467  0.48288  0.28534  Biso   1.000  H
  H276     1.0000 0.76312  0.33779  0.52433  Biso   1.000  H
  H277     1.0000 0.99131  0.75396  0.15449  Biso   1.000  H
  H278     1.0000 0.12532  0.99424  0.78232  Biso   1.000  H
  H279     1.0000 0.75320  0.12684  0.01985  Biso   1.000  H
  H280     1.0000 0.50657  0.76633  0.35203  Biso   1.000  H
  H281     1.0000 0.62318  0.94380  0.75166  Biso   1.000  H
  H282     1.0000 0.25715  0.12292  0.52000  Biso   1.000  H
  H283     1.0000 0.49356  0.25985  0.18095  Biso   1.000  H
  H284     1.0000 0.34735  0.47166  0.79281  Biso   1.000  H
  H285     1.0000 0.73206  0.62335  0.03894  Biso   1.000  H
  H286     1.0000 0.01758  0.25584  0.38395  Biso   1.000  H
  H287     1.0000 0.84910  0.48003  0.74528  Biso   1.000  H
  H288     1.0000 0.22899  0.63130  0.50189  Biso   1.000  H
  H289     1.0000 0.06732  0.21238  0.04853  Biso   1.000  H
  H290     1.0000 0.01022  0.07067  0.25293  Biso   1.000  H
  H291     1.0000 0.22564  0.98154  0.09757  Biso   1.000  H
  H292     1.0000 0.57718  0.21213  0.54134  Biso   1.000  H
  H293     1.0000 0.50634  0.09215  0.29795  Biso   1.000  H
  H294     1.0000 0.72265  0.01017  0.43433  Biso   1.000  H
  H295     1.0000 0.41289  0.72057  0.00336  Biso   1.000  H
  H296     1.0000 0.49304  0.59106  0.23974  Biso   1.000  H
  H297     1.0000 0.26653  0.50399  0.11000  Biso   1.000  H
  H298     1.0000 0.91069  0.71982  0.51986  Biso   1.000  H
  H299     1.0000 0.98708  0.56934  0.28023  Biso   1.000  H
  H300     1.0000 0.77267  0.48780  0.42723  Biso   1.000  H
  H301     1.0000 0.91044  0.76016  0.03202  Biso   1.000  H
  H302     1.0000 0.99410  0.90238  0.78510  Biso   1.000  H
  H303     1.0000 0.76369  0.95905  0.94504  Biso   1.000  H
  H304     1.0000 0.41782  0.75974  0.48339  Biso   1.000  H
  H305     1.0000 0.44787  0.88088  0.73306  Biso   1.000  H
  H306     1.0000 0.25993  0.96658  0.59505  Biso   1.000  H
  H307     1.0000 0.57171  0.24934  0.03114  Biso   1.000  H
  H308     1.0000 0.51321  0.38983  0.79889  Biso   1.000  H
  H309     1.0000 0.72331  0.48570  0.92702  Biso   1.000  H
  H310     1.0000 0.07495  0.26466  0.54549  Biso   1.000  H
  H311     1.0000 0.99633  0.40399  0.74938  Biso   1.000  H
  H312     1.0000 0.22318  0.49486  0.61255  Biso   1.000  H
  H313     1.0000 0.21306  0.97474  0.92015  Biso   1.000  H
  H314     1.0000 0.89444  0.21674  0.01903  Biso   1.000  H
  H315     1.0000 0.97878  0.88654  0.24279  Biso   1.000  H
  H316     1.0000 0.71129  0.98154  0.61780  Biso   1.000  H
  H317     1.0000 0.40036  0.21290  0.52430  Biso   1.000  H
  H318     1.0000 0.50501  0.91127  0.28202  Biso   1.000  H
  H319     1.0000 0.26719  0.48849  0.93606  Biso   1.000  H
  H320     1.0000 0.59332  0.71262  0.00639  Biso   1.000  H
  H321     1.0000 0.51601  0.40519  0.24946  Biso   1.000  H
  H322     1.0000 0.76523  0.47763  0.60433  Biso   1.000  H
  H323     1.0000 0.08566  0.71081  0.47746  Biso   1.000  H
  H324     1.0000 0.99282  0.39099  0.29057  Biso   1.000  H
  H325     1.0000 0.77067  0.01471  0.11352  Biso   1.000  H
  H326     1.0000 0.09007  0.76362  0.99620  Biso   1.000  H
  H327     1.0000 0.98395  0.08360  0.79430  Biso   1.000  H
  H328     1.0000 0.26303  0.98115  0.41115  Biso   1.000  H
  H329     1.0000 0.59525  0.75607  0.50006  Biso   1.000  H
  H330     1.0000 0.50901  0.05517  0.75398  Biso   1.000  H
  H331     1.0000 0.72110  0.48989  0.10806  Biso   1.000  H
  H332     1.0000 0.38539  0.26060  0.03419  Biso   1.000  H
  H333     1.0000 0.47014  0.56567  0.78301  Biso   1.000  H
  H334     1.0000 0.21937  0.50708  0.42990  Biso   1.000  H
  H335     1.0000 0.90251  0.25325  0.51138  Biso   1.000  H
  H336     1.0000 0.97760  0.58549  0.73469  Biso   1.000  H
  H337     1.0000 0.98939  0.21920  0.93838  Biso   1.000  H
  H338     1.0000 0.90983  0.99948  0.25256  Biso   1.000  H
  H339     1.0000 0.22097  0.91003  0.01278  Biso   1.000  H
  H340     1.0000 0.47497  0.19777  0.62277  Biso   1.000  H
  H341     1.0000 0.41594  0.97516  0.28773  Biso   1.000  H
  H342     1.0000 0.72617  0.90354  0.51915  Biso   1.000  H
  H343     1.0000 0.49104  0.71809  0.91240  Biso   1.000  H
  H344     1.0000 0.58484  0.48529  0.24707  Biso   1.000  H
  H345     1.0000 0.26097  0.41318  0.04299  Biso   1.000  H
  H346     1.0000 0.01081  0.71525  0.59299  Biso   1.000  H
  H347     1.0000 0.08943  0.47600  0.28292  Biso   1.000  H
  H348     1.0000 0.76585  0.39533  0.52527  Biso   1.000  H
  H349     1.0000 0.00226  0.75507  0.10187  Biso   1.000  H
  H350     1.0000 0.06991  0.00276  0.78612  Biso   1.000  H
  H351     1.0000 0.75646  0.07193  0.01116  Biso   1.000  H
  H352     1.0000 0.50571  0.75921  0.41033  Biso   1.000  H
  H353     1.0000 0.56573  0.94575  0.74781  Biso   1.000  H
  H354     1.0000 0.26055  0.07253  0.50960  Biso   1.000  H
  H355     1.0000 0.49179  0.25472  0.12571  Biso   1.000  H
  H356     1.0000 0.39877  0.47035  0.79208  Biso   1.000  H
  H357     1.0000 0.72919  0.56713  0.02498  Biso   1.000  H
  H358     1.0000 0.01378  0.25668  0.43702  Biso   1.000  H
  H359     1.0000 0.90429  0.47645  0.74470  Biso   1.000  H
  H360     1.0000 0.22850  0.58075  0.50758  Biso   1.000  H
  H361     1.0000 0.00514  0.71269  0.41753  Biso   1.000  H
  H362     1.0000 0.38852  0.99315  0.74282  Biso   1.000  H
  H363     1.0000 0.71130  0.39275  0.01094  Biso   1.000  H
  H364     1.0000 0.49976  0.71814  0.08720  Biso   1.000  H
  H365     1.0000 0.89102  0.96522  0.79279  Biso   1.000  H
  H366     1.0000 0.21937  0.39406  0.50692  Biso   1.000  H
  H367     1.0000 0.50123  0.21765  0.44772  Biso   1.000  H
  H368     1.0000 0.08294  0.49193  0.74825  Biso   1.000  H
  H369     1.0000 0.77492  0.89738  0.05393  Biso   1.000  H
  H370     1.0000 0.97927  0.21736  0.12605  Biso   1.000  H
  H371     1.0000 0.58354  0.47326  0.78827  Biso   1.000  H
  H372     1.0000 0.26728  0.88499  0.50619  Biso   1.000  H
  H373     1.0000 0.98558  0.25993  0.61556  Biso   1.000  H
  H374     1.0000 0.58681  0.00066  0.29228  Biso   1.000  H
  H375     1.0000 0.26487  0.59292  0.00653  Biso   1.000  H
  H376     1.0000 0.46739  0.25382  0.93647  Biso   1.000  H
  H377     1.0000 0.08719  0.98049  0.24172  Biso   1.000  H
  H378     1.0000 0.77185  0.57597  0.51494  Biso   1.000  H
  H379     1.0000 0.48623  0.75582  0.58721  Biso   1.000  H
  H380     1.0000 0.90960  0.48332  0.28495  Biso   1.000  H
  H381     1.0000 0.22064  0.09053  0.01790  Biso   1.000  H
  H382     1.0000 0.99043  0.75531  0.92036  Biso   1.000  H
  H383     1.0000 0.41202  0.49371  0.24662  Biso   1.000  H
  H384     1.0000 0.71144  0.07513  0.52189  Biso   1.000  H
  H385     1.0000 0.17000  0.52145  0.28657  Biso   1.000  H
  H386     1.0000 0.26363  0.16606  0.49354  Biso   1.000  H
  H387     1.0000 0.47702  0.32488  0.26337  Biso   1.000  H
  H388     1.0000 0.66648  0.52269  0.24225  Biso   1.000  H
  H389     1.0000 0.80845  0.20753  0.05271  Biso   1.000  H
  H390     1.0000 0.03605  0.31106  0.29384  Biso   1.000  H
  H391     1.0000 0.33017  0.00571  0.28103  Biso   1.000  H
  H392     1.0000 0.17411  0.72204  0.50648  Biso   1.000  H
  H393     1.0000 0.95525  0.75495  0.18017  Biso   1.000  H
  H394     1.0000 0.77133  0.97773  0.19607  Biso   1.000  H
  H395     1.0000 0.67478  0.70479  0.06163  Biso   1.000  H
  H396     1.0000 0.52560  0.82265  0.27622  Biso   1.000  H
  H397     1.0000 0.76709  0.51462  0.68962  Biso   1.000  H
  H398     1.0000 0.72094  0.81162  0.54897  Biso   1.000  H
  H399     1.0000 0.50762  0.65042  0.77543  Biso   1.000  H
  H400     1.0000 0.32553  0.50492  0.79121  Biso   1.000  H
  H401     1.0000 0.22725  0.82776  0.97690  Biso   1.000  H
  H402     1.0000 0.02975  0.66018  0.73528  Biso   1.000  H
  H403     1.0000 0.70722  0.93424  0.69737  Biso   1.000  H
  H404     1.0000 0.81473  0.26278  0.55628  Biso   1.000  H
  H405     1.0000 0.97477  0.21975  0.85841  Biso   1.000  H
  H406     1.0000 0.21315  0.01460  0.83470  Biso   1.000  H
  H407     1.0000 0.24963  0.33130  0.01839  Biso   1.000  H
  H408     1.0000 0.47206  0.13870  0.76664  Biso   1.000  H
  H409     1.0000 0.27833  0.53371  0.19812  Biso   1.000  H
  H410     1.0000 0.15867  0.25827  0.51687  Biso   1.000  H
  H411     1.0000 0.47084  0.21886  0.36158  Biso   1.000  H
  H412     1.0000 0.83033  0.51417  0.28554  Biso   1.000  H
  H413     1.0000 0.65368  0.25651  0.99182  Biso   1.000  H
  H414     1.0000 0.96324  0.21009  0.20904  Biso   1.000  H
  H415     1.0000 0.22881  0.00504  0.17991  Biso   1.000  H
  H416     1.0000 0.32904  0.74651  0.50771  Biso   1.000  H
  H417     1.0000 0.95626  0.70158  0.33785  Biso   1.000  H
  H418     1.0000 0.72446  0.03947  0.35063  Biso   1.000  H
  H419     1.0000 0.83405  0.75910  0.07218  Biso   1.000  H
  H420     1.0000 0.45487  0.67102  0.22586  Biso   1.000  H
  H421     1.0000 0.72178  0.45117  0.84315  Biso   1.000  H
  H422     1.0000 0.82596  0.70976  0.55474  Biso   1.000  H
  H423     1.0000 0.50898  0.75704  0.67949  Biso   1.000  H
  H424     1.0000 0.21371  0.53597  0.70842  Biso   1.000  H
  H425     1.0000 0.32458  0.71846  0.97010  Biso   1.000  H
  H426     1.0000 0.02723  0.76101  0.83492  Biso   1.000  H
  H427     1.0000 0.75155  0.98627  0.85591  Biso   1.000  H
  H428     1.0000 0.65628  0.21611  0.51542  Biso   1.000  H
  H429     1.0000 0.02718  0.32231  0.74899  Biso   1.000  H
  H430     1.0000 0.30863  0.95696  0.74159  Biso   1.000  H
  H431     1.0000 0.15633  0.21965  0.00199  Biso   1.000  H
  H432     1.0000 0.47602  0.30871  0.79417  Biso   1.000  H
  H433     1.0000 0.25421  0.00652  0.67494  Biso   1.000  H
  H434     1.0000 0.70584  0.30883  0.05322  Biso   1.000  H
  H435     1.0000 0.01725  0.66249  0.27718  Biso   1.000  H
  H436     1.0000 0.80866  0.93027  0.80144  Biso   1.000  H
  H437     1.0000 0.21926  0.31700  0.55764  Biso   1.000  H
  H438     1.0000 0.51752  0.72262  0.17561  Biso   1.000  H
  H439     1.0000 0.16981  0.45453  0.74050  Biso   1.000  H
  H440     1.0000 0.76709  0.80971  0.02491  Biso   1.000  H
  H441     1.0000 0.54423  0.17701  0.31943  Biso   1.000  H
  H442     1.0000 0.66590  0.50775  0.78750  Biso   1.000  H
  H443     1.0000 0.27993  0.81325  0.45778  Biso   1.000  H
  H444     1.0000 0.03138  0.15241  0.25092  Biso   1.000  H
  H445     1.0000 0.67335  0.97843  0.29550  Biso   1.000  H
  H446     1.0000 0.27870  0.67992  0.04463  Biso   1.000  H
  H447     1.0000 0.96710  0.26021  0.70476  Biso   1.000  H
  H448     1.0000 0.17377  0.94747  0.23494  Biso   1.000  H
  H449     1.0000 0.77707  0.66027  0.48676  Biso   1.000  H
  H450     1.0000 0.51480  0.25410  0.86410  Biso   1.000  H
  H451     1.0000 0.77044  0.46289  0.33900  Biso   1.000  H
  H452     1.0000 0.20063  0.17364  0.07356  Biso   1.000  H
  H453     1.0000 0.42685  0.78683  0.71559  Biso   1.000  H
  H454     1.0000 0.32152  0.46491  0.24782  Biso   1.000  H
  H455     1.0000 0.71507  0.15125  0.55186  Biso   1.000  H
  H456     1.0000 0.96437  0.81119  0.78386  Biso   1.000  H
  H457     1.0000 0.68685  0.77016  0.47191  Biso   1.000  H
  H458     1.0000 0.45228  0.70735  0.83052  Biso   1.000  H
  H459     1.0000 0.81756  0.44898  0.73380  Biso   1.000  H
  H460     1.0000 0.17055  0.76310  0.02390  Biso   1.000  H
  H461     1.0000 0.98398  0.72041  0.67778  Biso   1.000  H
  H462     1.0000 0.26687  0.45950  0.85200  Biso   1.000  H
  H463     1.0000 0.76086  0.30967  0.48986  Biso   1.000  H
  H464     1.0000 0.02139  0.16226  0.80203  Biso   1.000  H
  H465     1.0000 0.64670  0.98083  0.75320  Biso   1.000  H
  H466     1.0000 0.30674  0.27251  0.06889  Biso   1.000  H
  H467     1.0000 0.51182  0.20182  0.70289  Biso   1.000  H
  H468     1.0000 0.15161  0.96579  0.78249  Biso   1.000  H
  H469     1.0000 0.31934  0.20762  0.56010  Biso   1.000  H
  H470     1.0000 0.52563  0.26691  0.20734  Biso   1.000  H
  H471     1.0000 0.23055  0.47151  0.35161  Biso   1.000  H
  H472     1.0000 0.75876  0.15770  0.98665  Biso   1.000  H
  H473     1.0000 0.98508  0.25356  0.35717  Biso   1.000  H
  H474     1.0000 0.72757  0.46704  0.19361  Biso   1.000  H
  H475     1.0000 0.22093  0.65136  0.46103  Biso   1.000  H
  H476     1.0000 0.00835  0.80651  0.24266  Biso   1.000  H
  H477     1.0000 0.27262  0.94272  0.33230  Biso   1.000  H
  H478     1.0000 0.73739  0.65681  0.00759  Biso   1.000  H
  H479     1.0000 0.46352  0.77165  0.33086  Biso   1.000  H
  H480     1.0000 0.82655  0.03807  0.24767  Biso   1.000  H
  N1       1.0000 0.66240  0.16057  0.53274  Biso   1.000  N
  N2       1.0000 0.48931  0.67266  0.18021  Biso   1.000  N
  N3       1.0000 0.17133  0.49565  0.69770  Biso   1.000  N
  N4       1.0000 0.15816  0.17060  0.03519  Biso   1.000  N
  N5       1.0000 0.98869  0.65809  0.33115  Biso   1.000  N
  N6       1.0000 0.66993  0.47753  0.83867  Biso   1.000  N
  N7       1.0000 0.82522  0.66324  0.51964  Biso   1.000  N
  N8       1.0000 0.99409  0.15739  0.20502  Biso   1.000  N
  N9       1.0000 0.30583  0.98070  0.68575  Biso   1.000  N
  N10      1.0000 0.32469  0.67505  0.00727  Biso   1.000  N
  N11      1.0000 0.50410  0.17041  0.35970  Biso   1.000  N
  N12      1.0000 0.80743  0.96847  0.85081  Biso   1.000  N
  N13      1.0000 0.32567  0.80403  0.49004  Biso   1.000  N
  N14      1.0000 0.49499  0.30544  0.85223  Biso   1.000  N
  N15      1.0000 0.82261  0.48628  0.33574  Biso   1.000  N
  N16      1.0000 0.82387  0.81026  0.04312  Biso   1.000  N
  N17      1.0000 0.99498  0.31449  0.70335  Biso   1.000  N
  N18      1.0000 0.32233  0.49896  0.19741  Biso   1.000  N
  N19      1.0000 0.16563  0.31145  0.53457  Biso   1.000  N
  N20      1.0000 0.99596  0.81134  0.83322  Biso   1.000  N
  N21      1.0000 0.67602  0.00205  0.34501  Biso   1.000  N
  N22      1.0000 0.65661  0.30734  0.02210  Biso   1.000  N
  N23      1.0000 0.46996  0.80119  0.67573  Biso   1.000  N
  N24      1.0000 0.17521  0.98164  0.18500  Biso   1.000  N
  N25      1.0000 0.81666  0.48140  0.69168  Biso   1.000  N
  N26      1.0000 0.68126  0.81264  0.50991  Biso   1.000  N
  N27      1.0000 0.48149  0.65792  0.82968  Biso   1.000  N
  N28      1.0000 0.31724  0.48161  0.84612  Biso   1.000  N
  N29      1.0000 0.17428  0.81935  0.00247  Biso   1.000  N
  N30      1.0000 0.00375  0.66815  0.68261  Biso   1.000  N
  N31      1.0000 0.65574  0.95693  0.70119  Biso   1.000  N
  N32      1.0000 0.81508  0.30512  0.51848  Biso   1.000  N
  N33      1.0000 0.99379  0.16507  0.85108  Biso   1.000  N
  N34      1.0000 0.16084  0.98973  0.83212  Biso   1.000  N
  N35      1.0000 0.30387  0.32145  0.04351  Biso   1.000  N
  N36      1.0000 0.49028  0.14718  0.71036  Biso   1.000  N
  N37      1.0000 0.17441  0.49227  0.34225  Biso   1.000  N
  N38      1.0000 0.31233  0.16265  0.52340  Biso   1.000  N
  N39      1.0000 0.49791  0.31558  0.20801  Biso   1.000  N
  N40      1.0000 0.67217  0.48789  0.19566  Biso   1.000  N
  N41      1.0000 0.80688  0.16094  0.01860  Biso   1.000  N
  N42      1.0000 0.00659  0.30610  0.34820  Biso   1.000  N
  N43      1.0000 0.32408  0.97468  0.33123  Biso   1.000  N
  N44      1.0000 0.17328  0.66515  0.49378  Biso   1.000  N
  N45      1.0000 0.98555  0.80434  0.18739  Biso   1.000  N
  N46      1.0000 0.82303  0.00615  0.20006  Biso   1.000  N
  N47      1.0000 0.68051  0.65959  0.02634  Biso   1.000  N
  N48      1.0000 0.49749  0.81957  0.32750  Biso   1.000  N
  O1       1.0000 0.33712  0.54162  0.01542  Biso   1.000  O
  O2       1.0000 0.98454  0.33039  0.56638  Biso   1.000  O
  O3       1.0000 0.53892  0.99664  0.36584  Biso   1.000  O
  O4       1.0000 0.84283  0.52565  0.51615  Biso   1.000  O
  O5       1.0000 0.47878  0.32758  0.98722  Biso   1.000  O
  O6       1.0000 0.03964  0.97466  0.17033  Biso   1.000  O
  O7       1.0000 0.14986  0.03688  0.01101  Biso   1.000  O
  O8       1.0000 0.50111  0.83002  0.54541  Biso   1.000  O
  O9       1.0000 0.95903  0.48266  0.35846  Biso   1.000  O
  O10      1.0000 0.64422  0.02684  0.52650  Biso   1.000  O
  O11      1.0000 0.99153  0.83076  0.96782  Biso   1.000  O
  O12      1.0000 0.45770  0.49214  0.17328  Biso   1.000  O
  O13      1.0000 0.64302  0.44382  0.01709  Biso   1.000  O
  O14      1.0000 0.99923  0.64134  0.46507  Biso   1.000  O
  O15      1.0000 0.44027  0.98429  0.67416  Biso   1.000  O
  O16      1.0000 0.14756  0.44653  0.52089  Biso   1.000  O
  O17      1.0000 0.50889  0.64336  0.04799  Biso   1.000  O
  O18      1.0000 0.94419  0.98979  0.86041  Biso   1.000  O
  O19      1.0000 0.84184  0.94794  0.03806  Biso   1.000  O
  O20      1.0000 0.48582  0.14199  0.48842  Biso   1.000  O
  O21      1.0000 0.03816  0.49406  0.67546  Biso   1.000  O
  O22      1.0000 0.33863  0.94023  0.50995  Biso   1.000  O
  O23      1.0000 0.97442  0.14389  0.06937  Biso   1.000  O
  O24      1.0000 0.53568  0.48597  0.86146  Biso   1.000  O
  O25      1.0000 0.95664  0.98979  0.17842  Biso   1.000  O
  O26      1.0000 0.14839  0.95396  0.01024  Biso   1.000  O
  O27      1.0000 0.99059  0.14328  0.98634  Biso   1.000  O
  O28      1.0000 0.45412  0.99508  0.36390  Biso   1.000  O
  O29      1.0000 0.64878  0.94442  0.52060  Biso   1.000  O
  O30      1.0000 0.49031  0.13480  0.57457  Biso   1.000  O
  O31      1.0000 0.53959  0.48913  0.17509  Biso   1.000  O
  O32      1.0000 0.33747  0.45417  0.03028  Biso   1.000  O
  O33      1.0000 0.50762  0.64468  0.96410  Biso   1.000  O
  O34      1.0000 0.04153  0.47797  0.35401  Biso   1.000  O
  O35      1.0000 0.83751  0.44157  0.51597  Biso   1.000  O
  O36      1.0000 0.00553  0.64507  0.54822  Biso   1.000  O
  O37      1.0000 0.02673  0.98837  0.86201  Biso   1.000  O
  O38      1.0000 0.83306  0.02994  0.01459  Biso   1.000  O
  O39      1.0000 0.00064  0.83154  0.05385  Biso   1.000  O
  O40      1.0000 0.52045  0.96176  0.67695  Biso   1.000  O
  O41      1.0000 0.33467  0.02763  0.50797  Biso   1.000  O
  O42      1.0000 0.50374  0.83079  0.46250  Biso   1.000  O
  O43      1.0000 0.45316  0.47969  0.86371  Biso   1.000  O
  O44      1.0000 0.65550  0.52618  0.01683  Biso   1.000  O
  O45      1.0000 0.48259  0.32582  0.07332  Biso   1.000  O
  O46      1.0000 0.95127  0.48945  0.66952  Biso   1.000  O
  O47      1.0000 0.15018  0.53300  0.51605  Biso   1.000  O
  O48      1.0000 0.98933  0.32732  0.48131  Biso   1.000  O
  O49      1.0000 0.99565  0.93897  0.16931  Biso   1.000  O
  O50      1.0000 0.14837  0.99899  0.96852  Biso   1.000  O
  O51      1.0000 0.94053  0.14440  0.01674  Biso   1.000  O
  O52      1.0000 0.49915  0.95266  0.35883  Biso   1.000  O
  O53      1.0000 0.64048  0.97963  0.56561  Biso   1.000  O
  O54      1.0000 0.44519  0.13978  0.52775  Biso   1.000  O
  O55      1.0000 0.49581  0.44962  0.17655  Biso   1.000  O
  O56      1.0000 0.33905  0.49271  0.98084  Biso   1.000  O
  O57      1.0000 0.54612  0.64299  0.00503  Biso   1.000  O
  O58      1.0000 0.99906  0.44017  0.35883  Biso   1.000  O
  O59      1.0000 0.84168  0.48480  0.55733  Biso   1.000  O
  O60      1.0000 0.04095  0.64132  0.50226  Biso   1.000  O
  O61      1.0000 0.98749  0.02792  0.86517  Biso   1.000  O
  O62      1.0000 0.84085  0.00158  0.06401  Biso   1.000  O
  O63      1.0000 0.03847  0.83108  0.00478  Biso   1.000  O
  O64      1.0000 0.49434  0.01570  0.67904  Biso   1.000  O
  O65      1.0000 0.33442  0.98442  0.46782  Biso   1.000  O
  O66      1.0000 0.54670  0.83188  0.50899  Biso   1.000  O
  O67      1.0000 0.49433  0.52535  0.85927  Biso   1.000  O
  O68      1.0000 0.64768  0.48197  0.05931  Biso   1.000  O
  O69      1.0000 0.43992  0.33047  0.03242  Biso   1.000  O
  O70      1.0000 0.99112  0.53423  0.66978  Biso   1.000  O
  O71      1.0000 0.14618  0.48965  0.47825  Biso   1.000  O
  O72      1.0000 0.94796  0.32648  0.51899  Biso   1.000  O
  O73      1.0000 0.99718  0.44788  0.67385  Biso   1.000  O
  O74      1.0000 0.64861  0.98884  0.48022  Biso   1.000  O
  O75      1.0000 0.45853  0.64435  0.01007  Biso   1.000  O
  O76      1.0000 0.49804  0.43953  0.86489  Biso   1.000  O
  O77      1.0000 0.15158  0.99241  0.05148  Biso   1.000  O
  O78      1.0000 0.96080  0.64762  0.51410  Biso   1.000  O
  O79      1.0000 0.47315  0.93739  0.66962  Biso   1.000  O
  O80      1.0000 0.84296  0.48188  0.47454  Biso   1.000  O
  O81      1.0000 0.02104  0.14256  0.03600  Biso   1.000  O
  O82      1.0000 0.98304  0.94629  0.85794  Biso   1.000  O
  O83      1.0000 0.33763  0.50752  0.06300  Biso   1.000  O
  O84      1.0000 0.52800  0.13937  0.53078  Biso   1.000  O
  O85      1.0000 0.00395  0.52286  0.35459  Biso   1.000  O
  O86      1.0000 0.33332  0.98184  0.55178  Biso   1.000  O
  O87      1.0000 0.52398  0.32616  0.02634  Biso   1.000  O
  O88      1.0000 0.50361  0.53614  0.17316  Biso   1.000  O
  O89      1.0000 0.83745  0.97878  0.98560  Biso   1.000  O
  O90      1.0000 0.03066  0.33674  0.52716  Biso   1.000  O
  O91      1.0000 0.49583  0.03606  0.36804  Biso   1.000  O
  O92      1.0000 0.14897  0.49367  0.56249  Biso   1.000  O
  O93      1.0000 0.95625  0.83248  0.01760  Biso   1.000  O
  O94      1.0000 0.00689  0.02250  0.17597  Biso   1.000  O
  O95      1.0000 0.65090  0.48611  0.97613  Biso   1.000  O
  O96      1.0000 0.46192  0.83168  0.50343  Biso   1.000  O
  O97      1.0000 0.44640  0.18870  0.53229  Biso   1.000  O
  O98      1.0000 0.49354  0.45315  0.22396  Biso   1.000  O
  O99      1.0000 0.19623  0.49074  0.47577  Biso   1.000  O
  O100     1.0000 0.94238  0.19297  0.02163  Biso   1.000  O
  O101     1.0000 0.99759  0.43682  0.30960  Biso   1.000  O
  O102     1.0000 0.69707  0.48057  0.06165  Biso   1.000  O
  O103     1.0000 0.04070  0.69037  0.49615  Biso   1.000  O
  O104     1.0000 0.99461  0.93790  0.21933  Biso   1.000  O
  O105     1.0000 0.28535  0.98220  0.46623  Biso   1.000  O
  O106     1.0000 0.54632  0.69197  0.00628  Biso   1.000  O
  O107     1.0000 0.49491  0.95769  0.31067  Biso   1.000  O
  O108     1.0000 0.79133  0.99692  0.06808  Biso   1.000  O
  O109     1.0000 0.54421  0.78170  0.50550  Biso   1.000  O
  O110     1.0000 0.49092  0.52134  0.80992  Biso   1.000  O
  O111     1.0000 0.79364  0.48343  0.55622  Biso   1.000  O
  O112     1.0000 0.03933  0.78332  0.00719  Biso   1.000  O
  O113     1.0000 0.98761  0.53493  0.71729  Biso   1.000  O
  O114     1.0000 0.29125  0.49467  0.98133  Biso   1.000  O
  O115     1.0000 0.94882  0.27785  0.52016  Biso   1.000  O
  O116     1.0000 0.97733  0.03177  0.81712  Biso   1.000  O
  O117     1.0000 0.68861  0.98303  0.56805  Biso   1.000  O
  O118     1.0000 0.43849  0.28165  0.03267  Biso   1.000  O
  O119     1.0000 0.49580  0.00950  0.72763  Biso   1.000  O
  O120     1.0000 0.19669  0.99873  0.96655  Biso   1.000  O
  O121     1.0000 0.03538  0.49568  0.72378  Biso   1.000  O
  O122     1.0000 0.69299  0.03070  0.53046  Biso   1.000  O
  O123     1.0000 0.50569  0.69398  0.04590  Biso   1.000  O
  O124     1.0000 0.53335  0.48171  0.81424  Biso   1.000  O
  O125     1.0000 0.19725  0.03913  0.00511  Biso   1.000  O
  O126     1.0000 0.99369  0.69084  0.46467  Biso   1.000  O
  O127     1.0000 0.43990  0.98460  0.72176  Biso   1.000  O
  O128     1.0000 0.79496  0.52689  0.50994  Biso   1.000  O
  O129     1.0000 0.97664  0.19266  0.07173  Biso   1.000  O
  O130     1.0000 0.94043  0.98257  0.81245  Biso   1.000  O
  O131     1.0000 0.28799  0.54114  0.01644  Biso   1.000  O
  O132     1.0000 0.48486  0.19105  0.49295  Biso   1.000  O
  O133     1.0000 0.95850  0.48075  0.30867  Biso   1.000  O
  O134     1.0000 0.29015  0.93594  0.50716  Biso   1.000  O
  O135     1.0000 0.47335  0.27828  0.98783  Biso   1.000  O
  O136     1.0000 0.45726  0.49694  0.22019  Biso   1.000  O
  O137     1.0000 0.79432  0.94518  0.04084  Biso   1.000  O
  O138     1.0000 0.98360  0.28136  0.56692  Biso   1.000  O
  O139     1.0000 0.54186  0.00128  0.31685  Biso   1.000  O
  O140     1.0000 0.19444  0.44578  0.51160  Biso   1.000  O
  O141     1.0000 0.99326  0.78143  0.96894  Biso   1.000  O
  O142     1.0000 0.04236  0.97559  0.21974  Biso   1.000  O
  O143     1.0000 0.69125  0.44071  0.02026  Biso   1.000  O
  O144     1.0000 0.50157  0.78136  0.54280  Biso   1.000  O
  O145     1.0000 0.54119  0.49362  0.22358  Biso   1.000  O
  O146     1.0000 0.19968  0.52987  0.51430  Biso   1.000  O
  O147     1.0000 0.48106  0.18260  0.57820  Biso   1.000  O
  O148     1.0000 0.04181  0.47414  0.30333  Biso   1.000  O
  O149     1.0000 0.70330  0.52436  0.01705  Biso   1.000  O
  O150     1.0000 0.98770  0.19234  0.98827  Biso   1.000  O
  O151     1.0000 0.95840  0.97979  0.22595  Biso   1.000  O
  O152     1.0000 0.28585  0.02485  0.50661  Biso   1.000  O
  O153     1.0000 0.00855  0.69389  0.54748  Biso   1.000  O
  O154     1.0000 0.45752  0.99989  0.31585  Biso   1.000  O
  O155     1.0000 0.78257  0.02560  0.01590  Biso   1.000  O
  O156     1.0000 0.50486  0.69360  0.96230  Biso   1.000  O
  O157     1.0000 0.44990  0.47542  0.81348  Biso   1.000  O
  O158     1.0000 0.78959  0.44436  0.51696  Biso   1.000  O
  O159     1.0000 0.50460  0.78160  0.46013  Biso   1.000  O
  O160     1.0000 0.95236  0.49007  0.71802  Biso   1.000  O
  O161     1.0000 0.28854  0.45862  0.03341  Biso   1.000  O
  O162     1.0000 0.99651  0.78369  0.05110  Biso   1.000  O
  O163     1.0000 0.02471  0.98930  0.81132  Biso   1.000  O
  O164     1.0000 0.69930  0.94913  0.52283  Biso   1.000  O
  O165     1.0000 0.99810  0.27955  0.48379  Biso   1.000  O
  O166     1.0000 0.51991  0.95486  0.72404  Biso   1.000  O
  O167     1.0000 0.19776  0.95306  0.00852  Biso   1.000  O
  O168     1.0000 0.48877  0.27799  0.07259  Biso   1.000  O
  O169     1.0000 0.00795  0.02075  0.22545  Biso   1.000  O
  O170     1.0000 0.20102  0.99563  0.04958  Biso   1.000  O
  O171     1.0000 0.02457  0.18972  0.03836  Biso   1.000  O
  O172     1.0000 0.49899  0.04125  0.31904  Biso   1.000  O
  O173     1.0000 0.69567  0.99830  0.48302  Biso   1.000  O
  O174     1.0000 0.52803  0.18663  0.53950  Biso   1.000  O
  O175     1.0000 0.49750  0.53942  0.22026  Biso   1.000  O
  O176     1.0000 0.28951  0.50634  0.06222  Biso   1.000  O
  O177     1.0000 0.46171  0.69273  0.00160  Biso   1.000  O
  O178     1.0000 0.00436  0.52106  0.30599  Biso   1.000  O
  O179     1.0000 0.79403  0.47895  0.47144  Biso   1.000  O
  O180     1.0000 0.96038  0.69558  0.51389  Biso   1.000  O
  O181     1.0000 0.98767  0.94854  0.81005  Biso   1.000  O
  O182     1.0000 0.78924  0.96929  0.99007  Biso   1.000  O
  O183     1.0000 0.95609  0.78354  0.01501  Biso   1.000  O
  O184     1.0000 0.46693  0.93289  0.71761  Biso   1.000  O
  O185     1.0000 0.28432  0.97971  0.54940  Biso   1.000  O
  O186     1.0000 0.46077  0.78404  0.49771  Biso   1.000  O
  O187     1.0000 0.49688  0.43727  0.81722  Biso   1.000  O
  O188     1.0000 0.69770  0.47961  0.97747  Biso   1.000  O
  O189     1.0000 0.52036  0.27738  0.02441  Biso   1.000  O
  O190     1.0000 0.99554  0.45473  0.72335  Biso   1.000  O
  O191     1.0000 0.19753  0.49000  0.55953  Biso   1.000  O
  O192     1.0000 0.03067  0.28701  0.53413  Biso   1.000  O
