data_image0
_cell_length_a       46.7302
_cell_length_b       46.9369
_cell_length_c       46.5583
_cell_angle_alpha    90
_cell_angle_beta     90
_cell_angle_gamma    90

_symmetry_space_group_name_H-M    "P 1"
_symmetry_int_tables_number       1

loop_
  _symmetry_equiv_pos_as_xyz
  'x, y, z'

loop_
  _atom_site_label
  _atom_site_occupancy
  _atom_site_fract_x
  _atom_site_fract_y
  _atom_site_fract_z
  _atom_site_thermal_displace_type
  _atom_site_B_iso_or_equiv
  _atom_site_type_symbol
  C1       1.0000 0.55811  0.95799  0.33339  Biso   1.000  C
  C2       1.0000 0.33744  0.52417  0.02424  Biso   1.000  C
  C3       1.0000 0.02574  0.27561  0.57271  Biso   1.000  C
  C4       1.0000 0.05749  0.97593  0.20877  Biso   1.000  C
  C5       1.0000 0.83766  0.51926  0.51301  Biso   1.000  C
  C6       1.0000 0.52374  0.28372  0.97489  Biso   1.000  C
  C7       1.0000 0.97619  0.47362  0.33725  Biso   1.000  C
  C8       1.0000 0.19461  0.02284  0.03512  Biso   1.000  C
  C9       1.0000 0.52789  0.78435  0.56966  Biso   1.000  C
  C10      1.0000 0.47260  0.46718  0.20740  Biso   1.000  C
  C11      1.0000 0.69621  0.02285  0.51971  Biso   1.000  C
  C12      1.0000 0.02986  0.78104  0.97641  Biso   1.000  C
  C13      1.0000 0.46929  0.95864  0.70986  Biso   1.000  C
  C14      1.0000 0.69738  0.40508  0.00521  Biso   1.000  C
  C15      1.0000 0.01691  0.64362  0.47609  Biso   1.000  C
  C16      1.0000 0.97528  0.95750  0.83593  Biso   1.000  C
  C17      1.0000 0.20750  0.41386  0.53461  Biso   1.000  C
  C18      1.0000 0.53108  0.64444  0.07242  Biso   1.000  C
  C19      1.0000 0.06781  0.45002  0.70742  Biso   1.000  C
  C20      1.0000 0.83593  0.90899  0.00299  Biso   1.000  C
  C21      1.0000 0.51618  0.14214  0.47048  Biso   1.000  C
  C22      1.0000 0.56691  0.46395  0.83893  Biso   1.000  C
  C23      1.0000 0.34180  0.91009  0.53082  Biso   1.000  C
  C24      1.0000 0.01187  0.14900  0.07575  Biso   1.000  C
  C25      1.0000 0.33757  0.01684  0.52688  Biso   1.000  C
  C26      1.0000 0.51227  0.29189  0.08294  Biso   1.000  C
  C27      1.0000 0.08285  0.46535  0.34721  Biso   1.000  C
  C28      1.0000 0.83494  0.01571  0.00882  Biso   1.000  C
  C29      1.0000 0.01977  0.28555  0.46542  Biso   1.000  C
  C30      1.0000 0.58441  0.47330  0.19605  Biso   1.000  C
  C31      1.0000 0.20335  0.52006  0.53555  Biso   1.000  C
  C32      1.0000 0.02699  0.78314  0.08852  Biso   1.000  C
  C33      1.0000 0.44960  0.97527  0.34029  Biso   1.000  C
  C34      1.0000 0.70428  0.51086  0.01625  Biso   1.000  C
  C35      1.0000 0.51833  0.78104  0.46172  Biso   1.000  C
  C36      1.0000 0.94813  0.96233  0.19557  Biso   1.000  C
  C37      1.0000 0.69701  0.91787  0.49978  Biso   1.000  C
  C38      1.0000 0.52582  0.64391  0.96379  Biso   1.000  C
  C39      1.0000 0.96002  0.46305  0.70133  Biso   1.000  C
  C40      1.0000 0.20024  0.91298  0.03592  Biso   1.000  C
  C41      1.0000 0.02057  0.64166  0.58307  Biso   1.000  C
  C42      1.0000 0.45881  0.44906  0.84352  Biso   1.000  C
  C43      1.0000 0.84045  0.40985  0.51048  Biso   1.000  C
  C44      1.0000 0.01813  0.14397  0.96629  Biso   1.000  C
  C45      1.0000 0.57759  0.96645  0.70216  Biso   1.000  C
  C46      1.0000 0.33809  0.41711  0.03874  Biso   1.000  C
  C47      1.0000 0.51441  0.14831  0.58020  Biso   1.000  C
  C48      1.0000 0.08122  0.96472  0.84559  Biso   1.000  C
  C49      1.0000 0.02107  0.01271  0.84588  Biso   1.000  C
  C50      1.0000 0.82836  0.95853  0.06162  Biso   1.000  C
  C51      1.0000 0.08003  0.78045  0.03548  Biso   1.000  C
  C52      1.0000 0.52032  0.01823  0.70658  Biso   1.000  C
  C53      1.0000 0.33664  0.96249  0.47354  Biso   1.000  C
  C54      1.0000 0.57726  0.78384  0.51411  Biso   1.000  C
  C55      1.0000 0.50793  0.51283  0.84073  Biso   1.000  C
  C56      1.0000 0.70889  0.45072  0.07047  Biso   1.000  C
  C57      1.0000 0.46338  0.29033  0.01838  Biso   1.000  C
  C58      1.0000 0.01867  0.51119  0.70925  Biso   1.000  C
  C59      1.0000 0.21302  0.46480  0.48154  Biso   1.000  C
  C60      1.0000 0.96717  0.28229  0.52049  Biso   1.000  C
  C61      1.0000 0.00791  0.91409  0.20918  Biso   1.000  C
  C62      1.0000 0.19907  0.96557  0.97833  Biso   1.000  C
  C63      1.0000 0.95876  0.14106  0.01651  Biso   1.000  C
  C64      1.0000 0.49470  0.91415  0.33476  Biso   1.000  C
  C65      1.0000 0.69735  0.96478  0.56453  Biso   1.000  C
  C66      1.0000 0.46054  0.14293  0.52074  Biso   1.000  C
  C67      1.0000 0.53698  0.41512  0.20548  Biso   1.000  C
  C68      1.0000 0.33334  0.46513  0.97815  Biso   1.000  C
  C69      1.0000 0.58164  0.64208  0.01384  Biso   1.000  C
  C70      1.0000 0.02574  0.41444  0.34068  Biso   1.000  C
  C71      1.0000 0.83614  0.46340  0.56814  Biso   1.000  C
  C72      1.0000 0.07103  0.64483  0.53084  Biso   1.000  C
  C73      1.0000 0.02758  0.52387  0.34653  Biso   1.000  C
  C74      1.0000 0.34320  0.96500  0.58275  Biso   1.000  C
  C75      1.0000 0.57029  0.28462  0.03271  Biso   1.000  C
  C76      1.0000 0.52798  0.52515  0.20624  Biso   1.000  C
  C77      1.0000 0.83843  0.96712  0.95167  Biso   1.000  C
  C78      1.0000 0.07831  0.28852  0.51329  Biso   1.000  C
  C79      1.0000 0.51312  0.02164  0.33857  Biso   1.000  C
  C80      1.0000 0.20069  0.46558  0.58937  Biso   1.000  C
  C81      1.0000 0.96993  0.78645  0.02818  Biso   1.000  C
  C82      1.0000 0.99664  0.02357  0.20414  Biso   1.000  C
  C83      1.0000 0.69873  0.46625  0.96211  Biso   1.000  C
  C84      1.0000 0.46716  0.78160  0.51964  Biso   1.000  C
  C85      1.0000 0.00853  0.40138  0.70437  Biso   1.000  C
  C86      1.0000 0.68759  0.97893  0.45560  Biso   1.000  C
  C87      1.0000 0.47354  0.64157  0.02106  Biso   1.000  C
  C88      1.0000 0.51967  0.40298  0.84103  Biso   1.000  C
  C89      1.0000 0.18720  0.96372  0.08601  Biso   1.000  C
  C90      1.0000 0.96526  0.64492  0.52688  Biso   1.000  C
  C91      1.0000 0.52753  0.90746  0.70456  Biso   1.000  C
  C92      1.0000 0.84287  0.46711  0.46167  Biso   1.000  C
  C93      1.0000 0.06760  0.14835  0.02432  Biso   1.000  C
  C94      1.0000 0.03370  0.90579  0.84475  Biso   1.000  C
  C95      1.0000 0.34281  0.47556  0.08553  Biso   1.000  C
  C96      1.0000 0.57060  0.14520  0.52462  Biso   1.000  C
  C97      1.0000 0.69612  0.05492  0.52226  Biso   1.000  C
  C98      1.0000 0.53378  0.64434  0.10412  Biso   1.000  C
  C99      1.0000 0.09902  0.44093  0.70974  Biso   1.000  C
  C100     1.0000 0.19553  0.05507  0.03495  Biso   1.000  C
  C101     1.0000 0.00829  0.64407  0.44551  Biso   1.000  C
  C102     1.0000 0.59899  0.46417  0.83575  Biso   1.000  C
  C103     1.0000 0.83690  0.55163  0.50875  Biso   1.000  C
  C104     1.0000 0.01260  0.15065  0.10745  Biso   1.000  C
  C105     1.0000 0.43771  0.95606  0.71014  Biso   1.000  C
  C106     1.0000 0.33807  0.55575  0.01885  Biso   1.000  C
  C107     1.0000 0.51489  0.14465  0.43828  Biso   1.000  C
  C108     1.0000 0.94407  0.96392  0.83346  Biso   1.000  C
  C109     1.0000 0.34098  0.87834  0.53650  Biso   1.000  C
  C110     1.0000 0.52409  0.28139  0.94293  Biso   1.000  C
  C111     1.0000 0.94308  0.47742  0.33560  Biso   1.000  C
  C112     1.0000 0.83815  0.87709  0.00373  Biso   1.000  C
  C113     1.0000 0.02957  0.27514  0.60587  Biso   1.000  C
  C114     1.0000 0.43996  0.46744  0.20841  Biso   1.000  C
  C115     1.0000 0.20699  0.38258  0.53308  Biso   1.000  C
  C116     1.0000 0.03146  0.77980  0.94381  Biso   1.000  C
  C117     1.0000 0.58979  0.96135  0.33156  Biso   1.000  C
  C118     1.0000 0.69498  0.37300  0.99976  Biso   1.000  C
  C119     1.0000 0.52718  0.78473  0.60214  Biso   1.000  C
  C120     1.0000 0.08937  0.97842  0.21046  Biso   1.000  C
  C121     1.0000 0.82640  0.95559  0.09388  Biso   1.000  C
  C122     1.0000 0.11205  0.78106  0.03669  Biso   1.000  C
  C123     1.0000 0.02171  0.04467  0.84496  Biso   1.000  C
  C124     1.0000 0.33322  0.96092  0.44143  Biso   1.000  C
  C125     1.0000 0.60888  0.78562  0.51147  Biso   1.000  C
  C126     1.0000 0.52344  0.05049  0.70493  Biso   1.000  C
  C127     1.0000 0.71063  0.45161  0.10114  Biso   1.000  C
  C128     1.0000 0.42989  0.29031  0.01876  Biso   1.000  C
  C129     1.0000 0.51075  0.54406  0.84184  Biso   1.000  C
  C130     1.0000 0.21254  0.45918  0.44987  Biso   1.000  C
  C131     1.0000 0.93641  0.27984  0.52001  Biso   1.000  C
  C132     1.0000 0.02177  0.54365  0.71141  Biso   1.000  C
  C133     1.0000 0.20121  0.96093  0.94622  Biso   1.000  C
  C134     1.0000 0.92694  0.14082  0.01520  Biso   1.000  C
  C135     1.0000 0.00651  0.88267  0.20786  Biso   1.000  C
  C136     1.0000 0.70122  0.96383  0.59663  Biso   1.000  C
  C137     1.0000 0.42777  0.14257  0.51638  Biso   1.000  C
  C138     1.0000 0.50164  0.88186  0.33545  Biso   1.000  C
  C139     1.0000 0.33301  0.46474  0.94602  Biso   1.000  C
  C140     1.0000 0.61389  0.64347  0.01206  Biso   1.000  C
  C141     1.0000 0.54196  0.38314  0.20573  Biso   1.000  C
  C142     1.0000 0.83359  0.46518  0.60001  Biso   1.000  C
  C143     1.0000 0.10334  0.64590  0.53231  Biso   1.000  C
  C144     1.0000 0.02266  0.38332  0.33814  Biso   1.000  C
  C145     1.0000 0.34203  0.47427  0.11861  Biso   1.000  C
  C146     1.0000 0.10999  0.29133  0.50652  Biso   1.000  C
  C147     1.0000 0.51511  0.05323  0.33927  Biso   1.000  C
  C148     1.0000 0.84514  0.46591  0.42959  Biso   1.000  C
  C149     1.0000 0.60242  0.28245  0.02889  Biso   1.000  C
  C150     1.0000 0.99257  0.05633  0.20184  Biso   1.000  C
  C151     1.0000 0.18435  0.96273  0.11685  Biso   1.000  C
  C152     1.0000 0.43457  0.78233  0.52157  Biso   1.000  C
  C153     1.0000 0.02142  0.55505  0.34706  Biso   1.000  C
  C154     1.0000 0.68518  0.98157  0.42323  Biso   1.000  C
  C155     1.0000 0.93789  0.78648  0.02685  Biso   1.000  C
  C156     1.0000 0.52741  0.55688  0.20523  Biso   1.000  C
  C157     1.0000 0.69823  0.46726  0.92987  Biso   1.000  C
  C158     1.0000 0.93353  0.64699  0.52112  Biso   1.000  C
  C159     1.0000 0.52668  0.87536  0.70301  Biso   1.000  C
  C160     1.0000 0.19772  0.46120  0.62174  Biso   1.000  C
  C161     1.0000 0.44149  0.64233  0.02314  Biso   1.000  C
  C162     1.0000 0.03137  0.87405  0.84493  Biso   1.000  C
  C163     1.0000 0.84259  0.97322  0.91986  Biso   1.000  C
  C164     1.0000 0.60228  0.14608  0.52158  Biso   1.000  C
  C165     1.0000 0.01127  0.36920  0.70214  Biso   1.000  C
  C166     1.0000 0.34501  0.96382  0.61499  Biso   1.000  C
  C167     1.0000 0.10078  0.14957  0.02414  Biso   1.000  C
  C168     1.0000 0.52243  0.37175  0.84221  Biso   1.000  C
  C169     1.0000 0.02695  0.78417  0.12015  Biso   1.000  C
  C170     1.0000 0.11375  0.96647  0.84647  Biso   1.000  C
  C171     1.0000 0.83343  0.04757  0.00830  Biso   1.000  C
  C172     1.0000 0.51699  0.78219  0.42872  Biso   1.000  C
  C173     1.0000 0.60997  0.96567  0.69888  Biso   1.000  C
  C174     1.0000 0.33670  0.04739  0.52253  Biso   1.000  C
  C175     1.0000 0.50938  0.29192  0.11518  Biso   1.000  C
  C176     1.0000 0.42744  0.44516  0.84668  Biso   1.000  C
  C177     1.0000 0.70439  0.54286  0.00623  Biso   1.000  C
  C178     1.0000 0.01065  0.28826  0.43482  Biso   1.000  C
  C179     1.0000 0.92816  0.46947  0.69738  Biso   1.000  C
  C180     1.0000 0.20039  0.55234  0.53571  Biso   1.000  C
  C181     1.0000 0.01975  0.14186  0.93313  Biso   1.000  C
  C182     1.0000 0.91551  0.96145  0.19434  Biso   1.000  C
  C183     1.0000 0.20337  0.87966  0.03903  Biso   1.000  C
  C184     1.0000 0.51567  0.14841  0.61115  Biso   1.000  C
  C185     1.0000 0.41751  0.98117  0.34278  Biso   1.000  C
  C186     1.0000 0.69968  0.88506  0.50026  Biso   1.000  C
  C187     1.0000 0.52504  0.64361  0.93107  Biso   1.000  C
  C188     1.0000 0.61610  0.47824  0.19458  Biso   1.000  C
  C189     1.0000 0.33935  0.38542  0.04291  Biso   1.000  C
  C190     1.0000 0.02443  0.64079  0.61550  Biso   1.000  C
  C191     1.0000 0.11626  0.46630  0.34927  Biso   1.000  C
  C192     1.0000 0.84230  0.37818  0.50536  Biso   1.000  C
  C193     1.0000 0.87130  0.97090  0.90593  Biso   1.000  C
  C194     1.0000 0.92044  0.81141  0.02213  Biso   1.000  C
  C195     1.0000 0.03162  0.85758  0.87258  Biso   1.000  C
  C196     1.0000 0.37161  0.96176  0.63099  Biso   1.000  C
  C197     1.0000 0.41856  0.80919  0.52798  Biso   1.000  C
  C198     1.0000 0.52734  0.85944  0.67481  Biso   1.000  C
  C199     1.0000 0.67099  0.46607  0.91462  Biso   1.000  C
  C200     1.0000 0.61822  0.30864  0.02282  Biso   1.000  C
  C201     1.0000 0.52356  0.35777  0.87136  Biso   1.000  C
  C202     1.0000 0.16990  0.45655  0.63663  Biso   1.000  C
  C203     1.0000 0.12567  0.31768  0.50987  Biso   1.000  C
  C204     1.0000 0.01413  0.35397  0.67492  Biso   1.000  C
  C205     1.0000 0.15788  0.97174  0.13063  Biso   1.000  C
  C206     1.0000 0.11892  0.12401  0.02581  Biso   1.000  C
  C207     1.0000 0.99800  0.07273  0.17528  Biso   1.000  C
  C208     1.0000 0.65770  0.97957  0.40720  Biso   1.000  C
  C209     1.0000 0.61944  0.12012  0.52253  Biso   1.000  C
  C210     1.0000 0.51379  0.06681  0.36705  Biso   1.000  C
  C211     1.0000 0.36927  0.47223  0.13267  Biso   1.000  C
  C212     1.0000 0.42312  0.61648  0.02231  Biso   1.000  C
  C213     1.0000 0.52753  0.57182  0.17685  Biso   1.000  C
  C214     1.0000 0.87295  0.46880  0.41438  Biso   1.000  C
  C215     1.0000 0.91639  0.62013  0.52174  Biso   1.000  C
  C216     1.0000 0.02139  0.56995  0.37458  Biso   1.000  C
  C217     1.0000 0.12858  0.96515  0.87461  Biso   1.000  C
  C218     1.0000 0.86132  0.06258  0.01123  Biso   1.000  C
  C219     1.0000 0.02631  0.81160  0.13343  Biso   1.000  C
  C220     1.0000 0.62449  0.96708  0.67041  Biso   1.000  C
  C221     1.0000 0.36384  0.06439  0.52095  Biso   1.000  C
  C222     1.0000 0.51160  0.81008  0.41464  Biso   1.000  C
  C223     1.0000 0.41236  0.44901  0.87439  Biso   1.000  C
  C224     1.0000 0.67669  0.55985  0.00915  Biso   1.000  C
  C225     1.0000 0.51759  0.31804  0.13081  Biso   1.000  C
  C226     1.0000 0.91354  0.47292  0.66843  Biso   1.000  C
  C227     1.0000 0.17317  0.56886  0.53478  Biso   1.000  C
  C228     1.0000 0.01358  0.31574  0.41774  Biso   1.000  C
  C229     1.0000 0.90053  0.95774  0.16564  Biso   1.000  C
  C230     1.0000 0.17688  0.86231  0.03959  Biso   1.000  C
  C231     1.0000 0.02107  0.11419  0.91849  Biso   1.000  C
  C232     1.0000 0.40269  0.97853  0.37000  Biso   1.000  C
  C233     1.0000 0.67212  0.86662  0.50517  Biso   1.000  C
  C234     1.0000 0.51646  0.12049  0.62764  Biso   1.000  C
  C235     1.0000 0.63246  0.47326  0.16719  Biso   1.000  C
  C236     1.0000 0.36538  0.37032  0.03507  Biso   1.000  C
  C237     1.0000 0.52196  0.61622  0.91669  Biso   1.000  C
  C238     1.0000 0.13022  0.46360  0.37850  Biso   1.000  C
  C239     1.0000 0.86810  0.36239  0.51077  Biso   1.000  C
  C240     1.0000 0.01968  0.61375  0.63247  Biso   1.000  C
  C241     1.0000 0.61642  0.46564  0.86232  Biso   1.000  C
  C242     1.0000 0.86333  0.56825  0.51312  Biso   1.000  C
  C243     1.0000 0.53000  0.81122  0.61967  Biso   1.000  C
  C244     1.0000 0.11713  0.44343  0.68304  Biso   1.000  C
  C245     1.0000 0.36640  0.56905  0.02281  Biso   1.000  C
  C246     1.0000 0.03286  0.80674  0.92594  Biso   1.000  C
  C247     1.0000 0.92468  0.96495  0.85818  Biso   1.000  C
  C248     1.0000 0.66901  0.07017  0.52571  Biso   1.000  C
  C249     1.0000 0.02378  0.30173  0.62167  Biso   1.000  C
  C250     1.0000 0.42270  0.95519  0.68261  Biso   1.000  C
  C251     1.0000 0.16976  0.07210  0.03081  Biso   1.000  C
  C252     1.0000 0.52514  0.30821  0.92616  Biso   1.000  C
  C253     1.0000 0.42201  0.46819  0.18130  Biso   1.000  C
  C254     1.0000 0.17833  0.36760  0.52922  Biso   1.000  C
  C255     1.0000 0.51225  0.11892  0.42195  Biso   1.000  C
  C256     1.0000 0.92568  0.47528  0.36257  Biso   1.000  C
  C257     1.0000 0.67168  0.35635  0.01150  Biso   1.000  C
  C258     1.0000 0.00817  0.12438  0.12394  Biso   1.000  C
  C259     1.0000 0.10631  0.97812  0.18281  Biso   1.000  C
  C260     1.0000 0.36851  0.86124  0.53504  Biso   1.000  C
  C261     1.0000 0.01262  0.61918  0.42816  Biso   1.000  C
  C262     1.0000 0.60621  0.96815  0.35760  Biso   1.000  C
  C263     1.0000 0.86651  0.86291  0.00757  Biso   1.000  C
  C264     1.0000 0.53347  0.61774  0.12185  Biso   1.000  C
  C265     1.0000 0.02262  0.06188  0.87064  Biso   1.000  C
  C266     1.0000 0.85020  0.95320  0.11306  Biso   1.000  C
  C267     1.0000 0.12578  0.81013  0.03744  Biso   1.000  C
  C268     1.0000 0.52107  0.06795  0.67806  Biso   1.000  C
  C269     1.0000 0.35845  0.96743  0.42397  Biso   1.000  C
  C270     1.0000 0.62572  0.81249  0.50900  Biso   1.000  C
  C271     1.0000 0.51626  0.56135  0.86867  Biso   1.000  C
  C272     1.0000 0.68428  0.45741  0.11662  Biso   1.000  C
  C273     1.0000 0.41534  0.31883  0.02266  Biso   1.000  C
  C274     1.0000 0.02390  0.56013  0.68359  Biso   1.000  C
  C275     1.0000 0.18423  0.45715  0.43378  Biso   1.000  C
  C276     1.0000 0.92087  0.30804  0.51501  Biso   1.000  C
  C277     1.0000 0.01393  0.86787  0.18104  Biso   1.000  C
  C278     1.0000 0.17556  0.96210  0.92921  Biso   1.000  C
  C279     1.0000 0.91170  0.11414  0.01321  Biso   1.000  C
  C280     1.0000 0.50250  0.86425  0.36203  Biso   1.000  C
  C281     1.0000 0.67514  0.96596  0.61487  Biso   1.000  C
  C282     1.0000 0.41415  0.11571  0.51674  Biso   1.000  C
  C283     1.0000 0.53799  0.36718  0.17854  Biso   1.000  C
  C284     1.0000 0.36095  0.45901  0.93141  Biso   1.000  C
  C285     1.0000 0.62855  0.61500  0.00818  Biso   1.000  C
  C286     1.0000 0.01801  0.36699  0.36650  Biso   1.000  C
  C287     1.0000 0.85915  0.47018  0.61693  Biso   1.000  C
  C288     1.0000 0.12037  0.61878  0.53516  Biso   1.000  C
  C289     1.0000 0.36567  0.83028  0.53190  Biso   1.000  C
  C290     1.0000 0.52963  0.30667  0.89373  Biso   1.000  C
  C291     1.0000 0.89394  0.47744  0.36009  Biso   1.000  C
  C292     1.0000 0.86701  0.83104  0.01183  Biso   1.000  C
  C293     1.0000 0.02102  0.30054  0.65317  Biso   1.000  C
  C294     1.0000 0.39137  0.47196  0.18440  Biso   1.000  C
  C295     1.0000 0.17809  0.33690  0.52124  Biso   1.000  C
  C296     1.0000 0.03369  0.80467  0.89582  Biso   1.000  C
  C297     1.0000 0.63698  0.97231  0.35515  Biso   1.000  C
  C298     1.0000 0.66983  0.32562  0.01024  Biso   1.000  C
  C299     1.0000 0.52918  0.80800  0.65068  Biso   1.000  C
  C300     1.0000 0.13687  0.97505  0.18459  Biso   1.000  C
  C301     1.0000 0.67286  0.10194  0.52385  Biso   1.000  C
  C302     1.0000 0.53122  0.62147  0.15324  Biso   1.000  C
  C303     1.0000 0.14810  0.44459  0.68621  Biso   1.000  C
  C304     1.0000 0.17152  0.10363  0.02972  Biso   1.000  C
  C305     1.0000 0.01344  0.62194  0.39761  Biso   1.000  C
  C306     1.0000 0.64880  0.46677  0.86180  Biso   1.000  C
  C307     1.0000 0.86445  0.59954  0.50895  Biso   1.000  C
  C308     1.0000 0.00039  0.12544  0.15531  Biso   1.000  C
  C309     1.0000 0.39129  0.95606  0.68426  Biso   1.000  C
  C310     1.0000 0.36827  0.59893  0.02089  Biso   1.000  C
  C311     1.0000 0.51549  0.12016  0.39083  Biso   1.000  C
  C312     1.0000 0.89394  0.96794  0.85318  Biso   1.000  C
  C313     1.0000 0.18318  0.45985  0.40238  Biso   1.000  C
  C314     1.0000 0.38225  0.11627  0.51763  Biso   1.000  C
  C315     1.0000 0.53109  0.33610  0.18152  Biso   1.000  C
  C316     1.0000 0.68500  0.46155  0.14809  Biso   1.000  C
  C317     1.0000 0.88095  0.11408  0.01248  Biso   1.000  C
  C318     1.0000 0.01256  0.33646  0.36588  Biso   1.000  C
  C319     1.0000 0.35288  0.97054  0.39371  Biso   1.000  C
  C320     1.0000 0.15121  0.62033  0.53140  Biso   1.000  C
  C321     1.0000 0.01695  0.83703  0.18482  Biso   1.000  C
  C322     1.0000 0.84707  0.95669  0.14467  Biso   1.000  C
  C323     1.0000 0.66030  0.61401  0.00776  Biso   1.000  C
  C324     1.0000 0.50839  0.83347  0.36113  Biso   1.000  C
  C325     1.0000 0.85916  0.47024  0.64740  Biso   1.000  C
  C326     1.0000 0.65671  0.81279  0.50496  Biso   1.000  C
  C327     1.0000 0.51949  0.59250  0.86541  Biso   1.000  C
  C328     1.0000 0.36117  0.45349  0.90009  Biso   1.000  C
  C329     1.0000 0.15819  0.81082  0.03651  Biso   1.000  C
  C330     1.0000 0.02429  0.59191  0.68405  Biso   1.000  C
  C331     1.0000 0.67736  0.96355  0.64650  Biso   1.000  C
  C332     1.0000 0.89017  0.30841  0.51062  Biso   1.000  C
  C333     1.0000 0.01926  0.09255  0.86650  Biso   1.000  C
  C334     1.0000 0.17876  0.96271  0.89886  Biso   1.000  C
  C335     1.0000 0.38427  0.31775  0.02821  Biso   1.000  C
  C336     1.0000 0.52280  0.09917  0.68046  Biso   1.000  C
  C337     1.0000 0.67164  0.46829  0.88372  Biso   1.000  C
  C338     1.0000 0.88610  0.62028  0.51253  Biso   1.000  C
  C339     1.0000 0.52768  0.82830  0.67408  Biso   1.000  C
  C340     1.0000 0.17048  0.45034  0.66659  Biso   1.000  C
  C341     1.0000 0.39141  0.61987  0.02062  Biso   1.000  C
  C342     1.0000 0.03359  0.82619  0.87396  Biso   1.000  C
  C343     1.0000 0.87152  0.97177  0.87441  Biso   1.000  C
  C344     1.0000 0.65142  0.12327  0.52087  Biso   1.000  C
  C345     1.0000 0.01744  0.32234  0.67500  Biso   1.000  C
  C346     1.0000 0.37023  0.95836  0.66244  Biso   1.000  C
  C347     1.0000 0.15020  0.12493  0.02723  Biso   1.000  C
  C348     1.0000 0.52982  0.32666  0.87052  Biso   1.000  C
  C349     1.0000 0.36959  0.47279  0.16383  Biso   1.000  C
  C350     1.0000 0.15686  0.31619  0.51511  Biso   1.000  C
  C351     1.0000 0.51399  0.09897  0.36928  Biso   1.000  C
  C352     1.0000 0.87224  0.47312  0.38167  Biso   1.000  C
  C353     1.0000 0.64826  0.30482  0.01445  Biso   1.000  C
  C354     1.0000 0.99759  0.10367  0.17704  Biso   1.000  C
  C355     1.0000 0.15761  0.97240  0.16291  Biso   1.000  C
  C356     1.0000 0.38677  0.80854  0.52769  Biso   1.000  C
  C357     1.0000 0.01562  0.60116  0.37449  Biso   1.000  C
  C358     1.0000 0.65837  0.97673  0.37617  Biso   1.000  C
  C359     1.0000 0.88914  0.81106  0.01845  Biso   1.000  C
  C360     1.0000 0.52999  0.60253  0.17625  Biso   1.000  C
  C361     1.0000 0.01860  0.11506  0.88681  Biso   1.000  C
  C362     1.0000 0.86844  0.95891  0.16662  Biso   1.000  C
  C363     1.0000 0.18016  0.83124  0.03677  Biso   1.000  C
  C364     1.0000 0.52048  0.12017  0.65954  Biso   1.000  C
  C365     1.0000 0.37133  0.97789  0.37079  Biso   1.000  C
  C366     1.0000 0.67574  0.83579  0.50334  Biso   1.000  C
  C367     1.0000 0.52380  0.61489  0.88613  Biso   1.000  C
  C368     1.0000 0.66427  0.46746  0.16900  Biso   1.000  C
  C369     1.0000 0.36366  0.33941  0.03295  Biso   1.000  C
  C370     1.0000 0.02430  0.61363  0.66428  Biso   1.000  C
  C371     1.0000 0.16222  0.46191  0.37834  Biso   1.000  C
  C372     1.0000 0.86915  0.33123  0.50931  Biso   1.000  C
  C373     1.0000 0.02023  0.81400  0.16499  Biso   1.000  C
  C374     1.0000 0.15921  0.96134  0.87556  Biso   1.000  C
  C375     1.0000 0.85828  0.09306  0.01190  Biso   1.000  C
  C376     1.0000 0.50993  0.81077  0.38192  Biso   1.000  C
  C377     1.0000 0.65685  0.96352  0.67012  Biso   1.000  C
  C378     1.0000 0.36035  0.09409  0.51861  Biso   1.000  C
  C379     1.0000 0.52164  0.31536  0.16101  Biso   1.000  C
  C380     1.0000 0.38157  0.45032  0.87680  Biso   1.000  C
  C381     1.0000 0.67969  0.59129  0.00783  Biso   1.000  C
  C382     1.0000 0.01283  0.31496  0.38729  Biso   1.000  C
  C383     1.0000 0.88172  0.47084  0.66749  Biso   1.000  C
  C384     1.0000 0.17345  0.59963  0.53251  Biso   1.000  C
  C385     1.0000 0.19782  0.11844  0.02803  Biso   1.000  C
  C386     1.0000 0.99880  0.15138  0.17088  Biso   1.000  C
  C387     1.0000 0.15224  0.97359  0.21212  Biso   1.000  C
  C388     1.0000 0.69908  0.11679  0.51758  Biso   1.000  C
  C389     1.0000 0.51492  0.14779  0.37550  Biso   1.000  C
  C390     1.0000 0.65139  0.97004  0.32773  Biso   1.000  C
  C391     1.0000 0.34294  0.61639  0.01840  Biso   1.000  C
  C392     1.0000 0.53382  0.65076  0.16732  Biso   1.000  C
  C393     1.0000 0.37722  0.47268  0.21174  Biso   1.000  C
  C394     1.0000 0.83912  0.61486  0.50106  Biso   1.000  C
  C395     1.0000 0.00817  0.64843  0.38256  Biso   1.000  C
  C396     1.0000 0.87886  0.47947  0.33330  Biso   1.000  C
  C397     1.0000 0.83987  0.81405  0.00956  Biso   1.000  C
  C398     1.0000 0.03573  0.77769  0.88017  Biso   1.000  C
  C399     1.0000 0.88033  0.96949  0.82592  Biso   1.000  C
  C400     1.0000 0.33837  0.81654  0.53049  Biso   1.000  C
  C401     1.0000 0.52927  0.77960  0.66345  Biso   1.000  C
  C402     1.0000 0.37502  0.95197  0.71037  Biso   1.000  C
  C403     1.0000 0.69534  0.30929  0.00068  Biso   1.000  C
  C404     1.0000 0.53257  0.27702  0.87971  Biso   1.000  C
  C405     1.0000 0.66299  0.47014  0.83370  Biso   1.000  C
  C406     1.0000 0.20499  0.32172  0.52102  Biso   1.000  C
  C407     1.0000 0.01997  0.27442  0.66906  Biso   1.000  C
  C408     1.0000 0.16186  0.44224  0.71391  Biso   1.000  C
  C409     1.0000 0.17683  0.96184  0.84883  Biso   1.000  C
  C410     1.0000 0.83212  0.11002  0.00998  Biso   1.000  C
  C411     1.0000 0.01860  0.78833  0.18211  Biso   1.000  C
  C412     1.0000 0.67365  0.96013  0.69603  Biso   1.000  C
  C413     1.0000 0.33253  0.10842  0.51843  Biso   1.000  C
  C414     1.0000 0.51368  0.78529  0.36490  Biso   1.000  C
  C415     1.0000 0.36498  0.44730  0.85030  Biso   1.000  C
  C416     1.0000 0.70773  0.60577  0.00788  Biso   1.000  C
  C417     1.0000 0.51766  0.28915  0.17755  Biso   1.000  C
  C418     1.0000 0.86501  0.47136  0.69420  Biso   1.000  C
  C419     1.0000 0.20035  0.61595  0.53299  Biso   1.000  C
  C420     1.0000 0.00933  0.28854  0.37155  Biso   1.000  C
  C421     1.0000 0.85220  0.96107  0.19352  Biso   1.000  C
  C422     1.0000 0.20791  0.81713  0.03499  Biso   1.000  C
  C423     1.0000 0.01420  0.14073  0.87089  Biso   1.000  C
  C424     1.0000 0.35338  0.97982  0.34439  Biso   1.000  C
  C425     1.0000 0.70400  0.82249  0.49731  Biso   1.000  C
  C426     1.0000 0.52373  0.14643  0.67579  Biso   1.000  C
  C427     1.0000 0.67961  0.47011  0.19626  Biso   1.000  C
  C428     1.0000 0.33749  0.32323  0.03772  Biso   1.000  C
  C429     1.0000 0.52770  0.64077  0.86920  Biso   1.000  C
  C430     1.0000 0.17894  0.46656  0.35257  Biso   1.000  C
  C431     1.0000 0.84218  0.31609  0.50743  Biso   1.000  C
  C432     1.0000 0.02908  0.64062  0.67977  Biso   1.000  C
  C433     1.0000 0.01670  0.10614  0.83910  Biso   1.000  C
  C434     1.0000 0.82018  0.95946  0.15936  Biso   1.000  C
  C435     1.0000 0.17515  0.78404  0.03468  Biso   1.000  C
  C436     1.0000 0.52658  0.11402  0.70710  Biso   1.000  C
  C437     1.0000 0.32476  0.96613  0.37911  Biso   1.000  C
  C438     1.0000 0.67288  0.78727  0.50146  Biso   1.000  C
  C439     1.0000 0.52012  0.60611  0.83804  Biso   1.000  C
  C440     1.0000 0.71216  0.46194  0.16377  Biso   1.000  C
  C441     1.0000 0.36759  0.29092  0.02881  Biso   1.000  C
  C442     1.0000 0.02592  0.60653  0.71254  Biso   1.000  C
  C443     1.0000 0.21112  0.46337  0.38738  Biso   1.000  C
  C444     1.0000 0.87310  0.28229  0.51170  Biso   1.000  C
  C445     1.0000 0.00939  0.82184  0.21242  Biso   1.000  C
  C446     1.0000 0.20618  0.96204  0.88511  Biso   1.000  C
  C447     1.0000 0.86469  0.14136  0.01091  Biso   1.000  C
  C448     1.0000 0.51354  0.81986  0.33460  Biso   1.000  C
  C449     1.0000 0.70466  0.95970  0.66098  Biso   1.000  C
  C450     1.0000 0.36521  0.14179  0.51604  Biso   1.000  C
  C451     1.0000 0.53263  0.32027  0.20796  Biso   1.000  C
  C452     1.0000 0.33363  0.45374  0.88401  Biso   1.000  C
  C453     1.0000 0.67635  0.64029  0.00854  Biso   1.000  C
  C454     1.0000 0.01075  0.32162  0.33834  Biso   1.000  C
  C455     1.0000 0.83259  0.46915  0.66307  Biso   1.000  C
  C456     1.0000 0.16610  0.64845  0.52841  Biso   1.000  C
  C457     1.0000 0.01326  0.61904  0.34870  Biso   1.000  C
  C458     1.0000 0.34317  0.95652  0.67804  Biso   1.000  C
  C459     1.0000 0.66261  0.27725  0.00971  Biso   1.000  C
  C460     1.0000 0.52979  0.62082  0.20097  Biso   1.000  C
  C461     1.0000 0.84636  0.97568  0.85792  Biso   1.000  C
  C462     1.0000 0.17297  0.29083  0.51086  Biso   1.000  C
  C463     1.0000 0.51502  0.11573  0.34303  Biso   1.000  C
  C464     1.0000 0.19745  0.45062  0.68351  Biso   1.000  C
  C465     1.0000 0.87467  0.78381  0.02218  Biso   1.000  C
  C466     1.0000 0.99150  0.11893  0.20311  Biso   1.000  C
  C467     1.0000 0.69748  0.47275  0.86639  Biso   1.000  C
  C468     1.0000 0.37026  0.78286  0.52222  Biso   1.000  C
  C469     1.0000 0.01458  0.30603  0.70204  Biso   1.000  C
  C470     1.0000 0.68461  0.97789  0.36016  Biso   1.000  C
  C471     1.0000 0.37841  0.64770  0.02012  Biso   1.000  C
  C472     1.0000 0.53397  0.30917  0.84435  Biso   1.000  C
  C473     1.0000 0.18452  0.96927  0.17859  Biso   1.000  C
  C474     1.0000 0.87267  0.64658  0.50350  Biso   1.000  C
  C475     1.0000 0.52669  0.80888  0.69882  Biso   1.000  C
  C476     1.0000 0.84597  0.47305  0.36545  Biso   1.000  C
  C477     1.0000 0.16555  0.15196  0.02430  Biso   1.000  C
  C478     1.0000 0.03589  0.80988  0.84738  Biso   1.000  C
  C479     1.0000 0.34315  0.47371  0.18070  Biso   1.000  C
  C480     1.0000 0.66695  0.15041  0.51834  Biso   1.000  C
  C481     1.0000 0.38627  0.75780  0.51209  Biso   1.000  C
  C482     1.0000 0.53070  0.32378  0.81695  Biso   1.000  C
  C483     1.0000 0.81957  0.46458  0.38147  Biso   1.000  C
  C484     1.0000 0.89199  0.75685  0.02630  Biso   1.000  C
  C485     1.0000 0.00762  0.32109  0.72876  Biso   1.000  C
  C486     1.0000 0.31549  0.47907  0.16592  Biso   1.000  C
  C487     1.0000 0.15790  0.26480  0.50360  Biso   1.000  C
  C488     1.0000 0.03694  0.82418  0.81942  Biso   1.000  C
  C489     1.0000 0.71046  0.98307  0.37618  Biso   1.000  C
  C490     1.0000 0.64732  0.25179  0.01583  Biso   1.000  C
  C491     1.0000 0.52942  0.82391  0.72669  Biso   1.000  C
  C492     1.0000 0.21164  0.95957  0.16357  Biso   1.000  C
  C493     1.0000 0.64882  0.17670  0.51655  Biso   1.000  C
  C494     1.0000 0.52762  0.60789  0.22953  Biso   1.000  C
  C495     1.0000 0.22473  0.45785  0.66930  Biso   1.000  C
  C496     1.0000 0.14819  0.17764  0.02483  Biso   1.000  C
  C497     1.0000 0.01496  0.60338  0.31969  Biso   1.000  C
  C498     1.0000 0.72487  0.47575  0.88240  Biso   1.000  C
  C499     1.0000 0.88877  0.67383  0.50524  Biso   1.000  C
  C500     1.0000 0.98237  0.10269  0.22892  Biso   1.000  C
  C501     1.0000 0.31559  0.96127  0.66227  Biso   1.000  C
  C502     1.0000 0.39515  0.67356  0.01890  Biso   1.000  C
  C503     1.0000 0.51432  0.10131  0.31426  Biso   1.000  C
  C504     1.0000 0.81784  0.98165  0.87296  Biso   1.000  C
  C505     1.0000 0.64567  0.47075  0.80627  Biso   1.000  C
  C506     1.0000 0.81252  0.59952  0.49628  Biso   1.000  C
  C507     1.0000 0.52908  0.75223  0.64590  Biso   1.000  C
  C508     1.0000 0.14340  0.43571  0.73816  Biso   1.000  C
  C509     1.0000 0.31367  0.60535  0.01282  Biso   1.000  C
  C510     1.0000 0.03479  0.75122  0.89807  Biso   1.000  C
  C511     1.0000 0.89962  0.96857  0.80137  Biso   1.000  C
  C512     1.0000 0.72529  0.09938  0.51304  Biso   1.000  C
  C513     1.0000 0.02339  0.24760  0.65350  Biso   1.000  C
  C514     1.0000 0.39083  0.95290  0.73799  Biso   1.000  C
  C515     1.0000 0.22401  0.10179  0.03139  Biso   1.000  C
  C516     1.0000 0.52957  0.25046  0.89891  Biso   1.000  C
  C517     1.0000 0.39391  0.46781  0.23777  Biso   1.000  C
  C518     1.0000 0.23331  0.33645  0.52658  Biso   1.000  C
  C519     1.0000 0.51396  0.17365  0.39255  Biso   1.000  C
  C520     1.0000 0.89662  0.48400  0.30783  Biso   1.000  C
  C521     1.0000 0.72031  0.32533  0.98891  Biso   1.000  C
  C522     1.0000 0.00704  0.17747  0.15358  Biso   1.000  C
  C523     1.0000 0.13611  0.97690  0.23916  Biso   1.000  C
  C524     1.0000 0.31169  0.83301  0.53619  Biso   1.000  C
  C525     1.0000 0.00182  0.67569  0.39969  Biso   1.000  C
  C526     1.0000 0.63488  0.95989  0.30348  Biso   1.000  C
  C527     1.0000 0.81228  0.82799  0.00693  Biso   1.000  C
  C528     1.0000 0.53764  0.67617  0.14944  Biso   1.000  C
  C529     1.0000 0.80548  0.09247  0.00979  Biso   1.000  C
  C530     1.0000 0.02468  0.75998  0.16845  Biso   1.000  C
  C531     1.0000 0.16384  0.96526  0.82181  Biso   1.000  C
  C532     1.0000 0.30591  0.09225  0.52263  Biso   1.000  C
  C533     1.0000 0.52039  0.75816  0.37971  Biso   1.000  C
  C534     1.0000 0.65853  0.96039  0.72344  Biso   1.000  C
  C535     1.0000 0.73457  0.58879  0.00262  Biso   1.000  C
  C536     1.0000 0.50675  0.26429  0.16294  Biso   1.000  C
  C537     1.0000 0.37802  0.43962  0.82312  Biso   1.000  C
  C538     1.0000 0.22970  0.59992  0.53538  Biso   1.000  C
  C539     1.0000 0.00620  0.26089  0.38615  Biso   1.000  C
  C540     1.0000 0.88026  0.47375  0.72155  Biso   1.000  C
  C541     1.0000 0.23409  0.83573  0.03667  Biso   1.000  C
  C542     1.0000 0.01368  0.16895  0.88516  Biso   1.000  C
  C543     1.0000 0.86660  0.96320  0.22132  Biso   1.000  C
  C544     1.0000 0.72953  0.84117  0.49431  Biso   1.000  C
  C545     1.0000 0.52148  0.17333  0.66080  Biso   1.000  C
  C546     1.0000 0.36973  0.98357  0.31608  Biso   1.000  C
  C547     1.0000 0.31067  0.33821  0.04557  Biso   1.000  C
  C548     1.0000 0.52940  0.66974  0.88256  Biso   1.000  C
  C549     1.0000 0.66376  0.47860  0.22239  Biso   1.000  C
  C550     1.0000 0.81581  0.33070  0.50409  Biso   1.000  C
  C551     1.0000 0.03364  0.66663  0.66179  Biso   1.000  C
  C552     1.0000 0.16596  0.46977  0.32461  Biso   1.000  C
  C553     1.0000 0.01415  0.08797  0.81281  Biso   1.000  C
  C554     1.0000 0.79399  0.95891  0.14127  Biso   1.000  C
  C555     1.0000 0.16073  0.75632  0.03001  Biso   1.000  C
  C556     1.0000 0.53074  0.09722  0.73295  Biso   1.000  C
  C557     1.0000 0.30074  0.95798  0.39759  Biso   1.000  C
  C558     1.0000 0.65706  0.75949  0.50536  Biso   1.000  C
  C559     1.0000 0.51426  0.58840  0.81242  Biso   1.000  C
  C560     1.0000 0.73842  0.45177  0.14940  Biso   1.000  C
  C561     1.0000 0.38271  0.26427  0.02174  Biso   1.000  C
  C562     1.0000 0.02439  0.59027  0.73880  Biso   1.000  C
  C563     1.0000 0.23897  0.46648  0.40102  Biso   1.000  C
  C564     1.0000 0.88867  0.25385  0.51238  Biso   1.000  C
  C565     1.0000 0.99867  0.83804  0.23729  Biso   1.000  C
  C566     1.0000 0.23182  0.95679  0.90216  Biso   1.000  C
  C567     1.0000 0.88021  0.16751  0.01044  Biso   1.000  C
  C568     1.0000 0.51360  0.83653  0.30764  Biso   1.000  C
  C569     1.0000 0.73109  0.96027  0.64313  Biso   1.000  C
  C570     1.0000 0.38102  0.16907  0.50840  Biso   1.000  C
  C571     1.0000 0.54189  0.33584  0.23380  Biso   1.000  C
  C572     1.0000 0.30690  0.46362  0.89899  Biso   1.000  C
  C573     1.0000 0.66209  0.66809  0.01230  Biso   1.000  C
  C574     1.0000 0.01354  0.33567  0.31017  Biso   1.000  C
  C575     1.0000 0.80455  0.46810  0.64653  Biso   1.000  C
  C576     1.0000 0.14898  0.67495  0.52328  Biso   1.000  C
  C577     1.0000 0.31602  0.47743  0.13466  Biso   1.000  C
  C578     1.0000 0.12651  0.26519  0.50090  Biso   1.000  C
  C579     1.0000 0.51604  0.07071  0.31390  Biso   1.000  C
  C580     1.0000 0.81959  0.46294  0.41272  Biso   1.000  C
  C581     1.0000 0.61750  0.25443  0.02571  Biso   1.000  C
  C582     1.0000 0.98328  0.07054  0.22738  Biso   1.000  C
  C583     1.0000 0.21019  0.95593  0.13264  Biso   1.000  C
  C584     1.0000 0.41823  0.75661  0.51285  Biso   1.000  C
  C585     1.0000 0.02045  0.57133  0.32002  Biso   1.000  C
  C586     1.0000 0.71137  0.98192  0.40676  Biso   1.000  C
  C587     1.0000 0.92430  0.75800  0.02900  Biso   1.000  C
  C588     1.0000 0.52617  0.57622  0.23217  Biso   1.000  C
  C589     1.0000 0.72519  0.47325  0.91382  Biso   1.000  C
  C590     1.0000 0.91825  0.67427  0.51381  Biso   1.000  C
  C591     1.0000 0.52889  0.85604  0.72885  Biso   1.000  C
  C592     1.0000 0.22409  0.46024  0.63946  Biso   1.000  C
  C593     1.0000 0.42669  0.67036  0.02016  Biso   1.000  C
  C594     1.0000 0.03555  0.85630  0.81846  Biso   1.000  C
  C595     1.0000 0.81551  0.97838  0.90423  Biso   1.000  C
  C596     1.0000 0.61702  0.17499  0.51893  Biso   1.000  C
  C597     1.0000 0.00740  0.35286  0.72808  Biso   1.000  C
  C598     1.0000 0.31742  0.96420  0.62992  Biso   1.000  C
  C599     1.0000 0.11612  0.17646  0.02383  Biso   1.000  C
  C600     1.0000 0.52608  0.35492  0.81501  Biso   1.000  C
  C601     1.0000 0.22911  0.95641  0.93289  Biso   1.000  C
  C602     1.0000 0.91104  0.16759  0.01558  Biso   1.000  C
  C603     1.0000 0.99781  0.86916  0.23525  Biso   1.000  C
  C604     1.0000 0.72931  0.96134  0.61133  Biso   1.000  C
  C605     1.0000 0.41223  0.16950  0.51244  Biso   1.000  C
  C606     1.0000 0.50899  0.86759  0.30786  Biso   1.000  C
  C607     1.0000 0.30547  0.46853  0.93020  Biso   1.000  C
  C608     1.0000 0.63002  0.67043  0.01515  Biso   1.000  C
  C609     1.0000 0.54513  0.36671  0.23183  Biso   1.000  C
  C610     1.0000 0.80664  0.46308  0.61540  Biso   1.000  C
  C611     1.0000 0.11818  0.67411  0.52753  Biso   1.000  C
  C612     1.0000 0.02187  0.36713  0.31130  Biso   1.000  C
  C613     1.0000 0.79847  0.95698  0.10837  Biso   1.000  C
  C614     1.0000 0.12854  0.75532  0.03151  Biso   1.000  C
  C615     1.0000 0.01731  0.05756  0.81645  Biso   1.000  C
  C616     1.0000 0.30468  0.95393  0.42941  Biso   1.000  C
  C617     1.0000 0.62570  0.75940  0.51007  Biso   1.000  C
  C618     1.0000 0.52895  0.06520  0.73171  Biso   1.000  C
  C619     1.0000 0.73694  0.44598  0.11794  Biso   1.000  C
  C620     1.0000 0.41397  0.26377  0.01774  Biso   1.000  C
  C621     1.0000 0.50922  0.55850  0.81350  Biso   1.000  C
  C622     1.0000 0.23952  0.46441  0.43327  Biso   1.000  C
  C623     1.0000 0.91986  0.25404  0.51603  Biso   1.000  C
  C624     1.0000 0.02245  0.55845  0.73910  Biso   1.000  C
  C625     1.0000 0.01501  0.16915  0.91634  Biso   1.000  C
  C626     1.0000 0.89839  0.96337  0.22092  Biso   1.000  C
  C627     1.0000 0.23130  0.86643  0.03888  Biso   1.000  C
  C628     1.0000 0.51693  0.17512  0.62878  Biso   1.000  C
  C629     1.0000 0.40153  0.98327  0.31562  Biso   1.000  C
  C630     1.0000 0.72822  0.87237  0.49594  Biso   1.000  C
  C631     1.0000 0.52897  0.67064  0.91358  Biso   1.000  C
  C632     1.0000 0.63253  0.48080  0.22076  Biso   1.000  C
  C633     1.0000 0.31223  0.36918  0.04802  Biso   1.000  C
  C634     1.0000 0.02965  0.66779  0.63036  Biso   1.000  C
  C635     1.0000 0.13435  0.46903  0.32351  Biso   1.000  C
  C636     1.0000 0.81539  0.36222  0.50037  Biso   1.000  C
  C637     1.0000 0.02891  0.75795  0.13850  Biso   1.000  C
  C638     1.0000 0.13173  0.96751  0.82034  Biso   1.000  C
  C639     1.0000 0.80538  0.06092  0.00732  Biso   1.000  C
  C640     1.0000 0.52224  0.75664  0.41153  Biso   1.000  C
  C641     1.0000 0.62835  0.96275  0.72410  Biso   1.000  C
  C642     1.0000 0.30769  0.06091  0.52463  Biso   1.000  C
  C643     1.0000 0.50241  0.26535  0.13147  Biso   1.000  C
  C644     1.0000 0.41079  0.43948  0.81993  Biso   1.000  C
  C645     1.0000 0.73164  0.55725  0.00135  Biso   1.000  C
  C646     1.0000 0.00484  0.26003  0.41867  Biso   1.000  C
  C647     1.0000 0.91162  0.47338  0.72330  Biso   1.000  C
  C648     1.0000 0.22706  0.56801  0.53520  Biso   1.000  C
  C649     1.0000 0.00081  0.67304  0.43168  Biso   1.000  C
  C650     1.0000 0.42258  0.95581  0.73774  Biso   1.000  C
  C651     1.0000 0.71924  0.35727  0.98579  Biso   1.000  C
  C652     1.0000 0.53717  0.67244  0.11798  Biso   1.000  C
  C653     1.0000 0.93112  0.96623  0.80489  Biso   1.000  C
  C654     1.0000 0.23368  0.36659  0.53143  Biso   1.000  C
  C655     1.0000 0.51442  0.17317  0.42414  Biso   1.000  C
  C656     1.0000 0.11189  0.43545  0.73717  Biso   1.000  C
  C657     1.0000 0.81114  0.85969  0.00429  Biso   1.000  C
  C658     1.0000 0.01284  0.17818  0.12289  Biso   1.000  C
  C659     1.0000 0.61462  0.46720  0.80783  Biso   1.000  C
  C660     1.0000 0.31339  0.86315  0.53885  Biso   1.000  C
  C661     1.0000 0.03064  0.24937  0.62262  Biso   1.000  C
  C662     1.0000 0.60386  0.95665  0.30370  Biso   1.000  C
  C663     1.0000 0.31191  0.57356  0.01322  Biso   1.000  C
  C664     1.0000 0.52753  0.25397  0.92957  Biso   1.000  C
  C665     1.0000 0.10497  0.97923  0.23861  Biso   1.000  C
  C666     1.0000 0.81119  0.56744  0.50104  Biso   1.000  C
  C667     1.0000 0.52340  0.75644  0.61471  Biso   1.000  C
  C668     1.0000 0.92832  0.48270  0.30883  Biso   1.000  C
  C669     1.0000 0.22403  0.07041  0.03830  Biso   1.000  C
  C670     1.0000 0.03269  0.75293  0.92909  Biso   1.000  C
  C671     1.0000 0.42642  0.46640  0.23676  Biso   1.000  C
  C672     1.0000 0.72415  0.06809  0.51551  Biso   1.000  C
  C673     1.0000 0.22370  0.95686  0.83916  Biso   1.000  C
  C674     1.0000 0.81773  0.15556  0.00638  Biso   1.000  C
  C675     1.0000 0.00484  0.77364  0.22709  Biso   1.000  C
  C676     1.0000 0.72343  0.96189  0.70555  Biso   1.000  C
  C677     1.0000 0.31839  0.15710  0.51744  Biso   1.000  C
  C678     1.0000 0.52270  0.77376  0.31745  Biso   1.000  C
  C679     1.0000 0.31766  0.44593  0.83937  Biso   1.000  C
  C680     1.0000 0.72255  0.65283  0.01191  Biso   1.000  C
  C681     1.0000 0.52262  0.27293  0.22367  Biso   1.000  C
  C682     1.0000 0.81894  0.47336  0.70936  Biso   1.000  C
  C683     1.0000 0.21335  0.66250  0.52392  Biso   1.000  C
  C684     1.0000 0.00595  0.27548  0.32467  Biso   1.000  C
  C685     1.0000 0.80529  0.96276  0.20728  Biso   1.000  C
  C686     1.0000 0.22358  0.77174  0.03279  Biso   1.000  C
  C687     1.0000 0.01096  0.15245  0.82328  Biso   1.000  C
  C688     1.0000 0.30805  0.97091  0.33230  Biso   1.000  C
  C689     1.0000 0.71991  0.77435  0.49224  Biso   1.000  C
  C690     1.0000 0.52821  0.15778  0.72447  Biso   1.000  C
  C691     1.0000 0.72504  0.46640  0.21139  Biso   1.000  C
  C692     1.0000 0.31969  0.27803  0.03248  Biso   1.000  C
  C693     1.0000 0.52253  0.65234  0.82134  Biso   1.000  C
  C694     1.0000 0.22666  0.46655  0.33943  Biso   1.000  C
  C695     1.0000 0.82448  0.27010  0.51147  Biso   1.000  C
  C696     1.0000 0.03350  0.65337  0.72639  Biso   1.000  C
  C697     1.0000 0.69792  0.97392  0.31148  Biso   1.000  C
  C698     1.0000 0.33045  0.66266  0.01980  Biso   1.000  C
  C699     1.0000 0.01378  0.25878  0.71496  Biso   1.000  C
  C700     1.0000 0.20059  0.96875  0.22471  Biso   1.000  C
  C701     1.0000 0.82595  0.66177  0.49800  Biso   1.000  C
  C702     1.0000 0.53643  0.26234  0.83389  Biso   1.000  C
  C703     1.0000 0.83021  0.47608  0.32057  Biso   1.000  C
  C704     1.0000 0.21199  0.16472  0.02707  Biso   1.000  C
  C705     1.0000 0.52532  0.76281  0.71037  Biso   1.000  C
  C706     1.0000 0.33038  0.47349  0.22790  Biso   1.000  C
  C707     1.0000 0.71523  0.16250  0.51514  Biso   1.000  C
  C708     1.0000 0.03621  0.76191  0.83312  Biso   1.000  C
  C709     1.0000 0.32645  0.95314  0.72425  Biso   1.000  C
  C710     1.0000 0.70896  0.26316  0.99909  Biso   1.000  C
  C711     1.0000 0.00551  0.66610  0.33753  Biso   1.000  C
  C712     1.0000 0.83389  0.97495  0.81090  Biso   1.000  C
  C713     1.0000 0.21893  0.27561  0.51141  Biso   1.000  C
  C714     1.0000 0.53468  0.66675  0.21378  Biso   1.000  C
  C715     1.0000 0.20703  0.44128  0.73219  Biso   1.000  C
  C716     1.0000 0.83038  0.76589  0.01257  Biso   1.000  C
  C717     1.0000 0.51236  0.16406  0.32961  Biso   1.000  C
  C718     1.0000 0.71059  0.47389  0.82050  Biso   1.000  C
  C719     1.0000 0.32377  0.76820  0.52135  Biso   1.000  C
  C720     1.0000 0.99270  0.16340  0.21862  Biso   1.000  C
  C721     1.0000 0.54228  0.77958  0.29290  Biso   1.000  C
  C722     1.0000 0.31866  0.45467  0.80863  Biso   1.000  C
  C723     1.0000 0.79655  0.27514  0.52645  Biso   1.000  C
  C724     1.0000 0.98942  0.74692  0.22087  Biso   1.000  C
  C725     1.0000 0.79060  0.48856  0.70550  Biso   1.000  C
  C726     1.0000 0.29212  0.28354  0.01805  Biso   1.000  C
  C727     1.0000 0.98340  0.27874  0.30203  Biso   1.000  C
  C728     1.0000 0.25190  0.97175  0.84039  Biso   1.000  C
  C729     1.0000 0.74979  0.77825  0.50301  Biso   1.000  C
  C730     1.0000 0.51271  0.27883  0.25266  Biso   1.000  C
  C731     1.0000 0.75074  0.94654  0.70353  Biso   1.000  C
  C732     1.0000 0.25127  0.77790  0.01706  Biso   1.000  C
  C733     1.0000 0.51362  0.15301  0.75264  Biso   1.000  C
  C734     1.0000 0.71831  0.45804  0.24120  Biso   1.000  C
  C735     1.0000 0.20999  0.69176  0.53562  Biso   1.000  C
  C736     1.0000 0.99247  0.17787  0.82680  Biso   1.000  C
  C737     1.0000 0.25081  0.44388  0.33824  Biso   1.000  C
  C738     1.0000 0.74957  0.65066  0.02790  Biso   1.000  C
  C739     1.0000 0.05040  0.64879  0.75263  Biso   1.000  C
  C740     1.0000 0.77933  0.94537  0.20467  Biso   1.000  C
  C741     1.0000 0.29085  0.15328  0.50100  Biso   1.000  C
  C742     1.0000 0.53504  0.64597  0.79274  Biso   1.000  C
  C743     1.0000 0.28974  0.94625  0.33191  Biso   1.000  C
  C744     1.0000 0.81758  0.18058  0.02555  Biso   1.000  C
  C745     1.0000 0.02289  0.69224  0.33945  Biso   1.000  C
  C746     1.0000 0.30196  0.97423  0.72568  Biso   1.000  C
  C747     1.0000 0.73820  0.26832  0.00835  Biso   1.000  C
  C748     1.0000 0.55126  0.66358  0.23910  Biso   1.000  C
  C749     1.0000 0.80529  0.96118  0.81579  Biso   1.000  C
  C750     1.0000 0.23867  0.27155  0.53641  Biso   1.000  C
  C751     1.0000 0.53201  0.18894  0.33438  Biso   1.000  C
  C752     1.0000 0.23527  0.42632  0.72872  Biso   1.000  C
  C753     1.0000 0.80523  0.76594  0.99270  Biso   1.000  C
  C754     1.0000 0.00578  0.15800  0.24773  Biso   1.000  C
  C755     1.0000 0.70657  0.49000  0.79354  Biso   1.000  C
  C756     1.0000 0.29704  0.77613  0.50490  Biso   1.000  C
  C757     1.0000 0.99761  0.23110  0.70690  Biso   1.000  C
  C758     1.0000 0.69384  0.98236  0.27959  Biso   1.000  C
  C759     1.0000 0.30762  0.65943  0.04234  Biso   1.000  C
  C760     1.0000 0.55305  0.26753  0.80846  Biso   1.000  C
  C761     1.0000 0.23051  0.97889  0.22046  Biso   1.000  C
  C762     1.0000 0.83043  0.68627  0.47689  Biso   1.000  C
  C763     1.0000 0.50422  0.76397  0.73539  Biso   1.000  C
  C764     1.0000 0.80111  0.48311  0.32636  Biso   1.000  C
  C765     1.0000 0.23677  0.16410  0.04795  Biso   1.000  C
  C766     1.0000 0.01670  0.76379  0.80934  Biso   1.000  C
  C767     1.0000 0.33540  0.48788  0.25551  Biso   1.000  C
  C768     1.0000 0.71001  0.18995  0.49793  Biso   1.000  C
  C769     1.0000 0.51038  0.68161  0.82583  Biso   1.000  C
  C770     1.0000 0.82234  0.45723  0.73579  Biso   1.000  C
  C771     1.0000 0.71320  0.74595  0.47860  Biso   1.000  C
  C772     1.0000 0.01738  0.68085  0.72247  Biso   1.000  C
  C773     1.0000 0.28873  0.43329  0.84880  Biso   1.000  C
  C774     1.0000 0.22099  0.74497  0.04817  Biso   1.000  C
  C775     1.0000 0.02147  0.14777  0.79297  Biso   1.000  C
  C776     1.0000 0.72086  0.98555  0.72679  Biso   1.000  C
  C777     1.0000 0.82671  0.24390  0.49428  Biso   1.000  C
  C778     1.0000 0.54908  0.18145  0.72222  Biso   1.000  C
  C779     1.0000 0.21970  0.93793  0.81462  Biso   1.000  C
  C780     1.0000 0.32541  0.24804  0.04399  Biso   1.000  C
  C781     1.0000 0.53102  0.24258  0.21851  Biso   1.000  C
  C782     1.0000 0.22471  0.48733  0.31606  Biso   1.000  C
  C783     1.0000 0.32136  0.18586  0.53100  Biso   1.000  C
  C784     1.0000 0.02088  0.24810  0.32706  Biso   1.000  C
  C785     1.0000 0.75345  0.47838  0.20609  Biso   1.000  C
  C786     1.0000 0.79445  0.15291  0.98540  Biso   1.000  C
  C787     1.0000 0.01120  0.77919  0.25750  Biso   1.000  C
  C788     1.0000 0.30669  0.99316  0.31010  Biso   1.000  C
  C789     1.0000 0.23921  0.65624  0.50730  Biso   1.000  C
  C790     1.0000 0.50985  0.74504  0.31731  Biso   1.000  C
  C791     1.0000 0.80862  0.98114  0.23252  Biso   1.000  C
  C792     1.0000 0.71874  0.68034  0.99430  Biso   1.000  C
  C793     1.0000 0.49424  0.16319  0.30379  Biso   1.000  C
  C794     1.0000 0.30326  0.45808  0.22386  Biso   1.000  C
  C795     1.0000 0.21925  0.25396  0.48760  Biso   1.000  C
  C796     1.0000 0.98163  0.19278  0.21335  Biso   1.000  C
  C797     1.0000 0.83891  0.46800  0.29153  Biso   1.000  C
  C798     1.0000 0.70335  0.23458  0.98712  Biso   1.000  C
  C799     1.0000 0.98654  0.66303  0.31338  Biso   1.000  C
  C800     1.0000 0.19617  0.95284  0.25276  Biso   1.000  C
  C801     1.0000 0.32810  0.73859  0.53168  Biso   1.000  C
  C802     1.0000 0.52189  0.69685  0.20721  Biso   1.000  C
  C803     1.0000 0.72565  0.96186  0.32009  Biso   1.000  C
  C804     1.0000 0.83120  0.74033  0.03424  Biso   1.000  C
  C805     1.0000 0.54588  0.73968  0.71016  Biso   1.000  C
  C806     1.0000 0.73537  0.45433  0.82336  Biso   1.000  C
  C807     1.0000 0.79529  0.65958  0.50936  Biso   1.000  C
  C808     1.0000 0.05609  0.73801  0.83605  Biso   1.000  C
  C809     1.0000 0.20386  0.45521  0.76007  Biso   1.000  C
  C810     1.0000 0.33354  0.69007  0.00354  Biso   1.000  C
  C811     1.0000 0.02447  0.26149  0.74383  Biso   1.000  C
  C812     1.0000 0.83973  0.98957  0.78325  Biso   1.000  C
  C813     1.0000 0.74263  0.15976  0.52871  Biso   1.000  C
  C814     1.0000 0.52069  0.23500  0.83804  Biso   1.000  C
  C815     1.0000 0.32691  0.93257  0.74781  Biso   1.000  C
  C816     1.0000 0.21072  0.18961  0.00783  Biso   1.000  C
  C817     1.0000 0.98869  0.19691  0.80360  Biso   1.000  C
  C818     1.0000 0.75879  0.94722  0.22676  Biso   1.000  C
  C819     1.0000 0.27248  0.75677  0.01712  Biso   1.000  C
  C820     1.0000 0.51834  0.17240  0.77477  Biso   1.000  C
  C821     1.0000 0.26994  0.94511  0.30886  Biso   1.000  C
  C822     1.0000 0.76947  0.75556  0.50003  Biso   1.000  C
  C823     1.0000 0.53537  0.66829  0.77158  Biso   1.000  C
  C824     1.0000 0.73903  0.46092  0.26217  Biso   1.000  C
  C825     1.0000 0.27221  0.26010  0.01650  Biso   1.000  C
  C826     1.0000 0.05281  0.67006  0.77355  Biso   1.000  C
  C827     1.0000 0.27178  0.44584  0.31620  Biso   1.000  C
  C828     1.0000 0.77518  0.25458  0.52555  Biso   1.000  C
  C829     1.0000 0.98769  0.72478  0.24270  Biso   1.000  C
  C830     1.0000 0.27089  0.96890  0.81744  Biso   1.000  C
  C831     1.0000 0.79692  0.20119  0.02053  Biso   1.000  C
  C832     1.0000 0.54844  0.75963  0.27201  Biso   1.000  C
  C833     1.0000 0.77297  0.95315  0.72234  Biso   1.000  C
  C834     1.0000 0.26920  0.17559  0.50151  Biso   1.000  C
  C835     1.0000 0.51102  0.25723  0.27393  Biso   1.000  C
  C836     1.0000 0.29607  0.45099  0.78972  Biso   1.000  C
  C837     1.0000 0.76945  0.67307  0.02685  Biso   1.000  C
  C838     1.0000 0.98009  0.25570  0.28173  Biso   1.000  C
  C839     1.0000 0.76913  0.48640  0.72771  Biso   1.000  C
  C840     1.0000 0.23129  0.71211  0.53177  Biso   1.000  C
  C841     1.0000 0.24035  0.93506  0.79227  Biso   1.000  C
  C842     1.0000 0.77318  0.17327  0.98390  Biso   1.000  C
  C843     1.0000 0.00639  0.75847  0.27888  Biso   1.000  C
  C844     1.0000 0.74324  0.98985  0.74602  Biso   1.000  C
  C845     1.0000 0.30039  0.20733  0.53087  Biso   1.000  C
  C846     1.0000 0.51735  0.72486  0.29800  Biso   1.000  C
  C847     1.0000 0.26665  0.42839  0.82753  Biso   1.000  C
  C848     1.0000 0.73865  0.70250  0.99574  Biso   1.000  C
  C849     1.0000 0.52800  0.22145  0.23978  Biso   1.000  C
  C850     1.0000 0.80075  0.45611  0.75790  Biso   1.000  C
  C851     1.0000 0.25857  0.67959  0.50200  Biso   1.000  C
  C852     1.0000 0.01657  0.22768  0.30631  Biso   1.000  C
  C853     1.0000 0.78873  0.97994  0.25505  Biso   1.000  C
  C854     1.0000 0.24232  0.72513  0.04675  Biso   1.000  C
  C855     1.0000 0.01776  0.16742  0.77107  Biso   1.000  C
  C856     1.0000 0.28513  0.99104  0.28986  Biso   1.000  C
  C857     1.0000 0.73435  0.72462  0.47596  Biso   1.000  C
  C858     1.0000 0.55156  0.20173  0.74526  Biso   1.000  C
  C859     1.0000 0.77355  0.48020  0.22823  Biso   1.000  C
  C860     1.0000 0.30348  0.22658  0.04299  Biso   1.000  C
  C861     1.0000 0.51064  0.70249  0.80398  Biso   1.000  C
  C862     1.0000 0.24581  0.48793  0.29407  Biso   1.000  C
  C863     1.0000 0.80441  0.22331  0.49622  Biso   1.000  C
  C864     1.0000 0.01894  0.70107  0.74433  Biso   1.000  C
  C865     1.0000 0.72803  0.48850  0.77226  Biso   1.000  C
  C866     1.0000 0.80896  0.70695  0.47196  Biso   1.000  C
  C867     1.0000 0.50420  0.74268  0.75603  Biso   1.000  C
  C868     1.0000 0.25549  0.42424  0.75214  Biso   1.000  C
  C869     1.0000 0.28803  0.68191  0.04468  Biso   1.000  C
  C870     1.0000 0.01595  0.74152  0.78917  Biso   1.000  C
  C871     1.0000 0.78486  0.96253  0.79401  Biso   1.000  C
  C872     1.0000 0.73070  0.21081  0.49738  Biso   1.000  C
  C873     1.0000 0.99341  0.20926  0.72713  Biso   1.000  C
  C874     1.0000 0.28283  0.97254  0.74893  Biso   1.000  C
  C875     1.0000 0.25618  0.18686  0.04784  Biso   1.000  C
  C876     1.0000 0.55345  0.24551  0.78842  Biso   1.000  C
  C877     1.0000 0.31403  0.48568  0.27734  Biso   1.000  C
  C878     1.0000 0.25490  0.24590  0.53568  Biso   1.000  C
  C879     1.0000 0.53135  0.21217  0.31540  Biso   1.000  C
  C880     1.0000 0.78083  0.48064  0.30465  Biso   1.000  C
  C881     1.0000 0.75885  0.24699  0.00740  Biso   1.000  C
  C882     1.0000 0.00532  0.17894  0.26897  Biso   1.000  C
  C883     1.0000 0.25293  0.97453  0.23966  Biso   1.000  C
  C884     1.0000 0.27503  0.75499  0.50337  Biso   1.000  C
  C885     1.0000 0.01934  0.71262  0.31670  Biso   1.000  C
  C886     1.0000 0.71677  0.97847  0.26063  Biso   1.000  C
  C887     1.0000 0.78532  0.74412  0.99204  Biso   1.000  C
  C888     1.0000 0.55144  0.68740  0.25943  Biso   1.000  C
  C889     1.0000 0.74762  0.95944  0.29964  Biso   1.000  C
  C890     1.0000 0.31354  0.71102  0.00784  Biso   1.000  C
  C891     1.0000 0.01674  0.23928  0.76423  Biso   1.000  C
  C892     1.0000 0.21867  0.95179  0.27307  Biso   1.000  C
  C893     1.0000 0.77468  0.68165  0.50268  Biso   1.000  C
  C894     1.0000 0.52420  0.21303  0.81909  Biso   1.000  C
  C895     1.0000 0.81730  0.46562  0.27000  Biso   1.000  C
  C896     1.0000 0.23057  0.21226  0.00952  Biso   1.000  C
  C897     1.0000 0.54411  0.71646  0.73042  Biso   1.000  C
  C898     1.0000 0.28129  0.45723  0.24675  Biso   1.000  C
  C899     1.0000 0.76325  0.18255  0.52678  Biso   1.000  C
  C900     1.0000 0.05680  0.71755  0.81403  Biso   1.000  C
  C901     1.0000 0.30812  0.93214  0.77022  Biso   1.000  C
  C902     1.0000 0.72391  0.21214  0.98952  Biso   1.000  C
  C903     1.0000 0.98228  0.68506  0.29424  Biso   1.000  C
  C904     1.0000 0.81809  0.98953  0.76197  Biso   1.000  C
  C905     1.0000 0.23539  0.22889  0.48882  Biso   1.000  C
  C906     1.0000 0.52525  0.71935  0.22731  Biso   1.000  C
  C907     1.0000 0.22359  0.45385  0.78206  Biso   1.000  C
  C908     1.0000 0.80716  0.72224  0.03665  Biso   1.000  C
  C909     1.0000 0.49676  0.18418  0.28302  Biso   1.000  C
  C910     1.0000 0.75488  0.45345  0.80115  Biso   1.000  C
  C911     1.0000 0.30529  0.71915  0.52970  Biso   1.000  C
  C912     1.0000 0.98213  0.21170  0.23619  Biso   1.000  C
  C913     1.0000 0.77426  0.47042  0.75229  Biso   1.000  C
  C914     1.0000 0.76308  0.72966  0.48468  Biso   1.000  C
  C915     1.0000 0.52192  0.69628  0.77621  Biso   1.000  C
  C916     1.0000 0.27086  0.43634  0.79978  Biso   1.000  C
  C917     1.0000 0.26835  0.72964  0.03119  Biso   1.000  C
  C918     1.0000 0.03741  0.69616  0.76915  Biso   1.000  C
  C919     1.0000 0.76946  0.97398  0.74425  Biso   1.000  C
  C920     1.0000 0.78007  0.22858  0.51265  Biso   1.000  C
  C921     1.0000 0.99963  0.19017  0.77560  Biso   1.000  C
  C922     1.0000 0.26642  0.95128  0.79485  Biso   1.000  C
  C923     1.0000 0.27692  0.23329  0.02986  Biso   1.000  C
  C924     1.0000 0.53606  0.19677  0.77041  Biso   1.000  C
  C925     1.0000 0.26796  0.46709  0.29532  Biso   1.000  C
  C926     1.0000 0.27501  0.20126  0.51492  Biso   1.000  C
  C927     1.0000 0.51838  0.22938  0.26717  Biso   1.000  C
  C928     1.0000 0.76664  0.47041  0.25494  Biso   1.000  C
  C929     1.0000 0.77392  0.19654  0.00247  Biso   1.000  C
  C930     1.0000 0.99732  0.23106  0.28422  Biso   1.000  C
  C931     1.0000 0.26786  0.96688  0.28936  Biso   1.000  C
  C932     1.0000 0.25437  0.70610  0.51486  Biso   1.000  C
  C933     1.0000 0.99687  0.73096  0.27110  Biso   1.000  C
  C934     1.0000 0.76461  0.96488  0.25048  Biso   1.000  C
  C935     1.0000 0.76438  0.69873  0.01147  Biso   1.000  C
  C936     1.0000 0.53796  0.73296  0.27766  Biso   1.000  C
  C937     1.0000 0.75186  0.21898  0.99908  Biso   1.000  C
  C938     1.0000 0.99935  0.70910  0.29365  Biso   1.000  C
  C939     1.0000 0.28739  0.95278  0.77183  Biso   1.000  C
  C940     1.0000 0.25429  0.22597  0.51256  Biso   1.000  C
  C941     1.0000 0.54157  0.71483  0.25248  Biso   1.000  C
  C942     1.0000 0.79135  0.97668  0.76760  Biso   1.000  C
  C943     1.0000 0.78576  0.72232  0.01464  Biso   1.000  C
  C944     1.0000 0.51499  0.20735  0.29054  Biso   1.000  C
  C945     1.0000 0.24786  0.43637  0.77779  Biso   1.000  C
  C946     1.0000 0.27949  0.72663  0.51609  Biso   1.000  C
  C947     1.0000 0.99464  0.20728  0.26334  Biso   1.000  C
  C948     1.0000 0.75166  0.47000  0.77571  Biso   1.000  C
  C949     1.0000 0.29050  0.70736  0.02734  Biso   1.000  C
  C950     1.0000 0.00093  0.21467  0.75558  Biso   1.000  C
  C951     1.0000 0.74201  0.96790  0.27133  Biso   1.000  C
  C952     1.0000 0.78109  0.70404  0.48451  Biso   1.000  C
  C953     1.0000 0.53937  0.21917  0.79330  Biso   1.000  C
  C954     1.0000 0.24615  0.96394  0.26708  Biso   1.000  C
  C955     1.0000 0.25393  0.21080  0.02895  Biso   1.000  C
  C956     1.0000 0.52416  0.71900  0.75303  Biso   1.000  C
  C957     1.0000 0.78960  0.47190  0.27773  Biso   1.000  C
  C958     1.0000 0.75744  0.20806  0.51223  Biso   1.000  C
  C959     1.0000 0.03641  0.71911  0.79131  Biso   1.000  C
  C960     1.0000 0.28890  0.46954  0.27265  Biso   1.000  C
  Cu1      1.0000 0.01653  0.45730  0.67752  Biso   1.000  Cu
  Cu2      1.0000 0.66684  0.97049  0.51181  Biso   1.000  Cu
  Cu3      1.0000 0.52795  0.61605  0.01894  Biso   1.000  Cu
  Cu4      1.0000 0.51576  0.45921  0.86795  Biso   1.000  Cu
  Cu5      1.0000 0.16712  0.96585  0.02963  Biso   1.000  Cu
  Cu6      1.0000 0.01850  0.61644  0.52999  Biso   1.000  Cu
  Cu7      1.0000 0.52276  0.96085  0.68087  Biso   1.000  Cu
  Cu8      1.0000 0.86609  0.46348  0.51582  Biso   1.000  Cu
  Cu9      1.0000 0.01570  0.11781  0.02418  Biso   1.000  Cu
  Cu10     1.0000 0.02676  0.95939  0.87030  Biso   1.000  Cu
  Cu11     1.0000 0.36493  0.46935  0.03245  Biso   1.000  Cu
  Cu12     1.0000 0.51521  0.11803  0.52612  Biso   1.000  Cu
  Cu13     1.0000 0.02722  0.46823  0.36981  Biso   1.000  Cu
  Cu14     1.0000 0.36829  0.96424  0.52578  Biso   1.000  Cu
  Cu15     1.0000 0.51845  0.31352  0.02706  Biso   1.000  Cu
  Cu16     1.0000 0.52721  0.46890  0.17678  Biso   1.000  Cu
  Cu17     1.0000 0.86083  0.96308  0.00877  Biso   1.000  Cu
  Cu18     1.0000 0.02098  0.31084  0.52048  Biso   1.000  Cu
  Cu19     1.0000 0.50426  0.96643  0.36222  Biso   1.000  Cu
  Cu20     1.0000 0.17890  0.46861  0.53286  Biso   1.000  Cu
  Cu21     1.0000 0.02578  0.80850  0.03120  Biso   1.000  Cu
  Cu22     1.0000 0.00451  0.96837  0.17715  Biso   1.000  Cu
  Cu23     1.0000 0.67690  0.46039  0.01759  Biso   1.000  Cu
  Cu24     1.0000 0.52086  0.80863  0.51519  Biso   1.000  Cu
  Cu25     1.0000 0.22232  0.96855  0.03601  Biso   1.000  Cu
  Cu26     1.0000 0.01292  0.17313  0.01954  Biso   1.000  Cu
  Cu27     1.0000 0.99823  0.96889  0.23165  Biso   1.000  Cu
  Cu28     1.0000 0.72241  0.97206  0.50584  Biso   1.000  Cu
  Cu29     1.0000 0.51449  0.17196  0.52427  Biso   1.000  Cu
  Cu30     1.0000 0.50124  0.96674  0.30742  Biso   1.000  Cu
  Cu31     1.0000 0.31116  0.47011  0.03335  Biso   1.000  Cu
  Cu32     1.0000 0.53014  0.67137  0.01820  Biso   1.000  Cu
  Cu33     1.0000 0.53103  0.46821  0.23003  Biso   1.000  Cu
  Cu34     1.0000 0.81231  0.46442  0.51412  Biso   1.000  Cu
  Cu35     1.0000 0.01800  0.67283  0.52964  Biso   1.000  Cu
  Cu36     1.0000 0.03089  0.47216  0.31578  Biso   1.000  Cu
  Cu37     1.0000 0.80571  0.96088  0.00473  Biso   1.000  Cu
  Cu38     1.0000 0.02486  0.75641  0.03366  Biso   1.000  Cu
  Cu39     1.0000 0.02947  0.96112  0.81540  Biso   1.000  Cu
  Cu40     1.0000 0.31265  0.96330  0.53092  Biso   1.000  Cu
  Cu41     1.0000 0.52375  0.75501  0.51763  Biso   1.000  Cu
  Cu42     1.0000 0.52405  0.96266  0.73415  Biso   1.000  Cu
  Cu43     1.0000 0.73016  0.45712  0.01402  Biso   1.000  Cu
  Cu44     1.0000 0.51756  0.25986  0.03140  Biso   1.000  Cu
  Cu45     1.0000 0.50988  0.45886  0.81432  Biso   1.000  Cu
  Cu46     1.0000 0.23329  0.46680  0.53792  Biso   1.000  Cu
  Cu47     1.0000 0.02569  0.25590  0.51815  Biso   1.000  Cu
  Cu48     1.0000 0.01261  0.45740  0.73298  Biso   1.000  Cu
  H1       1.0000 0.25441  0.75939  0.49208  Biso   1.000  H
  H2       1.0000 0.56628  0.24890  0.76840  Biso   1.000  H
  H3       1.0000 0.75867  0.48609  0.30769  Biso   1.000  H
  H4       1.0000 0.77092  0.74316  0.97416  Biso   1.000  H
  H5       1.0000 0.98246  0.18861  0.72180  Biso   1.000  H
  H6       1.0000 0.31715  0.49424  0.29864  Biso   1.000  H
  H7       1.0000 0.27164  0.24218  0.55379  Biso   1.000  H
  H8       1.0000 0.99840  0.73893  0.77438  Biso   1.000  H
  H9       1.0000 0.71182  0.98339  0.23827  Biso   1.000  H
  H10      1.0000 0.78134  0.25146  0.01242  Biso   1.000  H
  H11      1.0000 0.49042  0.74316  0.77529  Biso   1.000  H
  H12      1.0000 0.27494  0.98235  0.23498  Biso   1.000  H
  H13      1.0000 0.72678  0.23041  0.48543  Biso   1.000  H
  H14      1.0000 0.56203  0.68626  0.28034  Biso   1.000  H
  H15      1.0000 0.27561  0.41277  0.74745  Biso   1.000  H
  H16      1.0000 0.27511  0.18571  0.06238  Biso   1.000  H
  H17      1.0000 0.02990  0.73315  0.31834  Biso   1.000  H
  H18      1.0000 0.72484  0.50352  0.75376  Biso   1.000  H
  H19      1.0000 0.81279  0.72491  0.45586  Biso   1.000  H
  H20      1.0000 0.01745  0.17108  0.28798  Biso   1.000  H
  H21      1.0000 0.26499  0.98761  0.75027  Biso   1.000  H
  H22      1.0000 0.27009  0.68083  0.06059  Biso   1.000  H
  H23      1.0000 0.54428  0.23258  0.31971  Biso   1.000  H
  H24      1.0000 0.76407  0.95064  0.79830  Biso   1.000  H
  H25      1.0000 0.29140  0.98275  0.81954  Biso   1.000  H
  H26      1.0000 0.79634  0.22006  0.03466  Biso   1.000  H
  H27      1.0000 0.98074  0.70388  0.23707  Biso   1.000  H
  H28      1.0000 0.79420  0.94040  0.71969  Biso   1.000  H
  H29      1.0000 0.24844  0.17134  0.49255  Biso   1.000  H
  H30      1.0000 0.56262  0.76241  0.25401  Biso   1.000  H
  H31      1.0000 0.29444  0.45704  0.76623  Biso   1.000  H
  H32      1.0000 0.79053  0.66959  0.03717  Biso   1.000  H
  H33      1.0000 0.50392  0.26284  0.29540  Biso   1.000  H
  H34      1.0000 0.74868  0.49709  0.72550  Biso   1.000  H
  H35      1.0000 0.22567  0.73291  0.54221  Biso   1.000  H
  H36      1.0000 0.96380  0.25846  0.26482  Biso   1.000  H
  H37      1.0000 0.74008  0.93370  0.22472  Biso   1.000  H
  H38      1.0000 0.29179  0.76260  0.00356  Biso   1.000  H
  H39      1.0000 0.97411  0.21557  0.80704  Biso   1.000  H
  H40      1.0000 0.25829  0.92460  0.30722  Biso   1.000  H
  H41      1.0000 0.79199  0.75860  0.50877  Biso   1.000  H
  H42      1.0000 0.50593  0.16903  0.79449  Biso   1.000  H
  H43      1.0000 0.73197  0.45368  0.28455  Biso   1.000  H
  H44      1.0000 0.25394  0.26455  0.00339  Biso   1.000  H
  H45      1.0000 0.54729  0.66355  0.75161  Biso   1.000  H
  H46      1.0000 0.28966  0.43047  0.31471  Biso   1.000  H
  H47      1.0000 0.75488  0.25736  0.53897  Biso   1.000  H
  H48      1.0000 0.06621  0.66512  0.79140  Biso   1.000  H
  H49      1.0000 0.24523  0.50406  0.27754  Biso   1.000  H
  H50      1.0000 0.30648  0.22802  0.54238  Biso   1.000  H
  H51      1.0000 0.53331  0.19897  0.23651  Biso   1.000  H
  H52      1.0000 0.79539  0.48954  0.22477  Biso   1.000  H
  H53      1.0000 0.75598  0.17133  0.96768  Biso   1.000  H
  H54      1.0000 0.02935  0.20805  0.30823  Biso   1.000  H
  H55      1.0000 0.28338  0.01043  0.27444  Biso   1.000  H
  H56      1.0000 0.27748  0.67328  0.48896  Biso   1.000  H
  H57      1.0000 0.01011  0.76484  0.30190  Biso   1.000  H
  H58      1.0000 0.79428  0.99030  0.27435  Biso   1.000  H
  H59      1.0000 0.73185  0.72038  0.98335  Biso   1.000  H
  H60      1.0000 0.50558  0.70376  0.29667  Biso   1.000  H
  H61      1.0000 0.80556  0.44416  0.77819  Biso   1.000  H
  H62      1.0000 0.72861  0.70193  0.46831  Biso   1.000  H
  H63      1.0000 0.50230  0.72409  0.81041  Biso   1.000  H
  H64      1.0000 0.24638  0.41866  0.83393  Biso   1.000  H
  H65      1.0000 0.23930  0.70444  0.05817  Biso   1.000  H
  H66      1.0000 0.00815  0.72199  0.73919  Biso   1.000  H
  H67      1.0000 0.73825  0.00357  0.76486  Biso   1.000  H
  H68      1.0000 0.80578  0.20452  0.48151  Biso   1.000  H
  H69      1.0000 0.02597  0.16120  0.74973  Biso   1.000  H
  H70      1.0000 0.23484  0.91949  0.77458  Biso   1.000  H
  H71      1.0000 0.30889  0.20548  0.04961  Biso   1.000  H
  H72      1.0000 0.56602  0.21881  0.74336  Biso   1.000  H
  H73      1.0000 0.77186  0.43802  0.80132  Biso   1.000  H
  H74      1.0000 0.75301  0.67995  0.51042  Biso   1.000  H
  H75      1.0000 0.55706  0.69739  0.72654  Biso   1.000  H
  H76      1.0000 0.21966  0.46350  0.80300  Biso   1.000  H
  H77      1.0000 0.31715  0.73047  0.99718  Biso   1.000  H
  H78      1.0000 0.07201  0.70009  0.81724  Biso   1.000  H
  H79      1.0000 0.82281  0.99705  0.74082  Biso   1.000  H
  H80      1.0000 0.78337  0.17962  0.53862  Biso   1.000  H
  H81      1.0000 0.02058  0.24300  0.78779  Biso   1.000  H
  H82      1.0000 0.31037  0.91778  0.78959  Biso   1.000  H
  H83      1.0000 0.22825  0.23084  0.99610  Biso   1.000  H
  H84      1.0000 0.51124  0.19174  0.82450  Biso   1.000  H
  H85      1.0000 0.26024  0.44542  0.24416  Biso   1.000  H
  H86      1.0000 0.23334  0.21594  0.46954  Biso   1.000  H
  H87      1.0000 0.48396  0.18367  0.26271  Biso   1.000  H
  H88      1.0000 0.81976  0.45296  0.24968  Biso   1.000  H
  H89      1.0000 0.71933  0.19265  0.97738  Biso   1.000  H
  H90      1.0000 0.97211  0.23221  0.22989  Biso   1.000  H
  H91      1.0000 0.21241  0.94436  0.29561  Biso   1.000  H
  H92      1.0000 0.30724  0.69632  0.53790  Biso   1.000  H
  H93      1.0000 0.96385  0.68448  0.27963  Biso   1.000  H
  H94      1.0000 0.76607  0.94675  0.30595  Biso   1.000  H
  H95      1.0000 0.80618  0.70796  0.05558  Biso   1.000  H
  H96      1.0000 0.51687  0.74159  0.22345  Biso   1.000  H
  H97      1.0000 0.89239  0.96557  0.91655  Biso   1.000  H
  H98      1.0000 0.93204  0.83194  0.01783  Biso   1.000  H
  H99      1.0000 0.02867  0.87133  0.89147  Biso   1.000  H
  H100     1.0000 0.39143  0.96368  0.61891  Biso   1.000  H
  H101     1.0000 0.42838  0.83011  0.53253  Biso   1.000  H
  H102     1.0000 0.52459  0.87117  0.65420  Biso   1.000  H
  H103     1.0000 0.65112  0.46081  0.92643  Biso   1.000  H
  H104     1.0000 0.61010  0.33013  0.02695  Biso   1.000  H
  H105     1.0000 0.52012  0.36981  0.89121  Biso   1.000  H
  H106     1.0000 0.15133  0.45600  0.62324  Biso   1.000  H
  H107     1.0000 0.11217  0.33583  0.51001  Biso   1.000  H
  H108     1.0000 0.01662  0.36560  0.65528  Biso   1.000  H
  H109     1.0000 0.13676  0.97513  0.11879  Biso   1.000  H
  H110     1.0000 0.10785  0.10351  0.02867  Biso   1.000  H
  H111     1.0000 0.00537  0.06369  0.15554  Biso   1.000  H
  H112     1.0000 0.63611  0.98145  0.41792  Biso   1.000  H
  H113     1.0000 0.61006  0.09847  0.52753  Biso   1.000  H
  H114     1.0000 0.51515  0.05383  0.38748  Biso   1.000  H
  H115     1.0000 0.38983  0.47053  0.12107  Biso   1.000  H
  H116     1.0000 0.43097  0.59341  0.02370  Biso   1.000  H
  H117     1.0000 0.52598  0.56112  0.15533  Biso   1.000  H
  H118     1.0000 0.89349  0.46560  0.42629  Biso   1.000  H
  H119     1.0000 0.92532  0.60034  0.52865  Biso   1.000  H
  H120     1.0000 0.02565  0.55659  0.39416  Biso   1.000  H
  H121     1.0000 0.11770  0.97042  0.89374  Biso   1.000  H
  H122     1.0000 0.88188  0.05004  0.01567  Biso   1.000  H
  H123     1.0000 0.02638  0.83008  0.11761  Biso   1.000  H
  H124     1.0000 0.61253  0.96750  0.65105  Biso   1.000  H
  H125     1.0000 0.38565  0.05355  0.52197  Biso   1.000  H
  H126     1.0000 0.50260  0.82909  0.42631  Biso   1.000  H
  H127     1.0000 0.42412  0.45129  0.89429  Biso   1.000  H
  H128     1.0000 0.65716  0.54830  0.01226  Biso   1.000  H
  H129     1.0000 0.52379  0.33728  0.11673  Biso   1.000  H
  H130     1.0000 0.92716  0.47501  0.64965  Biso   1.000  H
  H131     1.0000 0.15335  0.55707  0.53553  Biso   1.000  H
  H132     1.0000 0.01944  0.33509  0.42821  Biso   1.000  H
  H133     1.0000 0.91304  0.95776  0.14568  Biso   1.000  H
  H134     1.0000 0.15502  0.87176  0.04311  Biso   1.000  H
  H135     1.0000 0.02150  0.09327  0.92983  Biso   1.000  H
  H136     1.0000 0.41649  0.97532  0.38840  Biso   1.000  H
  H137     1.0000 0.65106  0.87626  0.50776  Biso   1.000  H
  H138     1.0000 0.51497  0.10159  0.61373  Biso   1.000  H
  H139     1.0000 0.62199  0.47333  0.14606  Biso   1.000  H
  H140     1.0000 0.38648  0.38080  0.03165  Biso   1.000  H
  H141     1.0000 0.51763  0.59698  0.93002  Biso   1.000  H
  H142     1.0000 0.11983  0.46285  0.40011  Biso   1.000  H
  H143     1.0000 0.88823  0.37259  0.51783  Biso   1.000  H
  H144     1.0000 0.01294  0.59366  0.62052  Biso   1.000  H
  H145     1.0000 0.60517  0.46534  0.88303  Biso   1.000  H
  H146     1.0000 0.88428  0.56207  0.52032  Biso   1.000  H
  H147     1.0000 0.52838  0.83250  0.60869  Biso   1.000  H
  H148     1.0000 0.10936  0.44029  0.66167  Biso   1.000  H
  H149     1.0000 0.38692  0.55741  0.02225  Biso   1.000  H
  H150     1.0000 0.03187  0.82738  0.93718  Biso   1.000  H
  H151     1.0000 0.93392  0.96540  0.87990  Biso   1.000  H
  H152     1.0000 0.64906  0.05939  0.52835  Biso   1.000  H
  H153     1.0000 0.02143  0.32277  0.61119  Biso   1.000  H
  H154     1.0000 0.43523  0.95552  0.66321  Biso   1.000  H
  H155     1.0000 0.14966  0.05996  0.03287  Biso   1.000  H
  H156     1.0000 0.52313  0.33033  0.93418  Biso   1.000  H
  H157     1.0000 0.43386  0.46656  0.16038  Biso   1.000  H
  H158     1.0000 0.15953  0.37971  0.53211  Biso   1.000  H
  H159     1.0000 0.51092  0.09717  0.42955  Biso   1.000  H
  H160     1.0000 0.93623  0.47185  0.38334  Biso   1.000  H
  H161     1.0000 0.65255  0.36825  0.01899  Biso   1.000  H
  H162     1.0000 0.00981  0.10397  0.11304  Biso   1.000  H
  H163     1.0000 0.09945  0.97600  0.16140  Biso   1.000  H
  H164     1.0000 0.38840  0.87179  0.53413  Biso   1.000  H
  H165     1.0000 0.01493  0.59672  0.43754  Biso   1.000  H
  H166     1.0000 0.59490  0.96995  0.38040  Biso   1.000  H
  H167     1.0000 0.88501  0.87863  0.00833  Biso   1.000  H
  H168     1.0000 0.53536  0.59444  0.11422  Biso   1.000  H
  H169     1.0000 0.02637  0.05437  0.89323  Biso   1.000  H
  H170     1.0000 0.87104  0.94739  0.10391  Biso   1.000  H
  H171     1.0000 0.11260  0.82862  0.03879  Biso   1.000  H
  H172     1.0000 0.51790  0.05807  0.65720  Biso   1.000  H
  H173     1.0000 0.37975  0.97300  0.43465  Biso   1.000  H
  H174     1.0000 0.61496  0.83386  0.51178  Biso   1.000  H
  H175     1.0000 0.51938  0.55139  0.88972  Biso   1.000  H
  H176     1.0000 0.66432  0.46014  0.10552  Biso   1.000  H
  H177     1.0000 0.42823  0.33929  0.02370  Biso   1.000  H
  H178     1.0000 0.02532  0.54993  0.66208  Biso   1.000  H
  H179     1.0000 0.16219  0.45813  0.44515  Biso   1.000  H
  H180     1.0000 0.93278  0.32781  0.51468  Biso   1.000  H
  H181     1.0000 0.01832  0.88006  0.16195  Biso   1.000  H
  H182     1.0000 0.15385  0.96122  0.93843  Biso   1.000  H
  H183     1.0000 0.92274  0.09398  0.01110  Biso   1.000  H
  H184     1.0000 0.49785  0.87417  0.38276  Biso   1.000  H
  H185     1.0000 0.65454  0.97071  0.60357  Biso   1.000  H
  H186     1.0000 0.42639  0.09560  0.51748  Biso   1.000  H
  H187     1.0000 0.53769  0.37817  0.15686  Biso   1.000  H
  H188     1.0000 0.38143  0.46126  0.94474  Biso   1.000  H
  H189     1.0000 0.61762  0.59394  0.00917  Biso   1.000  H
  H190     1.0000 0.02070  0.37900  0.38725  Biso   1.000  H
  H191     1.0000 0.88082  0.46926  0.60798  Biso   1.000  H
  H192     1.0000 0.10886  0.59626  0.53635  Biso   1.000  H
  H193     1.0000 0.29239  0.82095  0.53647  Biso   1.000  H
  H194     1.0000 0.53321  0.22890  0.89017  Biso   1.000  H
  H195     1.0000 0.88626  0.48634  0.28591  Biso   1.000  H
  H196     1.0000 0.79268  0.81502  0.01094  Biso   1.000  H
  H197     1.0000 0.02658  0.22605  0.66378  Biso   1.000  H
  H198     1.0000 0.38430  0.46685  0.25842  Biso   1.000  H
  H199     1.0000 0.25427  0.32516  0.52492  Biso   1.000  H
  H200     1.0000 0.03657  0.73168  0.88665  Biso   1.000  H
  H201     1.0000 0.64659  0.95513  0.28381  Biso   1.000  H
  H202     1.0000 0.74104  0.31659  0.98066  Biso   1.000  H
  H203     1.0000 0.52802  0.72979  0.65664  Biso   1.000  H
  H204     1.0000 0.14927  0.97918  0.25811  Biso   1.000  H
  H205     1.0000 0.74334  0.11187  0.50699  Biso   1.000  H
  H206     1.0000 0.54123  0.69907  0.15657  Biso   1.000  H
  H207     1.0000 0.15296  0.43456  0.75943  Biso   1.000  H
  H208     1.0000 0.24478  0.11288  0.02990  Biso   1.000  H
  H209     1.0000 0.99814  0.69776  0.38975  Biso   1.000  H
  H210     1.0000 0.65754  0.47236  0.78698  Biso   1.000  H
  H211     1.0000 0.79230  0.60979  0.49018  Biso   1.000  H
  H212     1.0000 0.01005  0.19635  0.16604  Biso   1.000  H
  H213     1.0000 0.37979  0.95207  0.75993  Biso   1.000  H
  H214     1.0000 0.29646  0.62152  0.00844  Biso   1.000  H
  H215     1.0000 0.51179  0.19323  0.38061  Biso   1.000  H
  H216     1.0000 0.89119  0.97278  0.78040  Biso   1.000  H
  H217     1.0000 0.25958  0.46973  0.38925  Biso   1.000  H
  H218     1.0000 0.36939  0.18818  0.50189  Biso   1.000  H
  H219     1.0000 0.54971  0.32497  0.25303  Biso   1.000  H
  H220     1.0000 0.75920  0.45053  0.15786  Biso   1.000  H
  H221     1.0000 0.86823  0.18819  0.01298  Biso   1.000  H
  H222     1.0000 0.01058  0.32474  0.29014  Biso   1.000  H
  H223     1.0000 0.28116  0.95484  0.38692  Biso   1.000  H
  H224     1.0000 0.16108  0.69558  0.51880  Biso   1.000  H
  H225     1.0000 0.99131  0.82714  0.25706  Biso   1.000  H
  H226     1.0000 0.77162  0.96366  0.14942  Biso   1.000  H
  H227     1.0000 0.67334  0.68889  0.01353  Biso   1.000  H
  H228     1.0000 0.51538  0.82749  0.28590  Biso   1.000  H
  H229     1.0000 0.78180  0.46868  0.65384  Biso   1.000  H
  H230     1.0000 0.66966  0.74084  0.50471  Biso   1.000  H
  H231     1.0000 0.51249  0.59766  0.79078  Biso   1.000  H
  H232     1.0000 0.28703  0.46914  0.88791  Biso   1.000  H
  H233     1.0000 0.17413  0.73697  0.02668  Biso   1.000  H
  H234     1.0000 0.02223  0.60074  0.75972  Biso   1.000  H
  H235     1.0000 0.75130  0.95755  0.65379  Biso   1.000  H
  H236     1.0000 0.87796  0.23238  0.51030  Biso   1.000  H
  H237     1.0000 0.00802  0.09695  0.79231  Biso   1.000  H
  H238     1.0000 0.25266  0.95337  0.89030  Biso   1.000  H
  H239     1.0000 0.37095  0.24370  0.01854  Biso   1.000  H
  H240     1.0000 0.53161  0.10658  0.75605  Biso   1.000  H
  H241     1.0000 0.74437  0.47858  0.87107  Biso   1.000  H
  H242     1.0000 0.87942  0.69556  0.50019  Biso   1.000  H
  H243     1.0000 0.53219  0.81262  0.74729  Biso   1.000  H
  H244     1.0000 0.24485  0.45966  0.67994  Biso   1.000  H
  H245     1.0000 0.38623  0.69584  0.01812  Biso   1.000  H
  H246     1.0000 0.04004  0.81169  0.80100  Biso   1.000  H
  H247     1.0000 0.79832  0.98675  0.86143  Biso   1.000  H
  H248     1.0000 0.65831  0.19862  0.51505  Biso   1.000  H
  H249     1.0000 0.00088  0.31131  0.74982  Biso   1.000  H
  H250     1.0000 0.29714  0.96586  0.67396  Biso   1.000  H
  H251     1.0000 0.15848  0.19900  0.02695  Biso   1.000  H
  H252     1.0000 0.52910  0.31305  0.79533  Biso   1.000  H
  H253     1.0000 0.29494  0.47988  0.17823  Biso   1.000  H
  H254     1.0000 0.16998  0.24482  0.50022  Biso   1.000  H
  H255     1.0000 0.51437  0.11486  0.29600  Biso   1.000  H
  H256     1.0000 0.79860  0.46169  0.36956  Biso   1.000  H
  H257     1.0000 0.65601  0.23099  0.01211  Biso   1.000  H
  H258     1.0000 0.97294  0.10984  0.25042  Biso   1.000  H
  H259     1.0000 0.23213  0.95406  0.17510  Biso   1.000  H
  H260     1.0000 0.37356  0.73788  0.50548  Biso   1.000  H
  H261     1.0000 0.01582  0.61669  0.29980  Biso   1.000  H
  H262     1.0000 0.73061  0.98680  0.36353  Biso   1.000  H
  H263     1.0000 0.88187  0.73479  0.02471  Biso   1.000  H
  H264     1.0000 0.52546  0.62174  0.24885  Biso   1.000  H
  H265     1.0000 0.00752  0.18876  0.87421  Biso   1.000  H
  H266     1.0000 0.85735  0.96414  0.24352  Biso   1.000  H
  H267     1.0000 0.25540  0.82806  0.03792  Biso   1.000  H
  H268     1.0000 0.52025  0.19330  0.67073  Biso   1.000  H
  H269     1.0000 0.35692  0.98775  0.29534  Biso   1.000  H
  H270     1.0000 0.75161  0.83138  0.48984  Biso   1.000  H
  H271     1.0000 0.53267  0.69036  0.87307  Biso   1.000  H
  H272     1.0000 0.67312  0.48368  0.24288  Biso   1.000  H
  H273     1.0000 0.29017  0.32682  0.05123  Biso   1.000  H
  H274     1.0000 0.04102  0.68586  0.67385  Biso   1.000  H
  H275     1.0000 0.17815  0.47593  0.30440  Biso   1.000  H
  H276     1.0000 0.79642  0.31926  0.49943  Biso   1.000  H
  H277     1.0000 0.02806  0.74051  0.18162  Biso   1.000  H
  H278     1.0000 0.17596  0.96536  0.80179  Biso   1.000  H
  H279     1.0000 0.78390  0.10151  0.00868  Biso   1.000  H
  H280     1.0000 0.52658  0.73814  0.36664  Biso   1.000  H
  H281     1.0000 0.67150  0.95988  0.74304  Biso   1.000  H
  H282     1.0000 0.28463  0.10241  0.52133  Biso   1.000  H
  H283     1.0000 0.50581  0.24381  0.17516  Biso   1.000  H
  H284     1.0000 0.36482  0.43356  0.80442  Biso   1.000  H
  H285     1.0000 0.75568  0.59773  0.99796  Biso   1.000  H
  H286     1.0000 0.00337  0.24090  0.37437  Biso   1.000  H
  H287     1.0000 0.86829  0.47604  0.74187  Biso   1.000  H
  H288     1.0000 0.25167  0.60926  0.53588  Biso   1.000  H
  H289     1.0000 0.10528  0.19590  0.02774  Biso   1.000  H
  H290     1.0000 0.97339  0.05885  0.24467  Biso   1.000  H
  H291     1.0000 0.22880  0.94960  0.12061  Biso   1.000  H
  H292     1.0000 0.60434  0.19427  0.51805  Biso   1.000  H
  H293     1.0000 0.51361  0.05903  0.29334  Biso   1.000  H
  H294     1.0000 0.73377  0.98332  0.41698  Biso   1.000  H
  H295     1.0000 0.43919  0.68976  0.01798  Biso   1.000  H
  H296     1.0000 0.52467  0.56523  0.25308  Biso   1.000  H
  H297     1.0000 0.29432  0.47963  0.12298  Biso   1.000  H
  H298     1.0000 0.93034  0.69543  0.51337  Biso   1.000  H
  H299     1.0000 0.02318  0.56261  0.29759  Biso   1.000  H
  H300     1.0000 0.80073  0.45626  0.42441  Biso   1.000  H
  H301     1.0000 0.93672  0.73715  0.03095  Biso   1.000  H
  H302     1.0000 0.03484  0.86540  0.79808  Biso   1.000  H
  H303     1.0000 0.79506  0.97961  0.91581  Biso   1.000  H
  H304     1.0000 0.42934  0.73710  0.50693  Biso   1.000  H
  H305     1.0000 0.53156  0.86549  0.75081  Biso   1.000  H
  H306     1.0000 0.29747  0.96765  0.61770  Biso   1.000  H
  H307     1.0000 0.60410  0.23813  0.03269  Biso   1.000  H
  H308     1.0000 0.52677  0.36384  0.79240  Biso   1.000  H
  H309     1.0000 0.74737  0.47685  0.92282  Biso   1.000  H
  H310     1.0000 0.11644  0.24585  0.49523  Biso   1.000  H
  H311     1.0000 0.00698  0.36493  0.74885  Biso   1.000  H
  H312     1.0000 0.24609  0.46207  0.62968  Biso   1.000  H
  H313     1.0000 0.24815  0.95325  0.94637  Biso   1.000  H
  H314     1.0000 0.92227  0.18706  0.01795  Biso   1.000  H
  H315     1.0000 0.99076  0.88055  0.25369  Biso   1.000  H
  H316     1.0000 0.75081  0.96106  0.60029  Biso   1.000  H
  H317     1.0000 0.42648  0.18927  0.51047  Biso   1.000  H
  H318     1.0000 0.51212  0.87969  0.28775  Biso   1.000  H
  H319     1.0000 0.28553  0.47847  0.93934  Biso   1.000  H
  H320     1.0000 0.61796  0.69030  0.01969  Biso   1.000  H
  H321     1.0000 0.55193  0.37852  0.25207  Biso   1.000  H
  H322     1.0000 0.78737  0.45951  0.60352  Biso   1.000  H
  H323     1.0000 0.10568  0.69367  0.53070  Biso   1.000  H
  H324     1.0000 0.02264  0.37648  0.29032  Biso   1.000  H
  H325     1.0000 0.77913  0.95492  0.09586  Biso   1.000  H
  H326     1.0000 0.11830  0.73552  0.03062  Biso   1.000  H
  H327     1.0000 0.01873  0.04580  0.79505  Biso   1.000  H
  H328     1.0000 0.28593  0.94915  0.44156  Biso   1.000  H
  H329     1.0000 0.61617  0.73895  0.51104  Biso   1.000  H
  H330     1.0000 0.53082  0.05199  0.75209  Biso   1.000  H
  H331     1.0000 0.75712  0.44133  0.10667  Biso   1.000  H
  H332     1.0000 0.42499  0.24297  0.01343  Biso   1.000  H
  H333     1.0000 0.50399  0.54790  0.79271  Biso   1.000  H
  H334     1.0000 0.25989  0.46498  0.44405  Biso   1.000  H
  H335     1.0000 0.93119  0.23306  0.51510  Biso   1.000  H
  H336     1.0000 0.01776  0.54552  0.75884  Biso   1.000  H
  H337     1.0000 0.01436  0.18952  0.92736  Biso   1.000  H
  H338     1.0000 0.91156  0.96158  0.24046  Biso   1.000  H
  H339     1.0000 0.25100  0.87836  0.04404  Biso   1.000  H
  H340     1.0000 0.51457  0.19706  0.61968  Biso   1.000  H
  H341     1.0000 0.41384  0.98508  0.29492  Biso   1.000  H
  H342     1.0000 0.74833  0.88368  0.49512  Biso   1.000  H
  H343     1.0000 0.53165  0.68986  0.92500  Biso   1.000  H
  H344     1.0000 0.62149  0.48447  0.24058  Biso   1.000  H
  H345     1.0000 0.29359  0.38167  0.05753  Biso   1.000  H
  H346     1.0000 0.03782  0.68635  0.61767  Biso   1.000  H
  H347     1.0000 0.12320  0.47359  0.30243  Biso   1.000  H
  H348     1.0000 0.79436  0.37265  0.49588  Biso   1.000  H
  H349     1.0000 0.03940  0.73843  0.12951  Biso   1.000  H
  H350     1.0000 0.12058  0.96917  0.79940  Biso   1.000  H
  H351     1.0000 0.78387  0.04795  0.00352  Biso   1.000  H
  H352     1.0000 0.52858  0.73687  0.42136  Biso   1.000  H
  H353     1.0000 0.61619  0.96408  0.74509  Biso   1.000  H
  H354     1.0000 0.28709  0.04855  0.52954  Biso   1.000  H
  H355     1.0000 0.49242  0.24709  0.12070  Biso   1.000  H
  H356     1.0000 0.42281  0.43422  0.80000  Biso   1.000  H
  H357     1.0000 0.75006  0.54410  0.99700  Biso   1.000  H
  H358     1.0000 0.99874  0.24008  0.43100  Biso   1.000  H
  H359     1.0000 0.92026  0.47850  0.74456  Biso   1.000  H
  H360     1.0000 0.24697  0.55462  0.53592  Biso   1.000  H
  H361     1.0000 0.99604  0.69120  0.44398  Biso   1.000  H
  H362     1.0000 0.43233  0.95114  0.75926  Biso   1.000  H
  H363     1.0000 0.73580  0.36986  0.97437  Biso   1.000  H
  H364     1.0000 0.54065  0.69221  0.10417  Biso   1.000  H
  H365     1.0000 0.94379  0.96508  0.78458  Biso   1.000  H
  H366     1.0000 0.25524  0.37681  0.53292  Biso   1.000  H
  H367     1.0000 0.51659  0.19300  0.43691  Biso   1.000  H
  H368     1.0000 0.09598  0.43064  0.75554  Biso   1.000  H
  H369     1.0000 0.78932  0.86826  0.00192  Biso   1.000  H
  H370     1.0000 0.01781  0.19902  0.11303  Biso   1.000  H
  H371     1.0000 0.60163  0.46433  0.78750  Biso   1.000  H
  H372     1.0000 0.29340  0.87508  0.53856  Biso   1.000  H
  H373     1.0000 0.03671  0.22701  0.61403  Biso   1.000  H
  H374     1.0000 0.59119  0.94794  0.28520  Biso   1.000  H
  H375     1.0000 0.29204  0.56157  0.00872  Biso   1.000  H
  H376     1.0000 0.52815  0.23483  0.94399  Biso   1.000  H
  H377     1.0000 0.09519  0.98333  0.25807  Biso   1.000  H
  H378     1.0000 0.79188  0.55535  0.50214  Biso   1.000  H
  H379     1.0000 0.51788  0.73711  0.60240  Biso   1.000  H
  H380     1.0000 0.94155  0.48716  0.28876  Biso   1.000  H
  H381     1.0000 0.24282  0.05951  0.04729  Biso   1.000  H
  H382     1.0000 0.02919  0.73251  0.94024  Biso   1.000  H
  H383     1.0000 0.44181  0.46265  0.25502  Biso   1.000  H
  H384     1.0000 0.74485  0.05556  0.51137  Biso   1.000  H
  H385     1.0000 0.25462  0.42723  0.35637  Biso   1.000  H
  H386     1.0000 0.28899  0.13492  0.48783  Biso   1.000  H
  H387     1.0000 0.50638  0.30047  0.25778  Biso   1.000  H
  H388     1.0000 0.69848  0.44776  0.24947  Biso   1.000  H
  H389     1.0000 0.83363  0.18249  0.04303  Biso   1.000  H
  H390     1.0000 0.97153  0.29907  0.30117  Biso   1.000  H
  H391     1.0000 0.29051  0.92919  0.34823  Biso   1.000  H
  H392     1.0000 0.19253  0.69714  0.55003  Biso   1.000  H
  H393     1.0000 0.98036  0.74427  0.19947  Biso   1.000  H
  H394     1.0000 0.77653  0.93083  0.18699  Biso   1.000  H
  H395     1.0000 0.75387  0.63142  0.04173  Biso   1.000  H
  H396     1.0000 0.55183  0.80015  0.29103  Biso   1.000  H
  H397     1.0000 0.78656  0.50236  0.68712  Biso   1.000  H
  H398     1.0000 0.76021  0.79592  0.51328  Biso   1.000  H
  H399     1.0000 0.54714  0.62604  0.78875  Biso   1.000  H
  H400     1.0000 0.33783  0.46694  0.80315  Biso   1.000  H
  H401     1.0000 0.25733  0.79664  0.00405  Biso   1.000  H
  H402     1.0000 0.06277  0.62877  0.75588  Biso   1.000  H
  H403     1.0000 0.75469  0.92803  0.68927  Biso   1.000  H
  H404     1.0000 0.79075  0.29352  0.54092  Biso   1.000  H
  H405     1.0000 0.97922  0.18162  0.84596  Biso   1.000  H
  H406     1.0000 0.25603  0.98700  0.85724  Biso   1.000  H
  H407     1.0000 0.28768  0.30145  0.00366  Biso   1.000  H
  H408     1.0000 0.49946  0.13393  0.75609  Biso   1.000  H
  H409     1.0000 0.29847  0.44493  0.20544  Biso   1.000  H
  H410     1.0000 0.20378  0.25412  0.46972  Biso   1.000  H
  H411     1.0000 0.47872  0.14542  0.30050  Biso   1.000  H
  H412     1.0000 0.85855  0.45719  0.28586  Biso   1.000  H
  H413     1.0000 0.68246  0.23085  0.97646  Biso   1.000  H
  H414     1.0000 0.96888  0.19713  0.19413  Biso   1.000  H
  H415     1.0000 0.17646  0.94438  0.26006  Biso   1.000  H
  H416     1.0000 0.34729  0.73123  0.54492  Biso   1.000  H
  H417     1.0000 0.97454  0.64225  0.31007  Biso   1.000  H
  H418     1.0000 0.72896  0.95289  0.34166  Biso   1.000  H
  H419     1.0000 0.84616  0.73661  0.05204  Biso   1.000  H
  H420     1.0000 0.51012  0.70163  0.18685  Biso   1.000  H
  H421     1.0000 0.73591  0.43624  0.84002  Biso   1.000  H
  H422     1.0000 0.78953  0.64055  0.52415  Biso   1.000  H
  H423     1.0000 0.56183  0.73749  0.69246  Biso   1.000  H
  H424     1.0000 0.18383  0.46751  0.76720  Biso   1.000  H
  H425     1.0000 0.35052  0.69206  0.98706  Biso   1.000  H
  H426     1.0000 0.07111  0.73917  0.85339  Biso   1.000  H
  H427     1.0000 0.85979  0.00115  0.78066  Biso   1.000  H
  H428     1.0000 0.74763  0.14229  0.54394  Biso   1.000  H
  H429     1.0000 0.03594  0.28008  0.75003  Biso   1.000  H
  H430     1.0000 0.34539  0.91729  0.74998  Biso   1.000  H
  H431     1.0000 0.19689  0.19068  0.98917  Biso   1.000  H
  H432     1.0000 0.50492  0.22883  0.85588  Biso   1.000  H
  H433     1.0000 0.29934  0.99327  0.71219  Biso   1.000  H
  H434     1.0000 0.74394  0.28918  0.01830  Biso   1.000  H
  H435     1.0000 0.03661  0.69435  0.35800  Biso   1.000  H
  H436     1.0000 0.80003  0.94771  0.83628  Biso   1.000  H
  H437     1.0000 0.24182  0.28521  0.55540  Biso   1.000  H
  H438     1.0000 0.56249  0.64301  0.24502  Biso   1.000  H
  H439     1.0000 0.24013  0.41622  0.70738  Biso   1.000  H
  H440     1.0000 0.80361  0.78109  0.97529  Biso   1.000  H
  H441     1.0000 0.54755  0.19116  0.35201  Biso   1.000  H
  H442     1.0000 0.68713  0.50461  0.79083  Biso   1.000  H
  H443     1.0000 0.29369  0.79825  0.49693  Biso   1.000  H
  H444     1.0000 0.01329  0.13661  0.25130  Biso   1.000  H
  H445     1.0000 0.67502  0.99266  0.26891  Biso   1.000  H
  H446     1.0000 0.30775  0.63999  0.05372  Biso   1.000  H
  H447     1.0000 0.98850  0.22968  0.68566  Biso   1.000  H
  H448     1.0000 0.23903  0.99254  0.20004  Biso   1.000  H
  H449     1.0000 0.84924  0.68747  0.46301  Biso   1.000  H
  H450     1.0000 0.56438  0.28677  0.80491  Biso   1.000  H
  H451     1.0000 0.79416  0.49484  0.34564  Biso   1.000  H
  H452     1.0000 0.24202  0.14774  0.06289  Biso   1.000  H
  H453     1.0000 0.48992  0.78195  0.73548  Biso   1.000  H
  H454     1.0000 0.35465  0.50255  0.25867  Biso   1.000  H
  H455     1.0000 0.69146  0.19210  0.48280  Biso   1.000  H
  H456     1.0000 0.00262  0.78081  0.80652  Biso   1.000  H
  H457     1.0000 0.69277  0.74086  0.46654  Biso   1.000  H
  H458     1.0000 0.49909  0.68827  0.84612  Biso   1.000  H
  H459     1.0000 0.84280  0.44655  0.73818  Biso   1.000  H
  H460     1.0000 0.20291  0.74325  0.06327  Biso   1.000  H
  H461     1.0000 0.00252  0.68432  0.70374  Biso   1.000  H
  H462     1.0000 0.28548  0.42595  0.87043  Biso   1.000  H
  H463     1.0000 0.84486  0.24015  0.48179  Biso   1.000  H
  H464     1.0000 0.03485  0.12872  0.78593  Biso   1.000  H
  H465     1.0000 0.70261  0.00089  0.72894  Biso   1.000  H
  H466     1.0000 0.34636  0.24264  0.05542  Biso   1.000  H
  H467     1.0000 0.56195  0.18313  0.70282  Biso   1.000  H
  H468     1.0000 0.20069  0.92451  0.81616  Biso   1.000  H
  H469     1.0000 0.34042  0.19067  0.54360  Biso   1.000  H
  H470     1.0000 0.54062  0.23665  0.19709  Biso   1.000  H
  H471     1.0000 0.20769  0.50273  0.31571  Biso   1.000  H
  H472     1.0000 0.79392  0.13400  0.97003  Biso   1.000  H
  H473     1.0000 0.03791  0.24594  0.34411  Biso   1.000  H
  H474     1.0000 0.75954  0.48866  0.18638  Biso   1.000  H
  H475     1.0000 0.24266  0.63680  0.49576  Biso   1.000  H
  H476     1.0000 0.02174  0.80021  0.26390  Biso   1.000  H
  H477     1.0000 0.32073  0.01232  0.31062  Biso   1.000  H
  H478     1.0000 0.70092  0.68277  0.97854  Biso   1.000  H
  H479     1.0000 0.49118  0.74027  0.33189  Biso   1.000  H
  H480     1.0000 0.82729  0.99568  0.23450  Biso   1.000  H
  N1       1.0000 0.69436  0.14492  0.51694  Biso   1.000  N
  N2       1.0000 0.53193  0.64721  0.19473  Biso   1.000  N
  N3       1.0000 0.19013  0.44501  0.71046  Biso   1.000  N
  N4       1.0000 0.19288  0.14535  0.02619  Biso   1.000  N
  N5       1.0000 0.00779  0.64514  0.35475  Biso   1.000  N
  N6       1.0000 0.69042  0.47211  0.83899  Biso   1.000  N
  N7       1.0000 0.84491  0.64171  0.49918  Biso   1.000  N
  N8       1.0000 0.99477  0.14563  0.19832  Biso   1.000  N
  N9       1.0000 0.34746  0.95377  0.70560  Biso   1.000  N
  N10      1.0000 0.35006  0.64378  0.01941  Biso   1.000  N
  N11      1.0000 0.51342  0.14314  0.34900  Biso   1.000  N
  N12      1.0000 0.85360  0.97398  0.83014  Biso   1.000  N
  N13      1.0000 0.34260  0.78919  0.52519  Biso   1.000  N
  N14      1.0000 0.53440  0.28260  0.85191  Biso   1.000  N
  N15      1.0000 0.85093  0.47718  0.33887  Biso   1.000  N
  N16      1.0000 0.84761  0.78678  0.01409  Biso   1.000  N
  N17      1.0000 0.01683  0.27941  0.69623  Biso   1.000  N
  N18      1.0000 0.34945  0.47341  0.20754  Biso   1.000  N
  N19      1.0000 0.20016  0.29543  0.51431  Biso   1.000  N
  N20      1.0000 0.03736  0.78233  0.85242  Biso   1.000  N
  N21      1.0000 0.67903  0.97482  0.33198  Biso   1.000  N
  N22      1.0000 0.68982  0.28234  0.00237  Biso   1.000  N
  N23      1.0000 0.52682  0.78219  0.69119  Biso   1.000  N
  N24      1.0000 0.17956  0.97204  0.20631  Biso   1.000  N
  N25      1.0000 0.83793  0.47097  0.68948  Biso   1.000  N
  N26      1.0000 0.69989  0.79407  0.49593  Biso   1.000  N
  N27      1.0000 0.52372  0.63377  0.84216  Biso   1.000  N
  N28      1.0000 0.33751  0.44876  0.85705  Biso   1.000  N
  N29      1.0000 0.20298  0.79047  0.03512  Biso   1.000  N
  N30      1.0000 0.02919  0.63430  0.70784  Biso   1.000  N
  N31      1.0000 0.70056  0.95911  0.68888  Biso   1.000  N
  N32      1.0000 0.84586  0.28856  0.51036  Biso   1.000  N
  N33      1.0000 0.01430  0.13341  0.84419  Biso   1.000  N
  N34      1.0000 0.20289  0.96152  0.85711  Biso   1.000  N
  N35      1.0000 0.34109  0.29667  0.03308  Biso   1.000  N
  N36      1.0000 0.52488  0.14101  0.70320  Biso   1.000  N
  N37      1.0000 0.20620  0.46528  0.35913  Biso   1.000  N
  N38      1.0000 0.33734  0.13708  0.51696  Biso   1.000  N
  N39      1.0000 0.52505  0.29301  0.20475  Biso   1.000  N
  N40      1.0000 0.70636  0.46579  0.19083  Biso   1.000  N
  N41      1.0000 0.83727  0.13718  0.01018  Biso   1.000  N
  N42      1.0000 0.00859  0.29455  0.34460  Biso   1.000  N
  N43      1.0000 0.32779  0.97167  0.35188  Biso   1.000  N
  N44      1.0000 0.19363  0.64290  0.52925  Biso   1.000  N
  N45      1.0000 0.01068  0.79408  0.20838  Biso   1.000  N
  N46      1.0000 0.82435  0.96088  0.18756  Biso   1.000  N
  N47      1.0000 0.70325  0.63350  0.00894  Biso   1.000  N
  N48      1.0000 0.51657  0.79180  0.33789  Biso   1.000  N
  O1       1.0000 0.36161  0.51061  0.02587  Biso   1.000  O
  O2       1.0000 0.02373  0.30160  0.56152  Biso   1.000  O
  O3       1.0000 0.54521  0.95778  0.35747  Biso   1.000  O
  O4       1.0000 0.86263  0.50695  0.51328  Biso   1.000  O
  O5       1.0000 0.52315  0.30984  0.98491  Biso   1.000  O
  O6       1.0000 0.04760  0.97553  0.18370  Biso   1.000  O
  O7       1.0000 0.17136  0.00965  0.03125  Biso   1.000  O
  O8       1.0000 0.52528  0.80910  0.55768  Biso   1.000  O
  O9       1.0000 0.98584  0.47085  0.36264  Biso   1.000  O
  O10      1.0000 0.67218  0.01083  0.52205  Biso   1.000  O
  O11      1.0000 0.02711  0.80615  0.98859  Biso   1.000  O
  O12      1.0000 0.48407  0.46728  0.18344  Biso   1.000  O
  O13      1.0000 0.67489  0.41915  0.00986  Biso   1.000  O
  O14      1.0000 0.02122  0.61935  0.48823  Biso   1.000  O
  O15      1.0000 0.48275  0.95828  0.68531  Biso   1.000  O
  O16      1.0000 0.18370  0.42589  0.53407  Biso   1.000  O
  O17      1.0000 0.52725  0.61983  0.06070  Biso   1.000  O
  O18      1.0000 0.98580  0.95834  0.86070  Biso   1.000  O
  O19      1.0000 0.85905  0.92361  0.00578  Biso   1.000  O
  O20      1.0000 0.51408  0.11813  0.48257  Biso   1.000  O
  O21      1.0000 0.05808  0.45524  0.68163  Biso   1.000  O
  O22      1.0000 0.36622  0.92188  0.52946  Biso   1.000  O
  O23      1.0000 0.01050  0.12380  0.06567  Biso   1.000  O
  O24      1.0000 0.55668  0.46507  0.86416  Biso   1.000  O
  O25      1.0000 0.96306  0.96322  0.17291  Biso   1.000  O
  O26      1.0000 0.17505  0.92246  0.03303  Biso   1.000  O
  O27      1.0000 0.01922  0.12044  0.97975  Biso   1.000  O
  O28      1.0000 0.46261  0.97260  0.36413  Biso   1.000  O
  O29      1.0000 0.67178  0.93063  0.50207  Biso   1.000  O
  O30      1.0000 0.51511  0.12415  0.56761  Biso   1.000  O
  O31      1.0000 0.56946  0.47068  0.17296  Biso   1.000  O
  O32      1.0000 0.36192  0.42758  0.03434  Biso   1.000  O
  O33      1.0000 0.52564  0.61998  0.97557  Biso   1.000  O
  O34      1.0000 0.06921  0.46455  0.37132  Biso   1.000  O
  O35      1.0000 0.86434  0.42356  0.51310  Biso   1.000  O
  O36      1.0000 0.01522  0.61784  0.57044  Biso   1.000  O
  O37      1.0000 0.06784  0.96249  0.86930  Biso   1.000  O
  O38      1.0000 0.85982  0.00444  0.00857  Biso   1.000  O
  O39      1.0000 0.02717  0.80761  0.07440  Biso   1.000  O
  O40      1.0000 0.56354  0.96616  0.67916  Biso   1.000  O
  O41      1.0000 0.36269  0.00599  0.52938  Biso   1.000  O
  O42      1.0000 0.51953  0.80535  0.47305  Biso   1.000  O
  O43      1.0000 0.47244  0.45673  0.86635  Biso   1.000  O
  O44      1.0000 0.67894  0.50153  0.02176  Biso   1.000  O
  O45      1.0000 0.51359  0.31541  0.06946  Biso   1.000  O
  O46      1.0000 0.97458  0.46114  0.67804  Biso   1.000  O
  O47      1.0000 0.17874  0.50836  0.53152  Biso   1.000  O
  O48      1.0000 0.02329  0.30780  0.47990  Biso   1.000  O
  O49      1.0000 0.00900  0.92776  0.18494  Biso   1.000  O
  O50      1.0000 0.17498  0.96068  0.98986  Biso   1.000  O
  O51      1.0000 0.97105  0.11695  0.01717  Biso   1.000  O
  O52      1.0000 0.49477  0.92646  0.35855  Biso   1.000  O
  O53      1.0000 0.67241  0.96592  0.55437  Biso   1.000  O
  O54      1.0000 0.47257  0.11945  0.52329  Biso   1.000  O
  O55      1.0000 0.52960  0.42659  0.18154  Biso   1.000  O
  O56      1.0000 0.35843  0.46580  0.98921  Biso   1.000  O
  O57      1.0000 0.56912  0.61753  0.01697  Biso   1.000  O
  O58      1.0000 0.02175  0.42600  0.36487  Biso   1.000  O
  O59      1.0000 0.86108  0.46389  0.55830  Biso   1.000  O
  O60      1.0000 0.05976  0.61971  0.53278  Biso   1.000  O
  O61      1.0000 0.02127  0.00059  0.87123  Biso   1.000  O
  O62      1.0000 0.85357  0.96000  0.04970  Biso   1.000  O
  O63      1.0000 0.06936  0.80539  0.03225  Biso   1.000  O
  O64      1.0000 0.52011  0.00476  0.68265  Biso   1.000  O
  O65      1.0000 0.36194  0.96264  0.48487  Biso   1.000  O
  O66      1.0000 0.56320  0.80655  0.51235  Biso   1.000  O
  O67      1.0000 0.50949  0.50015  0.86452  Biso   1.000  O
  O68      1.0000 0.68422  0.45616  0.05922  Biso   1.000  O
  O69      1.0000 0.47567  0.31449  0.02034  Biso   1.000  O
  O70      1.0000 0.01856  0.49867  0.68423  Biso   1.000  O
  O71      1.0000 0.18738  0.46761  0.49123  Biso   1.000  O
  O72      1.0000 0.97733  0.30613  0.52370  Biso   1.000  O
  O73      1.0000 0.01367  0.41477  0.68006  Biso   1.000  O
  O74      1.0000 0.66486  0.97684  0.47118  Biso   1.000  O
  O75      1.0000 0.48545  0.61628  0.02218  Biso   1.000  O
  O76      1.0000 0.52039  0.41760  0.86422  Biso   1.000  O
  O77      1.0000 0.16456  0.96138  0.07086  Biso   1.000  O
  O78      1.0000 0.97696  0.61987  0.52624  Biso   1.000  O
  O79      1.0000 0.52574  0.92086  0.67987  Biso   1.000  O
  O80      1.0000 0.86653  0.46425  0.47454  Biso   1.000  O
  O81      1.0000 0.05650  0.12313  0.02781  Biso   1.000  O
  O82      1.0000 0.03198  0.91896  0.86779  Biso   1.000  O
  O83      1.0000 0.36651  0.47315  0.07419  Biso   1.000  O
  O84      1.0000 0.55761  0.12138  0.52558  Biso   1.000  O
  O85      1.0000 0.02790  0.51087  0.37021  Biso   1.000  O
  O86      1.0000 0.36607  0.96403  0.56847  Biso   1.000  O
  O87      1.0000 0.55869  0.30940  0.03284  Biso   1.000  O
  O88      1.0000 0.52501  0.51214  0.18266  Biso   1.000  O
  O89      1.0000 0.86118  0.96481  0.96818  Biso   1.000  O
  O90      1.0000 0.06326  0.31111  0.51977  Biso   1.000  O
  O91      1.0000 0.51340  0.00862  0.36352  Biso   1.000  O
  O92      1.0000 0.17749  0.46796  0.57418  Biso   1.000  O
  O93      1.0000 0.98433  0.81033  0.02938  Biso   1.000  O
  O94      1.0000 0.00055  0.01049  0.18102  Biso   1.000  O
  O95      1.0000 0.67528  0.46484  0.97607  Biso   1.000  O
  O96      1.0000 0.47929  0.80629  0.51822  Biso   1.000  O
  O97      1.0000 0.47212  0.16707  0.52127  Biso   1.000  O
  O98      1.0000 0.53929  0.42838  0.22924  Biso   1.000  O
  O99      1.0000 0.23610  0.46499  0.49622  Biso   1.000  O
  O100     1.0000 0.97133  0.16585  0.01411  Biso   1.000  O
  O101     1.0000 0.03107  0.42935  0.31759  Biso   1.000  O
  O102     1.0000 0.73157  0.44843  0.05616  Biso   1.000  O
  O103     1.0000 0.05936  0.66861  0.52935  Biso   1.000  O
  O104     1.0000 0.00646  0.92699  0.23339  Biso   1.000  O
  O105     1.0000 0.31235  0.96222  0.48746  Biso   1.000  O
  O106     1.0000 0.56998  0.66674  0.01570  Biso   1.000  O
  O107     1.0000 0.49510  0.92680  0.31090  Biso   1.000  O
  O108     1.0000 0.80491  0.95703  0.04747  Biso   1.000  O
  O109     1.0000 0.56647  0.75952  0.51910  Biso   1.000  O
  O110     1.0000 0.50632  0.50014  0.81649  Biso   1.000  O
  O111     1.0000 0.81288  0.46229  0.55454  Biso   1.000  O
  O112     1.0000 0.06830  0.75588  0.03883  Biso   1.000  O
  O113     1.0000 0.01656  0.49822  0.73325  Biso   1.000  O
  O114     1.0000 0.30932  0.46422  0.99258  Biso   1.000  O
  O115     1.0000 0.98291  0.25872  0.51846  Biso   1.000  O
  O116     1.0000 0.02252  0.00141  0.82112  Biso   1.000  O
  O117     1.0000 0.71969  0.96197  0.54859  Biso   1.000  O
  O118     1.0000 0.47530  0.26612  0.01999  Biso   1.000  O
  O119     1.0000 0.51913  0.00615  0.73079  Biso   1.000  O
  O120     1.0000 0.22199  0.97193  0.99279  Biso   1.000  O
  O121     1.0000 0.05513  0.45201  0.73240  Biso   1.000  O
  O122     1.0000 0.72047  0.00991  0.51456  Biso   1.000  O
  O123     1.0000 0.53287  0.66928  0.06068  Biso   1.000  O
  O124     1.0000 0.55241  0.46548  0.81528  Biso   1.000  O
  O125     1.0000 0.22020  0.00980  0.03897  Biso   1.000  O
  O126     1.0000 0.01817  0.66879  0.48785  Biso   1.000  O
  O127     1.0000 0.48162  0.96222  0.73389  Biso   1.000  O
  O128     1.0000 0.81292  0.50763  0.51469  Biso   1.000  O
  O129     1.0000 0.01002  0.17222  0.06156  Biso   1.000  O
  O130     1.0000 0.98812  0.95498  0.81214  Biso   1.000  O
  O131     1.0000 0.31338  0.51137  0.02591  Biso   1.000  O
  O132     1.0000 0.51832  0.16748  0.48220  Biso   1.000  O
  O133     1.0000 0.99004  0.47525  0.31369  Biso   1.000  O
  O134     1.0000 0.31735  0.92155  0.53109  Biso   1.000  O
  O135     1.0000 0.52132  0.26028  0.98900  Biso   1.000  O
  O136     1.0000 0.48675  0.46545  0.23079  Biso   1.000  O
  O137     1.0000 0.81052  0.91949  0.00313  Biso   1.000  O
  O138     1.0000 0.02730  0.25272  0.55837  Biso   1.000  O
  O139     1.0000 0.54517  0.95779  0.30902  Biso   1.000  O
  O140     1.0000 0.23204  0.42405  0.53788  Biso   1.000  O
  O141     1.0000 0.03035  0.75848  0.99028  Biso   1.000  O
  O142     1.0000 0.04233  0.97387  0.23188  Biso   1.000  O
  O143     1.0000 0.72340  0.41420  0.00480  Biso   1.000  O
  O144     1.0000 0.52706  0.75992  0.55881  Biso   1.000  O
  O145     1.0000 0.57425  0.47227  0.22161  Biso   1.000  O
  O146     1.0000 0.22795  0.50805  0.53817  Biso   1.000  O
  O147     1.0000 0.51245  0.17235  0.56598  Biso   1.000  O
  O148     1.0000 0.07187  0.46805  0.32298  Biso   1.000  O
  O149     1.0000 0.72837  0.49828  0.01977  Biso   1.000  O
  O150     1.0000 0.01854  0.16953  0.97677  Biso   1.000  O
  O151     1.0000 0.95832  0.96314  0.22095  Biso   1.000  O
  O152     1.0000 0.31307  0.00409  0.52681  Biso   1.000  O
  O153     1.0000 0.02283  0.66573  0.57103  Biso   1.000  O
  O154     1.0000 0.46184  0.97538  0.31499  Biso   1.000  O
  O155     1.0000 0.81123  0.00212  0.00685  Biso   1.000  O
  O156     1.0000 0.52607  0.66807  0.97652  Biso   1.000  O
  O157     1.0000 0.46921  0.44891  0.81925  Biso   1.000  O
  O158     1.0000 0.81618  0.42292  0.51144  Biso   1.000  O
  O159     1.0000 0.51989  0.75686  0.47585  Biso   1.000  O
  O160     1.0000 0.96986  0.46102  0.72704  Biso   1.000  O
  O161     1.0000 0.31365  0.42946  0.03959  Biso   1.000  O
  O162     1.0000 0.02242  0.75952  0.07584  Biso   1.000  O
  O163     1.0000 0.06988  0.96481  0.81978  Biso   1.000  O
  O164     1.0000 0.72061  0.93273  0.50106  Biso   1.000  O
  O165     1.0000 0.01987  0.25983  0.47592  Biso   1.000  O
  O166     1.0000 0.56697  0.96594  0.72753  Biso   1.000  O
  O167     1.0000 0.22359  0.92727  0.03739  Biso   1.000  O
  O168     1.0000 0.51245  0.26685  0.07177  Biso   1.000  O
  O169     1.0000 0.99415  0.01138  0.22856  Biso   1.000  O
  O170     1.0000 0.21269  0.96587  0.07716  Biso   1.000  O
  O171     1.0000 0.05456  0.17197  0.02243  Biso   1.000  O
  O172     1.0000 0.51084  0.00906  0.31421  Biso   1.000  O
  O173     1.0000 0.71391  0.97763  0.46558  Biso   1.000  O
  O174     1.0000 0.55628  0.16819  0.52470  Biso   1.000  O
  O175     1.0000 0.52858  0.51170  0.23013  Biso   1.000  O
  O176     1.0000 0.31919  0.47725  0.07182  Biso   1.000  O
  O177     1.0000 0.48718  0.66546  0.01877  Biso   1.000  O
  O178     1.0000 0.03165  0.51326  0.32188  Biso   1.000  O
  O179     1.0000 0.81653  0.46947  0.47201  Biso   1.000  O
  O180     1.0000 0.97811  0.66898  0.52937  Biso   1.000  O
  O181     1.0000 0.03433  0.91886  0.82047  Biso   1.000  O
  O182     1.0000 0.81239  0.96517  0.96066  Biso   1.000  O
  O183     1.0000 0.98358  0.76171  0.02815  Biso   1.000  O
  O184     1.0000 0.52584  0.91896  0.72974  Biso   1.000  O
  O185     1.0000 0.31771  0.96679  0.57302  Biso   1.000  O
  O186     1.0000 0.47869  0.75699  0.51918  Biso   1.000  O
  O187     1.0000 0.51760  0.41540  0.81599  Biso   1.000  O
  O188     1.0000 0.72418  0.46637  0.97308  Biso   1.000  O
  O189     1.0000 0.55732  0.26015  0.03298  Biso   1.000  O
  O190     1.0000 0.00616  0.41536  0.72893  Biso   1.000  O
  O191     1.0000 0.22610  0.46753  0.57813  Biso   1.000  O
  O192     1.0000 0.06749  0.26248  0.51314  Biso   1.000  O
