data_image0
_cell_length_a       47.4698
_cell_length_b       47.0867
_cell_length_c       46.5409
_cell_angle_alpha    90
_cell_angle_beta     90
_cell_angle_gamma    90

_symmetry_space_group_name_H-M    "P 1"
_symmetry_int_tables_number       1

loop_
  _symmetry_equiv_pos_as_xyz
  'x, y, z'

loop_
  _atom_site_label
  _atom_site_occupancy
  _atom_site_fract_x
  _atom_site_fract_y
  _atom_site_fract_z
  _atom_site_thermal_displace_type
  _atom_site_B_iso_or_equiv
  _atom_site_type_symbol
  C1       1.0000 0.54831  0.97954  0.33839  Biso   1.000  C
  C2       1.0000 0.30160  0.54110  0.01346  Biso   1.000  C
  C3       1.0000 0.98334  0.30167  0.56648  Biso   1.000  C
  C4       1.0000 0.04900  0.00249  0.19959  Biso   1.000  C
  C5       1.0000 0.80265  0.53649  0.52309  Biso   1.000  C
  C6       1.0000 0.47246  0.30067  0.96621  Biso   1.000  C
  C7       1.0000 0.93027  0.50539  0.33995  Biso   1.000  C
  C8       1.0000 0.16621  0.04678  0.00478  Biso   1.000  C
  C9       1.0000 0.49859  0.80184  0.57674  Biso   1.000  C
  C10      1.0000 0.43316  0.46799  0.19884  Biso   1.000  C
  C11      1.0000 0.66329  0.03909  0.53339  Biso   1.000  C
  C12      1.0000 0.99429  0.79873  0.97109  Biso   1.000  C
  C13      1.0000 0.42095  0.97958  0.69969  Biso   1.000  C
  C14      1.0000 0.66589  0.42206  0.01690  Biso   1.000  C
  C15      1.0000 0.98151  0.66410  0.47225  Biso   1.000  C
  C16      1.0000 0.92109  0.97990  0.83964  Biso   1.000  C
  C17      1.0000 0.16763  0.42437  0.52986  Biso   1.000  C
  C18      1.0000 0.48013  0.66090  0.07355  Biso   1.000  C
  C19      1.0000 0.04128  0.46701  0.70199  Biso   1.000  C
  C20      1.0000 0.80330  0.91368  0.04014  Biso   1.000  C
  C21      1.0000 0.48361  0.15690  0.46262  Biso   1.000  C
  C22      1.0000 0.54489  0.48790  0.83642  Biso   1.000  C
  C23      1.0000 0.30520  0.91824  0.50844  Biso   1.000  C
  C24      1.0000 0.97027  0.15965  0.07123  Biso   1.000  C
  C25      1.0000 0.30154  0.02636  0.51610  Biso   1.000  C
  C26      1.0000 0.48867  0.30447  0.07401  Biso   1.000  C
  C27      1.0000 0.03703  0.48394  0.33364  Biso   1.000  C
  C28      1.0000 0.80391  0.02271  0.02738  Biso   1.000  C
  C29      1.0000 0.98549  0.31003  0.45537  Biso   1.000  C
  C30      1.0000 0.53960  0.49223  0.19911  Biso   1.000  C
  C31      1.0000 0.16344  0.53038  0.50928  Biso   1.000  C
  C32      1.0000 0.98897  0.80188  0.08179  Biso   1.000  C
  C33      1.0000 0.43875  0.96933  0.33177  Biso   1.000  C
  C34      1.0000 0.66785  0.53224  0.03245  Biso   1.000  C
  C35      1.0000 0.49156  0.79326  0.46844  Biso   1.000  C
  C36      1.0000 0.94270  0.98698  0.20146  Biso   1.000  C
  C37      1.0000 0.66489  0.93229  0.52443  Biso   1.000  C
  C38      1.0000 0.49280  0.66411  0.96509  Biso   1.000  C
  C39      1.0000 0.93740  0.48429  0.69038  Biso   1.000  C
  C40      1.0000 0.16860  0.93616  0.01822  Biso   1.000  C
  C41      1.0000 0.98416  0.66058  0.58075  Biso   1.000  C
  C42      1.0000 0.43773  0.47659  0.83339  Biso   1.000  C
  C43      1.0000 0.80130  0.42990  0.51837  Biso   1.000  C
  C44      1.0000 0.97840  0.16013  0.96391  Biso   1.000  C
  C45      1.0000 0.53037  0.98610  0.70705  Biso   1.000  C
  C46      1.0000 0.30359  0.43305  0.01934  Biso   1.000  C
  C47      1.0000 0.48464  0.16038  0.57047  Biso   1.000  C
  C48      1.0000 0.03138  0.97097  0.84109  Biso   1.000  C
  C49      1.0000 0.97507  0.02972  0.83600  Biso   1.000  C
  C50      1.0000 0.80848  0.97175  0.08628  Biso   1.000  C
  C51      1.0000 0.04381  0.80200  0.03351  Biso   1.000  C
  C52      1.0000 0.47684  0.03996  0.70327  Biso   1.000  C
  C53      1.0000 0.30688  0.97406  0.45454  Biso   1.000  C
  C54      1.0000 0.54633  0.79831  0.51902  Biso   1.000  C
  C55      1.0000 0.48883  0.53719  0.83634  Biso   1.000  C
  C56      1.0000 0.66954  0.46787  0.07515  Biso   1.000  C
  C57      1.0000 0.42877  0.30086  0.02595  Biso   1.000  C
  C58      1.0000 0.99716  0.52687  0.70250  Biso   1.000  C
  C59      1.0000 0.16575  0.47254  0.46185  Biso   1.000  C
  C60      1.0000 0.92960  0.30617  0.51052  Biso   1.000  C
  C61      1.0000 0.00463  0.93934  0.20335  Biso   1.000  C
  C62      1.0000 0.16751  0.98617  0.95540  Biso   1.000  C
  C63      1.0000 0.92229  0.15764  0.01553  Biso   1.000  C
  C64      1.0000 0.49310  0.91931  0.33865  Biso   1.000  C
  C65      1.0000 0.66166  0.98331  0.58449  Biso   1.000  C
  C66      1.0000 0.42600  0.15731  0.51842  Biso   1.000  C
  C67      1.0000 0.50167  0.42585  0.19708  Biso   1.000  C
  C68      1.0000 0.30255  0.48524  0.95906  Biso   1.000  C
  C69      1.0000 0.53805  0.65864  0.02185  Biso   1.000  C
  C70      1.0000 0.97331  0.44101  0.33344  Biso   1.000  C
  C71      1.0000 0.79876  0.48090  0.57658  Biso   1.000  C
  C72      1.0000 0.03700  0.65695  0.52298  Biso   1.000  C
  C73      1.0000 0.00004  0.54718  0.33608  Biso   1.000  C
  C74      1.0000 0.30538  0.96776  0.56526  Biso   1.000  C
  C75      1.0000 0.53584  0.29674  0.01513  Biso   1.000  C
  C76      1.0000 0.47822  0.53347  0.20140  Biso   1.000  C
  C77      1.0000 0.80175  0.96337  0.97904  Biso   1.000  C
  C78      1.0000 0.03687  0.30088  0.51599  Biso   1.000  C
  C79      1.0000 0.48967  0.02901  0.33363  Biso   1.000  C
  C80      1.0000 0.16321  0.48454  0.57291  Biso   1.000  C
  C81      1.0000 0.93626  0.79641  0.02864  Biso   1.000  C
  C82      1.0000 0.99043  0.04755  0.20487  Biso   1.000  C
  C83      1.0000 0.66825  0.48336  0.96698  Biso   1.000  C
  C84      1.0000 0.43679  0.80085  0.53098  Biso   1.000  C
  C85      1.0000 0.98210  0.41772  0.70249  Biso   1.000  C
  C86      1.0000 0.66969  0.99357  0.47411  Biso   1.000  C
  C87      1.0000 0.43178  0.66664  0.01618  Biso   1.000  C
  C88      1.0000 0.49456  0.42801  0.83911  Biso   1.000  C
  C89      1.0000 0.16975  0.99881  0.06236  Biso   1.000  C
  C90      1.0000 0.93037  0.66481  0.53031  Biso   1.000  C
  C91      1.0000 0.47537  0.92931  0.70309  Biso   1.000  C
  C92      1.0000 0.79998  0.48761  0.46636  Biso   1.000  C
  C93      1.0000 0.02941  0.16202  0.02751  Biso   1.000  C
  C94      1.0000 0.97387  0.92197  0.84180  Biso   1.000  C
  C95      1.0000 0.30010  0.48401  0.07083  Biso   1.000  C
  C96      1.0000 0.53382  0.15826  0.51368  Biso   1.000  C
  C97      1.0000 0.66289  0.07087  0.53771  Biso   1.000  C
  C98      1.0000 0.48633  0.66068  0.10518  Biso   1.000  C
  C99      1.0000 0.07298  0.46324  0.70160  Biso   1.000  C
  C100     1.0000 0.16447  0.07893  0.00931  Biso   1.000  C
  C101     1.0000 0.97889  0.66526  0.43957  Biso   1.000  C
  C102     1.0000 0.57702  0.49202  0.83758  Biso   1.000  C
  C103     1.0000 0.80314  0.56792  0.51864  Biso   1.000  C
  C104     1.0000 0.96700  0.16436  0.10307  Biso   1.000  C
  C105     1.0000 0.38915  0.97486  0.69923  Biso   1.000  C
  C106     1.0000 0.30139  0.57273  0.01272  Biso   1.000  C
  C107     1.0000 0.48944  0.15653  0.42929  Biso   1.000  C
  C108     1.0000 0.88933  0.98320  0.84217  Biso   1.000  C
  C109     1.0000 0.30564  0.88637  0.50790  Biso   1.000  C
  C110     1.0000 0.46715  0.30065  0.93381  Biso   1.000  C
  C111     1.0000 0.89772  0.50201  0.33906  Biso   1.000  C
  C112     1.0000 0.80717  0.88216  0.04384  Biso   1.000  C
  C113     1.0000 0.98881  0.29957  0.59796  Biso   1.000  C
  C114     1.0000 0.40084  0.46807  0.19675  Biso   1.000  C
  C115     1.0000 0.16662  0.39177  0.53346  Biso   1.000  C
  C116     1.0000 0.98956  0.79671  0.93835  Biso   1.000  C
  C117     1.0000 0.58025  0.98349  0.34253  Biso   1.000  C
  C118     1.0000 0.66710  0.38938  0.01941  Biso   1.000  C
  C119     1.0000 0.49178  0.80311  0.60819  Biso   1.000  C
  C120     1.0000 0.08128  0.00521  0.19739  Biso   1.000  C
  C121     1.0000 0.80914  0.97730  0.11845  Biso   1.000  C
  C122     1.0000 0.07606  0.80459  0.03513  Biso   1.000  C
  C123     1.0000 0.97651  0.06192  0.83545  Biso   1.000  C
  C124     1.0000 0.30829  0.97438  0.42171  Biso   1.000  C
  C125     1.0000 0.57918  0.79928  0.51541  Biso   1.000  C
  C126     1.0000 0.48504  0.07117  0.70212  Biso   1.000  C
  C127     1.0000 0.66842  0.46985  0.10867  Biso   1.000  C
  C128     1.0000 0.39698  0.30292  0.02565  Biso   1.000  C
  C129     1.0000 0.49001  0.56971  0.83656  Biso   1.000  C
  C130     1.0000 0.16332  0.47153  0.43012  Biso   1.000  C
  C131     1.0000 0.89738  0.30544  0.51443  Biso   1.000  C
  C132     1.0000 0.99937  0.55910  0.70432  Biso   1.000  C
  C133     1.0000 0.16686  0.98060  0.92332  Biso   1.000  C
  C134     1.0000 0.89062  0.15674  0.01625  Biso   1.000  C
  C135     1.0000 0.00067  0.90649  0.20275  Biso   1.000  C
  C136     1.0000 0.66116  0.98382  0.61769  Biso   1.000  C
  C137     1.0000 0.39260  0.15560  0.51874  Biso   1.000  C
  C138     1.0000 0.48541  0.88749  0.33893  Biso   1.000  C
  C139     1.0000 0.30457  0.48509  0.92716  Biso   1.000  C
  C140     1.0000 0.56991  0.65710  0.01981  Biso   1.000  C
  C141     1.0000 0.51285  0.39499  0.19547  Biso   1.000  C
  C142     1.0000 0.80033  0.48428  0.60815  Biso   1.000  C
  C143     1.0000 0.06977  0.65775  0.52105  Biso   1.000  C
  C144     1.0000 0.96798  0.40937  0.32968  Biso   1.000  C
  C145     1.0000 0.30121  0.47582  0.10293  Biso   1.000  C
  C146     1.0000 0.06858  0.29778  0.52073  Biso   1.000  C
  C147     1.0000 0.48913  0.06212  0.33307  Biso   1.000  C
  C148     1.0000 0.80191  0.48559  0.43412  Biso   1.000  C
  C149     1.0000 0.56844  0.29527  0.01408  Biso   1.000  C
  C150     1.0000 0.98894  0.07919  0.20358  Biso   1.000  C
  C151     1.0000 0.17203  0.00302  0.09454  Biso   1.000  C
  C152     1.0000 0.40398  0.79898  0.53479  Biso   1.000  C
  C153     1.0000 0.00432  0.58032  0.33905  Biso   1.000  C
  C154     1.0000 0.66918  0.99955  0.44198  Biso   1.000  C
  C155     1.0000 0.90474  0.79261  0.03306  Biso   1.000  C
  C156     1.0000 0.47624  0.56521  0.20009  Biso   1.000  C
  C157     1.0000 0.66865  0.47846  0.93512  Biso   1.000  C
  C158     1.0000 0.89907  0.66602  0.52547  Biso   1.000  C
  C159     1.0000 0.47577  0.89786  0.70262  Biso   1.000  C
  C160     1.0000 0.16536  0.48013  0.60478  Biso   1.000  C
  C161     1.0000 0.39939  0.66687  0.01529  Biso   1.000  C
  C162     1.0000 0.98246  0.89099  0.84250  Biso   1.000  C
  C163     1.0000 0.80090  0.96088  0.94527  Biso   1.000  C
  C164     1.0000 0.56674  0.16080  0.51325  Biso   1.000  C
  C165     1.0000 0.98380  0.38534  0.70020  Biso   1.000  C
  C166     1.0000 0.30432  0.96282  0.59689  Biso   1.000  C
  C167     1.0000 0.06074  0.16204  0.03824  Biso   1.000  C
  C168     1.0000 0.48973  0.39590  0.83885  Biso   1.000  C
  C169     1.0000 0.98371  0.80431  0.11335  Biso   1.000  C
  C170     1.0000 0.06393  0.96952  0.83953  Biso   1.000  C
  C171     1.0000 0.79999  0.05422  0.02778  Biso   1.000  C
  C172     1.0000 0.49202  0.78994  0.43688  Biso   1.000  C
  C173     1.0000 0.56286  0.98183  0.70952  Biso   1.000  C
  C174     1.0000 0.29967  0.05783  0.52109  Biso   1.000  C
  C175     1.0000 0.49439  0.30369  0.10594  Biso   1.000  C
  C176     1.0000 0.40536  0.47403  0.83425  Biso   1.000  C
  C177     1.0000 0.66658  0.56486  0.03449  Biso   1.000  C
  C178     1.0000 0.98355  0.31347  0.42335  Biso   1.000  C
  C179     1.0000 0.90508  0.48916  0.69236  Biso   1.000  C
  C180     1.0000 0.16291  0.56143  0.50100  Biso   1.000  C
  C181     1.0000 0.98002  0.15934  0.93094  Biso   1.000  C
  C182     1.0000 0.91043  0.98707  0.20550  Biso   1.000  C
  C183     1.0000 0.16922  0.90460  0.02376  Biso   1.000  C
  C184     1.0000 0.48467  0.16300  0.60355  Biso   1.000  C
  C185     1.0000 0.40816  0.97436  0.33027  Biso   1.000  C
  C186     1.0000 0.66760  0.90081  0.51875  Biso   1.000  C
  C187     1.0000 0.49922  0.66437  0.93323  Biso   1.000  C
  C188     1.0000 0.57134  0.49458  0.20019  Biso   1.000  C
  C189     1.0000 0.30402  0.40036  0.02356  Biso   1.000  C
  C190     1.0000 0.98620  0.65829  0.61295  Biso   1.000  C
  C191     1.0000 0.06958  0.48205  0.33449  Biso   1.000  C
  C192     1.0000 0.80013  0.39757  0.51909  Biso   1.000  C
  C193     1.0000 0.82664  0.96594  0.92676  Biso   1.000  C
  C194     1.0000 0.88847  0.81893  0.03590  Biso   1.000  C
  C195     1.0000 0.98206  0.87526  0.86949  Biso   1.000  C
  C196     1.0000 0.33103  0.96244  0.61371  Biso   1.000  C
  C197     1.0000 0.38566  0.82574  0.52793  Biso   1.000  C
  C198     1.0000 0.47908  0.88258  0.67418  Biso   1.000  C
  C199     1.0000 0.64273  0.47920  0.92001  Biso   1.000  C
  C200     1.0000 0.58590  0.32222  0.01352  Biso   1.000  C
  C201     1.0000 0.48347  0.38054  0.86656  Biso   1.000  C
  C202     1.0000 0.13830  0.47742  0.62130  Biso   1.000  C
  C203     1.0000 0.08627  0.32541  0.52160  Biso   1.000  C
  C204     1.0000 0.98497  0.37226  0.67244  Biso   1.000  C
  C205     1.0000 0.14486  0.00312  0.11289  Biso   1.000  C
  C206     1.0000 0.07774  0.13818  0.02896  Biso   1.000  C
  C207     1.0000 0.98209  0.09523  0.17720  Biso   1.000  C
  C208     1.0000 0.64321  0.99409  0.42481  Biso   1.000  C
  C209     1.0000 0.58199  0.13424  0.51741  Biso   1.000  C
  C210     1.0000 0.48547  0.07892  0.35957  Biso   1.000  C
  C211     1.0000 0.32974  0.47230  0.11685  Biso   1.000  C
  C212     1.0000 0.38330  0.63937  0.01394  Biso   1.000  C
  C213     1.0000 0.47865  0.58080  0.17412  Biso   1.000  C
  C214     1.0000 0.82905  0.48723  0.41798  Biso   1.000  C
  C215     1.0000 0.88261  0.63761  0.52321  Biso   1.000  C
  C216     1.0000 1.00000  0.59210  0.36791  Biso   1.000  C
  C217     1.0000 0.08099  0.97041  0.86591  Biso   1.000  C
  C218     1.0000 0.82546  0.07138  0.02044  Biso   1.000  C
  C219     1.0000 0.98667  0.83444  0.12472  Biso   1.000  C
  C220     1.0000 0.57986  0.98362  0.68311  Biso   1.000  C
  C221     1.0000 0.32667  0.07552  0.52158  Biso   1.000  C
  C222     1.0000 0.49401  0.81725  0.42024  Biso   1.000  C
  C223     1.0000 0.38735  0.47683  0.86037  Biso   1.000  C
  C224     1.0000 0.63816  0.57901  0.02968  Biso   1.000  C
  C225     1.0000 0.49958  0.33057  0.11945  Biso   1.000  C
  C226     1.0000 0.88611  0.48479  0.66813  Biso   1.000  C
  C227     1.0000 0.13644  0.57823  0.50439  Biso   1.000  C
  C228     1.0000 0.97897  0.34035  0.40750  Biso   1.000  C
  C229     1.0000 0.89368  0.98545  0.17921  Biso   1.000  C
  C230     1.0000 0.14242  0.88750  0.02679  Biso   1.000  C
  C231     1.0000 0.97881  0.13285  0.91454  Biso   1.000  C
  C232     1.0000 0.38899  0.97447  0.35708  Biso   1.000  C
  C233     1.0000 0.64218  0.88253  0.51687  Biso   1.000  C
  C234     1.0000 0.48161  0.13649  0.62184  Biso   1.000  C
  C235     1.0000 0.58833  0.48639  0.17520  Biso   1.000  C
  C236     1.0000 0.33050  0.38377  0.02569  Biso   1.000  C
  C237     1.0000 0.49655  0.63628  0.91825  Biso   1.000  C
  C238     1.0000 0.08420  0.47560  0.36232  Biso   1.000  C
  C239     1.0000 0.82724  0.38205  0.52000  Biso   1.000  C
  C240     1.0000 0.98652  0.63005  0.62657  Biso   1.000  C
  C241     1.0000 0.59100  0.48674  0.86599  Biso   1.000  C
  C242     1.0000 0.83027  0.58432  0.51449  Biso   1.000  C
  C243     1.0000 0.48654  0.82997  0.62309  Biso   1.000  C
  C244     1.0000 0.08863  0.46469  0.67304  Biso   1.000  C
  C245     1.0000 0.32914  0.58776  0.01207  Biso   1.000  C
  C246     1.0000 0.98467  0.82331  0.92150  Biso   1.000  C
  C247     1.0000 0.87547  0.97924  0.87016  Biso   1.000  C
  C248     1.0000 0.63507  0.08728  0.53425  Biso   1.000  C
  C249     1.0000 0.98691  0.32491  0.61675  Biso   1.000  C
  C250     1.0000 0.37714  0.96787  0.67136  Biso   1.000  C
  C251     1.0000 0.13688  0.09234  0.01347  Biso   1.000  C
  C252     1.0000 0.47001  0.32906  0.91888  Biso   1.000  C
  C253     1.0000 0.38413  0.46868  0.16895  Biso   1.000  C
  C254     1.0000 0.13930  0.37612  0.53207  Biso   1.000  C
  C255     1.0000 0.48549  0.12943  0.41411  Biso   1.000  C
  C256     1.0000 0.88284  0.49353  0.36573  Biso   1.000  C
  C257     1.0000 0.64006  0.37327  0.01657  Biso   1.000  C
  C258     1.0000 0.96936  0.14052  0.12322  Biso   1.000  C
  C259     1.0000 0.09580  0.00562  0.16977  Biso   1.000  C
  C260     1.0000 0.33182  0.87210  0.51615  Biso   1.000  C
  C261     1.0000 0.98403  0.63895  0.42286  Biso   1.000  C
  C262     1.0000 0.59306  0.98607  0.37099  Biso   1.000  C
  C263     1.0000 0.83471  0.86799  0.04102  Biso   1.000  C
  C264     1.0000 0.48417  0.63509  0.12156  Biso   1.000  C
  C265     1.0000 0.97789  0.07785  0.86281  Biso   1.000  C
  C266     1.0000 0.83711  0.97781  0.13232  Biso   1.000  C
  C267     1.0000 0.09130  0.83295  0.03365  Biso   1.000  C
  C268     1.0000 0.48179  0.08664  0.67495  Biso   1.000  C
  C269     1.0000 0.33643  0.97280  0.40650  Biso   1.000  C
  C270     1.0000 0.59397  0.82749  0.51361  Biso   1.000  C
  C271     1.0000 0.49433  0.58455  0.86434  Biso   1.000  C
  C272     1.0000 0.64165  0.47260  0.12462  Biso   1.000  C
  C273     1.0000 0.38235  0.33090  0.02697  Biso   1.000  C
  C274     1.0000 0.99533  0.57632  0.67829  Biso   1.000  C
  C275     1.0000 0.13585  0.47230  0.41552  Biso   1.000  C
  C276     1.0000 0.88108  0.33088  0.51792  Biso   1.000  C
  C277     1.0000 0.99358  0.89126  0.17710  Biso   1.000  C
  C278     1.0000 0.13860  0.97850  0.91142  Biso   1.000  C
  C279     1.0000 0.87470  0.12861  0.01763  Biso   1.000  C
  C280     1.0000 0.48943  0.87156  0.36690  Biso   1.000  C
  C281     1.0000 0.63424  0.98427  0.63351  Biso   1.000  C
  C282     1.0000 0.37647  0.12913  0.52147  Biso   1.000  C
  C283     1.0000 0.51059  0.37900  0.16872  Biso   1.000  C
  C284     1.0000 0.33224  0.48268  0.91254  Biso   1.000  C
  C285     1.0000 0.58582  0.62933  0.02062  Biso   1.000  C
  C286     1.0000 0.96938  0.39240  0.35559  Biso   1.000  C
  C287     1.0000 0.82869  0.48193  0.62107  Biso   1.000  C
  C288     1.0000 0.08384  0.63018  0.51586  Biso   1.000  C
  C289     1.0000 0.33314  0.84206  0.51731  Biso   1.000  C
  C290     1.0000 0.47190  0.32842  0.88660  Biso   1.000  C
  C291     1.0000 0.85137  0.49047  0.36488  Biso   1.000  C
  C292     1.0000 0.83547  0.83695  0.04212  Biso   1.000  C
  C293     1.0000 0.98665  0.32127  0.64743  Biso   1.000  C
  C294     1.0000 0.35169  0.47111  0.16944  Biso   1.000  C
  C295     1.0000 0.13947  0.34437  0.52970  Biso   1.000  C
  C296     1.0000 0.98772  0.82196  0.89057  Biso   1.000  C
  C297     1.0000 0.62463  0.99225  0.37068  Biso   1.000  C
  C298     1.0000 0.64023  0.34162  0.01993  Biso   1.000  C
  C299     1.0000 0.48398  0.82931  0.65420  Biso   1.000  C
  C300     1.0000 0.12657  0.00654  0.16817  Biso   1.000  C
  C301     1.0000 0.63447  0.11674  0.52825  Biso   1.000  C
  C302     1.0000 0.48541  0.63428  0.15227  Biso   1.000  C
  C303     1.0000 0.12041  0.46539  0.67394  Biso   1.000  C
  C304     1.0000 0.13349  0.12137  0.02524  Biso   1.000  C
  C305     1.0000 0.98878  0.64208  0.39187  Biso   1.000  C
  C306     1.0000 0.62274  0.48750  0.86699  Biso   1.000  C
  C307     1.0000 0.83086  0.61521  0.51997  Biso   1.000  C
  C308     1.0000 0.97578  0.14624  0.15224  Biso   1.000  C
  C309     1.0000 0.34596  0.96253  0.66983  Biso   1.000  C
  C310     1.0000 0.32910  0.61982  0.01140  Biso   1.000  C
  C311     1.0000 0.48793  0.13143  0.38269  Biso   1.000  C
  C312     1.0000 0.84393  0.97351  0.87284  Biso   1.000  C
  C313     1.0000 0.13709  0.47255  0.38389  Biso   1.000  C
  C314     1.0000 0.34487  0.12933  0.52081  Biso   1.000  C
  C315     1.0000 0.50904  0.34772  0.17120  Biso   1.000  C
  C316     1.0000 0.64144  0.47989  0.15489  Biso   1.000  C
  C317     1.0000 0.84342  0.12587  0.02217  Biso   1.000  C
  C318     1.0000 0.97441  0.36098  0.35473  Biso   1.000  C
  C319     1.0000 0.33679  0.97715  0.37500  Biso   1.000  C
  C320     1.0000 0.11651  0.63244  0.51386  Biso   1.000  C
  C321     1.0000 0.98889  0.85994  0.17778  Biso   1.000  C
  C322     1.0000 0.83920  0.98385  0.16274  Biso   1.000  C
  C323     1.0000 0.61748  0.63007  0.02624  Biso   1.000  C
  C324     1.0000 0.48848  0.83921  0.36681  Biso   1.000  C
  C325     1.0000 0.83097  0.48328  0.65153  Biso   1.000  C
  C326     1.0000 0.62495  0.82782  0.51333  Biso   1.000  C
  C327     1.0000 0.49204  0.61638  0.86445  Biso   1.000  C
  C328     1.0000 0.33373  0.47831  0.88038  Biso   1.000  C
  C329     1.0000 0.12214  0.83357  0.03474  Biso   1.000  C
  C330     1.0000 0.99297  0.60787  0.68034  Biso   1.000  C
  C331     1.0000 0.63418  0.98274  0.66524  Biso   1.000  C
  C332     1.0000 0.85010  0.32939  0.51765  Biso   1.000  C
  C333     1.0000 0.98021  0.10922  0.86224  Biso   1.000  C
  C334     1.0000 0.13739  0.97038  0.88030  Biso   1.000  C
  C335     1.0000 0.35030  0.33024  0.02858  Biso   1.000  C
  C336     1.0000 0.48351  0.11805  0.67462  Biso   1.000  C
  C337     1.0000 0.64433  0.48420  0.88984  Biso   1.000  C
  C338     1.0000 0.85228  0.63654  0.52161  Biso   1.000  C
  C339     1.0000 0.48065  0.85098  0.67550  Biso   1.000  C
  C340     1.0000 0.14098  0.46939  0.65234  Biso   1.000  C
  C341     1.0000 0.35234  0.64095  0.01165  Biso   1.000  C
  C342     1.0000 0.98562  0.84358  0.86804  Biso   1.000  C
  C343     1.0000 0.82341  0.96868  0.89547  Biso   1.000  C
  C344     1.0000 0.61295  0.13693  0.52133  Biso   1.000  C
  C345     1.0000 0.98599  0.34136  0.67051  Biso   1.000  C
  C346     1.0000 0.32760  0.96160  0.64530  Biso   1.000  C
  C347     1.0000 0.11002  0.14025  0.02888  Biso   1.000  C
  C348     1.0000 0.47768  0.34944  0.86459  Biso   1.000  C
  C349     1.0000 0.32975  0.47156  0.14862  Biso   1.000  C
  C350     1.0000 0.11709  0.32386  0.52672  Biso   1.000  C
  C351     1.0000 0.48928  0.11042  0.35981  Biso   1.000  C
  C352     1.0000 0.82977  0.48714  0.38659  Biso   1.000  C
  C353     1.0000 0.61771  0.32089  0.01751  Biso   1.000  C
  C354     1.0000 0.97986  0.12606  0.17599  Biso   1.000  C
  C355     1.0000 0.14630  0.00484  0.14383  Biso   1.000  C
  C356     1.0000 0.35482  0.82263  0.52310  Biso   1.000  C
  C357     1.0000 0.99607  0.62392  0.36898  Biso   1.000  C
  C358     1.0000 0.64456  0.99598  0.39265  Biso   1.000  C
  C359     1.0000 0.85769  0.81555  0.04063  Biso   1.000  C
  C360     1.0000 0.48041  0.61290  0.17436  Biso   1.000  C
  C361     1.0000 0.97955  0.13180  0.88251  Biso   1.000  C
  C362     1.0000 0.86176  0.98635  0.18191  Biso   1.000  C
  C363     1.0000 0.14263  0.85584  0.02936  Biso   1.000  C
  C364     1.0000 0.48324  0.13940  0.65314  Biso   1.000  C
  C365     1.0000 0.35899  0.97825  0.35448  Biso   1.000  C
  C366     1.0000 0.64468  0.85122  0.51408  Biso   1.000  C
  C367     1.0000 0.49456  0.63712  0.88686  Biso   1.000  C
  C368     1.0000 0.61921  0.48433  0.17477  Biso   1.000  C
  C369     1.0000 0.32856  0.35158  0.02811  Biso   1.000  C
  C370     1.0000 0.98890  0.62919  0.65831  Biso   1.000  C
  C371     1.0000 0.11607  0.47454  0.36283  Biso   1.000  C
  C372     1.0000 0.82751  0.35099  0.52027  Biso   1.000  C
  C373     1.0000 0.98670  0.83771  0.15696  Biso   1.000  C
  C374     1.0000 0.11326  0.96752  0.86230  Biso   1.000  C
  C375     1.0000 0.82364  0.10261  0.02423  Biso   1.000  C
  C376     1.0000 0.49021  0.81733  0.38965  Biso   1.000  C
  C377     1.0000 0.61152  0.98201  0.68638  Biso   1.000  C
  C378     1.0000 0.32277  0.10648  0.52341  Biso   1.000  C
  C379     1.0000 0.50537  0.32750  0.14973  Biso   1.000  C
  C380     1.0000 0.35624  0.47548  0.85989  Biso   1.000  C
  C381     1.0000 0.63905  0.61054  0.02999  Biso   1.000  C
  C382     1.0000 0.97687  0.33988  0.37636  Biso   1.000  C
  C383     1.0000 0.85455  0.48513  0.67074  Biso   1.000  C
  C384     1.0000 0.13705  0.61086  0.50792  Biso   1.000  C
  C385     1.0000 0.15863  0.13873  0.03131  Biso   1.000  C
  C386     1.0000 0.97600  0.17474  0.16462  Biso   1.000  C
  C387     1.0000 0.14462  0.00869  0.19351  Biso   1.000  C
  C388     1.0000 0.66114  0.13459  0.53075  Biso   1.000  C
  C389     1.0000 0.49190  0.15759  0.36670  Biso   1.000  C
  C390     1.0000 0.64221  0.99502  0.34370  Biso   1.000  C
  C391     1.0000 0.30284  0.63706  0.01096  Biso   1.000  C
  C392     1.0000 0.49029  0.66028  0.16607  Biso   1.000  C
  C393     1.0000 0.33586  0.47092  0.19606  Biso   1.000  C
  C394     1.0000 0.80357  0.63078  0.52350  Biso   1.000  C
  C395     1.0000 0.98618  0.67024  0.37715  Biso   1.000  C
  C396     1.0000 0.83517  0.49416  0.33863  Biso   1.000  C
  C397     1.0000 0.80952  0.81982  0.04617  Biso   1.000  C
  C398     1.0000 0.99289  0.79526  0.87445  Biso   1.000  C
  C399     1.0000 0.82632  0.97364  0.84689  Biso   1.000  C
  C400     1.0000 0.30630  0.82390  0.51272  Biso   1.000  C
  C401     1.0000 0.48525  0.80373  0.67001  Biso   1.000  C
  C402     1.0000 0.32805  0.96138  0.69518  Biso   1.000  C
  C403     1.0000 0.66579  0.32523  0.02583  Biso   1.000  C
  C404     1.0000 0.47093  0.30088  0.87171  Biso   1.000  C
  C405     1.0000 0.63956  0.49043  0.84128  Biso   1.000  C
  C406     1.0000 0.16471  0.32669  0.53247  Biso   1.000  C
  C407     1.0000 0.98849  0.29382  0.66201  Biso   1.000  C
  C408     1.0000 0.13585  0.46141  0.69991  Biso   1.000  C
  C409     1.0000 0.12729  0.95960  0.83455  Biso   1.000  C
  C410     1.0000 0.79585  0.11649  0.02841  Biso   1.000  C
  C411     1.0000 0.98413  0.81109  0.17481  Biso   1.000  C
  C412     1.0000 0.62445  0.97838  0.71421  Biso   1.000  C
  C413     1.0000 0.29590  0.12123  0.52208  Biso   1.000  C
  C414     1.0000 0.48608  0.79070  0.37310  Biso   1.000  C
  C415     1.0000 0.34068  0.47394  0.83298  Biso   1.000  C
  C416     1.0000 0.66506  0.62615  0.03963  Biso   1.000  C
  C417     1.0000 0.50496  0.30016  0.16686  Biso   1.000  C
  C418     1.0000 0.84090  0.48764  0.69867  Biso   1.000  C
  C419     1.0000 0.16428  0.62636  0.50717  Biso   1.000  C
  C420     1.0000 0.97698  0.31303  0.36148  Biso   1.000  C
  C421     1.0000 0.84821  0.98971  0.20932  Biso   1.000  C
  C422     1.0000 0.16939  0.84086  0.03179  Biso   1.000  C
  C423     1.0000 0.98346  0.15887  0.86686  Biso   1.000  C
  C424     1.0000 0.34460  0.98391  0.32753  Biso   1.000  C
  C425     1.0000 0.67265  0.83848  0.51234  Biso   1.000  C
  C426     1.0000 0.48709  0.16622  0.66807  Biso   1.000  C
  C427     1.0000 0.63439  0.48856  0.20349  Biso   1.000  C
  C428     1.0000 0.30180  0.33696  0.02829  Biso   1.000  C
  C429     1.0000 0.49512  0.66465  0.87122  Biso   1.000  C
  C430     1.0000 0.13245  0.47430  0.33574  Biso   1.000  C
  C431     1.0000 0.80099  0.33324  0.52085  Biso   1.000  C
  C432     1.0000 0.98915  0.65528  0.67484  Biso   1.000  C
  C433     1.0000 0.98104  0.12480  0.83457  Biso   1.000  C
  C434     1.0000 0.81336  0.98681  0.18066  Biso   1.000  C
  C435     1.0000 0.13857  0.80703  0.03864  Biso   1.000  C
  C436     1.0000 0.48758  0.13351  0.70169  Biso   1.000  C
  C437     1.0000 0.31199  0.98236  0.35748  Biso   1.000  C
  C438     1.0000 0.64336  0.80206  0.51117  Biso   1.000  C
  C439     1.0000 0.48912  0.63243  0.83841  Biso   1.000  C
  C440     1.0000 0.66849  0.48189  0.17117  Biso   1.000  C
  C441     1.0000 0.33340  0.30337  0.02780  Biso   1.000  C
  C442     1.0000 0.99516  0.62401  0.70745  Biso   1.000  C
  C443     1.0000 0.16299  0.46991  0.36829  Biso   1.000  C
  C444     1.0000 0.83532  0.30147  0.51732  Biso   1.000  C
  C445     1.0000 0.98807  0.84502  0.20543  Biso   1.000  C
  C446     1.0000 0.16218  0.96315  0.86211  Biso   1.000  C
  C447     1.0000 0.82642  0.15257  0.02423  Biso   1.000  C
  C448     1.0000 0.48457  0.82367  0.34065  Biso   1.000  C
  C449     1.0000 0.65939  0.97782  0.68166  Biso   1.000  C
  C450     1.0000 0.32820  0.15511  0.52079  Biso   1.000  C
  C451     1.0000 0.51404  0.33223  0.19870  Biso   1.000  C
  C452     1.0000 0.30675  0.47783  0.86464  Biso   1.000  C
  C453     1.0000 0.63321  0.65717  0.03266  Biso   1.000  C
  C454     1.0000 0.97575  0.34522  0.32900  Biso   1.000  C
  C455     1.0000 0.80558  0.48897  0.66978  Biso   1.000  C
  C456     1.0000 0.13236  0.66002  0.51600  Biso   1.000  C
  C457     1.0000 0.99737  0.64205  0.34248  Biso   1.000  C
  C458     1.0000 0.29948  0.95865  0.65949  Biso   1.000  C
  C459     1.0000 0.63073  0.29343  0.02199  Biso   1.000  C
  C460     1.0000 0.47909  0.62893  0.20127  Biso   1.000  C
  C461     1.0000 0.79585  0.96497  0.88221  Biso   1.000  C
  C462     1.0000 0.12964  0.29591  0.53058  Biso   1.000  C
  C463     1.0000 0.49360  0.12652  0.33285  Biso   1.000  C
  C464     1.0000 0.16917  0.46636  0.66682  Biso   1.000  C
  C465     1.0000 0.84277  0.78857  0.04170  Biso   1.000  C
  C466     1.0000 0.98485  0.14513  0.20040  Biso   1.000  C
  C467     1.0000 0.67226  0.48375  0.87393  Biso   1.000  C
  C468     1.0000 0.34067  0.79450  0.52447  Biso   1.000  C
  C469     1.0000 0.98674  0.32381  0.69675  Biso   1.000  C
  C470     1.0000 0.67131  0.00183  0.37854  Biso   1.000  C
  C471     1.0000 0.33630  0.66924  0.01337  Biso   1.000  C
  C472     1.0000 0.47911  0.33448  0.83802  Biso   1.000  C
  C473     1.0000 0.17427  0.00779  0.15773  Biso   1.000  C
  C474     1.0000 0.83509  0.66336  0.52532  Biso   1.000  C
  C475     1.0000 0.47757  0.83627  0.70185  Biso   1.000  C
  C476     1.0000 0.80279  0.48609  0.37078  Biso   1.000  C
  C477     1.0000 0.12361  0.16576  0.04000  Biso   1.000  C
  C478     1.0000 0.99184  0.82809  0.84112  Biso   1.000  C
  C479     1.0000 0.30288  0.47002  0.16490  Biso   1.000  C
  C480     1.0000 0.62807  0.16540  0.52110  Biso   1.000  C
  C481     1.0000 0.35779  0.76894  0.53118  Biso   1.000  C
  C482     1.0000 0.48731  0.34932  0.81149  Biso   1.000  C
  C483     1.0000 0.77543  0.48164  0.38698  Biso   1.000  C
  C484     1.0000 0.85945  0.76033  0.03913  Biso   1.000  C
  C485     1.0000 0.98318  0.33638  0.72539  Biso   1.000  C
  C486     1.0000 0.27508  0.47258  0.15090  Biso   1.000  C
  C487     1.0000 0.11259  0.26832  0.53120  Biso   1.000  C
  C488     1.0000 0.99402  0.84548  0.81391  Biso   1.000  C
  C489     1.0000 0.69739  0.00987  0.39571  Biso   1.000  C
  C490     1.0000 0.61397  0.26638  0.02350  Biso   1.000  C
  C491     1.0000 0.47755  0.85054  0.72997  Biso   1.000  C
  C492     1.0000 0.20087  0.00719  0.13909  Biso   1.000  C
  C493     1.0000 0.61173  0.19153  0.51350  Biso   1.000  C
  C494     1.0000 0.47183  0.61143  0.22692  Biso   1.000  C
  C495     1.0000 0.19668  0.47044  0.64907  Biso   1.000  C
  C496     1.0000 0.10636  0.18956  0.05138  Biso   1.000  C
  C497     1.0000 0.00462  0.63013  0.31320  Biso   1.000  C
  C498     1.0000 0.69887  0.47937  0.88928  Biso   1.000  C
  C499     1.0000 0.84963  0.69217  0.52820  Biso   1.000  C
  C500     1.0000 0.98872  0.12919  0.22813  Biso   1.000  C
  C501     1.0000 0.27392  0.95240  0.64184  Biso   1.000  C
  C502     1.0000 0.35442  0.69575  0.01767  Biso   1.000  C
  C503     1.0000 0.49464  0.10939  0.30598  Biso   1.000  C
  C504     1.0000 0.76968  0.95868  0.89982  Biso   1.000  C
  C505     1.0000 0.62589  0.49512  0.81303  Biso   1.000  C
  C506     1.0000 0.77506  0.61631  0.52314  Biso   1.000  C
  C507     1.0000 0.48876  0.77600  0.65628  Biso   1.000  C
  C508     1.0000 0.11908  0.45828  0.72755  Biso   1.000  C
  C509     1.0000 0.27584  0.62218  0.01058  Biso   1.000  C
  C510     1.0000 0.99191  0.76735  0.89055  Biso   1.000  C
  C511     1.0000 0.84026  0.98204  0.81912  Biso   1.000  C
  C512     1.0000 0.68763  0.11928  0.53581  Biso   1.000  C
  C513     1.0000 0.99139  0.26861  0.64365  Biso   1.000  C
  C514     1.0000 0.34016  0.96872  0.72258  Biso   1.000  C
  C515     1.0000 0.18894  0.12701  0.02355  Biso   1.000  C
  C516     1.0000 0.46719  0.27414  0.88787  Biso   1.000  C
  C517     1.0000 0.35126  0.46909  0.22324  Biso   1.000  C
  C518     1.0000 0.19334  0.34318  0.53322  Biso   1.000  C
  C519     1.0000 0.49442  0.18451  0.38179  Biso   1.000  C
  C520     1.0000 0.85081  0.49955  0.31005  Biso   1.000  C
  C521     1.0000 0.69341  0.34172  0.03049  Biso   1.000  C
  C522     1.0000 0.97029  0.19854  0.14569  Biso   1.000  C
  C523     1.0000 0.12954  0.01502  0.22044  Biso   1.000  C
  C524     1.0000 0.27963  0.83799  0.50525  Biso   1.000  C
  C525     1.0000 0.97646  0.69577  0.39442  Biso   1.000  C
  C526     1.0000 0.62981  0.98877  0.31702  Biso   1.000  C
  C527     1.0000 0.78149  0.83388  0.05106  Biso   1.000  C
  C528     1.0000 0.49217  0.68770  0.15103  Biso   1.000  C
  C529     1.0000 0.77113  0.09903  0.03730  Biso   1.000  C
  C530     1.0000 0.98328  0.78131  0.16306  Biso   1.000  C
  C531     1.0000 0.10829  0.95616  0.80856  Biso   1.000  C
  C532     1.0000 0.26923  0.10344  0.52291  Biso   1.000  C
  C533     1.0000 0.48781  0.76300  0.38945  Biso   1.000  C
  C534     1.0000 0.60594  0.97436  0.74009  Biso   1.000  C
  C535     1.0000 0.69237  0.61174  0.04615  Biso   1.000  C
  C536     1.0000 0.49772  0.27450  0.15337  Biso   1.000  C
  C537     1.0000 0.35848  0.47000  0.80691  Biso   1.000  C
  C538     1.0000 0.19091  0.60989  0.50289  Biso   1.000  C
  C539     1.0000 0.98086  0.28597  0.37721  Biso   1.000  C
  C540     1.0000 0.85970  0.49229  0.72396  Biso   1.000  C
  C541     1.0000 0.19692  0.85866  0.02952  Biso   1.000  C
  C542     1.0000 0.98846  0.18584  0.88267  Biso   1.000  C
  C543     1.0000 0.86484  0.99141  0.23509  Biso   1.000  C
  C544     1.0000 0.69903  0.85643  0.51091  Biso   1.000  C
  C545     1.0000 0.48455  0.19274  0.64918  Biso   1.000  C
  C546     1.0000 0.36120  0.98353  0.30062  Biso   1.000  C
  C547     1.0000 0.27409  0.35321  0.02899  Biso   1.000  C
  C548     1.0000 0.50372  0.69195  0.88502  Biso   1.000  C
  C549     1.0000 0.61701  0.49257  0.22958  Biso   1.000  C
  C550     1.0000 0.77318  0.34780  0.52040  Biso   1.000  C
  C551     1.0000 0.99027  0.68417  0.66006  Biso   1.000  C
  C552     1.0000 0.11827  0.47755  0.30859  Biso   1.000  C
  C553     1.0000 0.97814  0.10858  0.80800  Biso   1.000  C
  C554     1.0000 0.78512  0.98720  0.16671  Biso   1.000  C
  C555     1.0000 0.12449  0.77916  0.04107  Biso   1.000  C
  C556     1.0000 0.49107  0.11708  0.72896  Biso   1.000  C
  C557     1.0000 0.28317  0.98381  0.37313  Biso   1.000  C
  C558     1.0000 0.62893  0.77334  0.51258  Biso   1.000  C
  C559     1.0000 0.48515  0.61783  0.81082  Biso   1.000  C
  C560     1.0000 0.69517  0.47663  0.15544  Biso   1.000  C
  C561     1.0000 0.34874  0.27585  0.02249  Biso   1.000  C
  C562     1.0000 0.99768  0.60559  0.73335  Biso   1.000  C
  C563     1.0000 0.19127  0.46944  0.38453  Biso   1.000  C
  C564     1.0000 0.85142  0.27550  0.51486  Biso   1.000  C
  C565     1.0000 0.99160  0.86052  0.23175  Biso   1.000  C
  C566     1.0000 0.19048  0.96350  0.87629  Biso   1.000  C
  C567     1.0000 0.84185  0.17983  0.02092  Biso   1.000  C
  C568     1.0000 0.47804  0.84037  0.31380  Biso   1.000  C
  C569     1.0000 0.68721  0.97907  0.66625  Biso   1.000  C
  C570     1.0000 0.34439  0.18250  0.51729  Biso   1.000  C
  C571     1.0000 0.52024  0.34898  0.22349  Biso   1.000  C
  C572     1.0000 0.27892  0.47906  0.87961  Biso   1.000  C
  C573     1.0000 0.61840  0.68269  0.03153  Biso   1.000  C
  C574     1.0000 0.97253  0.36195  0.30230  Biso   1.000  C
  C575     1.0000 0.77641  0.49085  0.65576  Biso   1.000  C
  C576     1.0000 0.11675  0.68666  0.52274  Biso   1.000  C
  C577     1.0000 0.27427  0.47324  0.11959  Biso   1.000  C
  C578     1.0000 0.08173  0.26855  0.52472  Biso   1.000  C
  C579     1.0000 0.49483  0.07777  0.30591  Biso   1.000  C
  C580     1.0000 0.77521  0.48141  0.41854  Biso   1.000  C
  C581     1.0000 0.58291  0.26628  0.01824  Biso   1.000  C
  C582     1.0000 0.99205  0.09611  0.23050  Biso   1.000  C
  C583     1.0000 0.19939  0.00385  0.10750  Biso   1.000  C
  C584     1.0000 0.38876  0.77005  0.53564  Biso   1.000  C
  C585     1.0000 0.00801  0.59820  0.31256  Biso   1.000  C
  C586     1.0000 0.69703  0.00829  0.42673  Biso   1.000  C
  C587     1.0000 0.89067  0.76432  0.03437  Biso   1.000  C
  C588     1.0000 0.47199  0.58007  0.22689  Biso   1.000  C
  C589     1.0000 0.69778  0.47496  0.92085  Biso   1.000  C
  C590     1.0000 0.88242  0.69258  0.52865  Biso   1.000  C
  C591     1.0000 0.47286  0.88096  0.72950  Biso   1.000  C
  C592     1.0000 0.19397  0.47571  0.61796  Biso   1.000  C
  C593     1.0000 0.38618  0.69417  0.01667  Biso   1.000  C
  C594     1.0000 0.98904  0.87709  0.81635  Biso   1.000  C
  C595     1.0000 0.77234  0.95488  0.93056  Biso   1.000  C
  C596     1.0000 0.58020  0.18869  0.50965  Biso   1.000  C
  C597     1.0000 0.98211  0.36718  0.72645  Biso   1.000  C
  C598     1.0000 0.27591  0.95550  0.61005  Biso   1.000  C
  C599     1.0000 0.07523  0.18692  0.05230  Biso   1.000  C
  C600     1.0000 0.48980  0.38075  0.81213  Biso   1.000  C
  C601     1.0000 0.19368  0.97548  0.90683  Biso   1.000  C
  C602     1.0000 0.87452  0.18228  0.01881  Biso   1.000  C
  C603     1.0000 0.99784  0.89067  0.23157  Biso   1.000  C
  C604     1.0000 0.68733  0.98373  0.63540  Biso   1.000  C
  C605     1.0000 0.37622  0.18213  0.51739  Biso   1.000  C
  C606     1.0000 0.47776  0.87192  0.31358  Biso   1.000  C
  C607     1.0000 0.27769  0.48321  0.91107  Biso   1.000  C
  C608     1.0000 0.58637  0.68423  0.02551  Biso   1.000  C
  C609     1.0000 0.52015  0.38048  0.22153  Biso   1.000  C
  C610     1.0000 0.77301  0.48692  0.62442  Biso   1.000  C
  C611     1.0000 0.08443  0.68564  0.52311  Biso   1.000  C
  C612     1.0000 0.96948  0.39411  0.30155  Biso   1.000  C
  C613     1.0000 0.78258  0.98298  0.13600  Biso   1.000  C
  C614     1.0000 0.09324  0.77805  0.03659  Biso   1.000  C
  C615     1.0000 0.97831  0.07707  0.80828  Biso   1.000  C
  C616     1.0000 0.28197  0.98052  0.40416  Biso   1.000  C
  C617     1.0000 0.59712  0.77294  0.51400  Biso   1.000  C
  C618     1.0000 0.48942  0.08617  0.72952  Biso   1.000  C
  C619     1.0000 0.69588  0.47058  0.12538  Biso   1.000  C
  C620     1.0000 0.38143  0.27548  0.02162  Biso   1.000  C
  C621     1.0000 0.48636  0.58659  0.80891  Biso   1.000  C
  C622     1.0000 0.19160  0.46988  0.41510  Biso   1.000  C
  C623     1.0000 0.88264  0.27723  0.51223  Biso   1.000  C
  C624     1.0000 0.99859  0.57391  0.73319  Biso   1.000  C
  C625     1.0000 0.98369  0.18602  0.91480  Biso   1.000  C
  C626     1.0000 0.89548  0.99106  0.23338  Biso   1.000  C
  C627     1.0000 0.19743  0.88900  0.02544  Biso   1.000  C
  C628     1.0000 0.48394  0.19093  0.61742  Biso   1.000  C
  C629     1.0000 0.39295  0.97893  0.30235  Biso   1.000  C
  C630     1.0000 0.69618  0.88713  0.51614  Biso   1.000  C
  C631     1.0000 0.50592  0.69195  0.91659  Biso   1.000  C
  C632     1.0000 0.58541  0.49733  0.22804  Biso   1.000  C
  C633     1.0000 0.27446  0.38406  0.02655  Biso   1.000  C
  C634     1.0000 0.98745  0.68517  0.62887  Biso   1.000  C
  C635     1.0000 0.08639  0.48216  0.30765  Biso   1.000  C
  C636     1.0000 0.77305  0.38030  0.52068  Biso   1.000  C
  C637     1.0000 0.98312  0.78057  0.13199  Biso   1.000  C
  C638     1.0000 0.07741  0.96265  0.81212  Biso   1.000  C
  C639     1.0000 0.77327  0.06756  0.03670  Biso   1.000  C
  C640     1.0000 0.49035  0.76252  0.42153  Biso   1.000  C
  C641     1.0000 0.57508  0.97579  0.73795  Biso   1.000  C
  C642     1.0000 0.27159  0.07175  0.52487  Biso   1.000  C
  C643     1.0000 0.49220  0.27482  0.12189  Biso   1.000  C
  C644     1.0000 0.39026  0.46898  0.80652  Biso   1.000  C
  C645     1.0000 0.69371  0.58087  0.04296  Biso   1.000  C
  C646     1.0000 0.98614  0.28594  0.40773  Biso   1.000  C
  C647     1.0000 0.89086  0.49227  0.72032  Biso   1.000  C
  C648     1.0000 0.19069  0.57929  0.49981  Biso   1.000  C
  C649     1.0000 0.97688  0.69345  0.42589  Biso   1.000  C
  C650     1.0000 0.37100  0.97544  0.72493  Biso   1.000  C
  C651     1.0000 0.69369  0.37325  0.02782  Biso   1.000  C
  C652     1.0000 0.49077  0.68813  0.12023  Biso   1.000  C
  C653     1.0000 0.87187  0.98469  0.81636  Biso   1.000  C
  C654     1.0000 0.19483  0.37475  0.53298  Biso   1.000  C
  C655     1.0000 0.49396  0.18390  0.41334  Biso   1.000  C
  C656     1.0000 0.08832  0.46051  0.72955  Biso   1.000  C
  C657     1.0000 0.78003  0.86581  0.04880  Biso   1.000  C
  C658     1.0000 0.96572  0.19400  0.11512  Biso   1.000  C
  C659     1.0000 0.59496  0.49643  0.81039  Biso   1.000  C
  C660     1.0000 0.28039  0.86951  0.50164  Biso   1.000  C
  C661     1.0000 0.99024  0.27187  0.61223  Biso   1.000  C
  C662     1.0000 0.59831  0.98309  0.31606  Biso   1.000  C
  C663     1.0000 0.27449  0.59007  0.01099  Biso   1.000  C
  C664     1.0000 0.46326  0.27362  0.91932  Biso   1.000  C
  C665     1.0000 0.09804  0.01167  0.22386  Biso   1.000  C
  C666     1.0000 0.77612  0.58330  0.52047  Biso   1.000  C
  C667     1.0000 0.48969  0.77506  0.62473  Biso   1.000  C
  C668     1.0000 0.88238  0.50402  0.31157  Biso   1.000  C
  C669     1.0000 0.19119  0.09734  0.01184  Biso   1.000  C
  C670     1.0000 0.99227  0.76948  0.92232  Biso   1.000  C
  C671     1.0000 0.38298  0.46783  0.22373  Biso   1.000  C
  C672     1.0000 0.68875  0.08889  0.54049  Biso   1.000  C
  C673     1.0000 0.17278  0.95207  0.81439  Biso   1.000  C
  C674     1.0000 0.77863  0.16215  0.02626  Biso   1.000  C
  C675     1.0000 0.98304  0.79885  0.22123  Biso   1.000  C
  C676     1.0000 0.67035  0.97154  0.72806  Biso   1.000  C
  C677     1.0000 0.28182  0.16748  0.52274  Biso   1.000  C
  C678     1.0000 0.48357  0.77733  0.32616  Biso   1.000  C
  C679     1.0000 0.29343  0.47067  0.82010  Biso   1.000  C
  C680     1.0000 0.67966  0.67154  0.04266  Biso   1.000  C
  C681     1.0000 0.51092  0.28559  0.21251  Biso   1.000  C
  C682     1.0000 0.79539  0.48928  0.71742  Biso   1.000  C
  C683     1.0000 0.18179  0.67125  0.51318  Biso   1.000  C
  C684     1.0000 0.97536  0.29780  0.31596  Biso   1.000  C
  C685     1.0000 0.80279  0.99394  0.22814  Biso   1.000  C
  C686     1.0000 0.18759  0.79697  0.03315  Biso   1.000  C
  C687     1.0000 0.98555  0.17236  0.81944  Biso   1.000  C
  C688     1.0000 0.29819  0.99108  0.31074  Biso   1.000  C
  C689     1.0000 0.68935  0.79167  0.51140  Biso   1.000  C
  C690     1.0000 0.48621  0.18067  0.71568  Biso   1.000  C
  C691     1.0000 0.68020  0.49156  0.21801  Biso   1.000  C
  C692     1.0000 0.28600  0.28955  0.02954  Biso   1.000  C
  C693     1.0000 0.49208  0.68048  0.82509  Biso   1.000  C
  C694     1.0000 0.17842  0.46921  0.32068  Biso   1.000  C
  C695     1.0000 0.78896  0.28534  0.52072  Biso   1.000  C
  C696     1.0000 0.99322  0.67140  0.72113  Biso   1.000  C
  C697     1.0000 0.69000  0.00009  0.33301  Biso   1.000  C
  C698     1.0000 0.29016  0.68418  0.01372  Biso   1.000  C
  C699     1.0000 0.98946  0.27708  0.70838  Biso   1.000  C
  C700     1.0000 0.19139  0.00825  0.20507  Biso   1.000  C
  C701     1.0000 0.79058  0.67744  0.52577  Biso   1.000  C
  C702     1.0000 0.47548  0.28763  0.82378  Biso   1.000  C
  C703     1.0000 0.78862  0.49470  0.32494  Biso   1.000  C
  C704     1.0000 0.17000  0.18341  0.04283  Biso   1.000  C
  C705     1.0000 0.48676  0.78900  0.71644  Biso   1.000  C
  C706     1.0000 0.28874  0.47025  0.21244  Biso   1.000  C
  C707     1.0000 0.67628  0.17900  0.52442  Biso   1.000  C
  C708     1.0000 0.99621  0.78248  0.82764  Biso   1.000  C
  C709     1.0000 0.28031  0.95277  0.70512  Biso   1.000  C
  C710     1.0000 0.67389  0.27578  0.02707  Biso   1.000  C
  C711     1.0000 0.98675  0.68918  0.33188  Biso   1.000  C
  C712     1.0000 0.77899  0.96712  0.83768  Biso   1.000  C
  C713     1.0000 0.17880  0.28168  0.52932  Biso   1.000  C
  C714     1.0000 0.48483  0.67390  0.21417  Biso   1.000  C
  C715     1.0000 0.18203  0.46100  0.71418  Biso   1.000  C
  C716     1.0000 0.79570  0.77422  0.04314  Biso   1.000  C
  C717     1.0000 0.49531  0.17258  0.32045  Biso   1.000  C
  C718     1.0000 0.68581  0.48828  0.82656  Biso   1.000  C
  C719     1.0000 0.29558  0.77590  0.51871  Biso   1.000  C
  C720     1.0000 0.98120  0.19246  0.21148  Biso   1.000  C
  C721     1.0000 0.50219  0.78026  0.30100  Biso   1.000  C
  C722     1.0000 0.29663  0.48530  0.79206  Biso   1.000  C
  C723     1.0000 0.76164  0.28580  0.53909  Biso   1.000  C
  C724     1.0000 0.95991  0.77693  0.22481  Biso   1.000  C
  C725     1.0000 0.77082  0.51009  0.71598  Biso   1.000  C
  C726     1.0000 0.25759  0.29124  0.01487  Biso   1.000  C
  C727     1.0000 0.95657  0.27285  0.32056  Biso   1.000  C
  C728     1.0000 0.20176  0.96611  0.81179  Biso   1.000  C
  C729     1.0000 0.71207  0.79439  0.53287  Biso   1.000  C
  C730     1.0000 0.49950  0.29119  0.24220  Biso   1.000  C
  C731     1.0000 0.69507  0.95270  0.72320  Biso   1.000  C
  C732     1.0000 0.20867  0.79841  0.00863  Biso   1.000  C
  C733     1.0000 0.46972  0.17366  0.74183  Biso   1.000  C
  C734     1.0000 0.67646  0.47802  0.24631  Biso   1.000  C
  C735     1.0000 0.18136  0.70072  0.49952  Biso   1.000  C
  C736     1.0000 0.97160  0.20015  0.82264  Biso   1.000  C
  C737     1.0000 0.20281  0.45009  0.32197  Biso   1.000  C
  C738     1.0000 0.69988  0.67040  0.06799  Biso   1.000  C
  C739     1.0000 0.01187  0.66981  0.74760  Biso   1.000  C
  C740     1.0000 0.77526  0.97779  0.22957  Biso   1.000  C
  C741     1.0000 0.25498  0.16472  0.50613  Biso   1.000  C
  C742     1.0000 0.50782  0.67816  0.79849  Biso   1.000  C
  C743     1.0000 0.27146  0.97493  0.31116  Biso   1.000  C
  C744     1.0000 0.78263  0.19128  0.03867  Biso   1.000  C
  C745     1.0000 0.99826  0.71839  0.33681  Biso   1.000  C
  C746     1.0000 0.24897  0.95936  0.69965  Biso   1.000  C
  C747     1.0000 0.69526  0.27237  0.04854  Biso   1.000  C
  C748     1.0000 0.50809  0.69640  0.21507  Biso   1.000  C
  C749     1.0000 0.78421  0.95462  0.80924  Biso   1.000  C
  C750     1.0000 0.20490  0.28271  0.54681  Biso   1.000  C
  C751     1.0000 0.51682  0.17223  0.29742  Biso   1.000  C
  C752     1.0000 0.21112  0.44669  0.70954  Biso   1.000  C
  C753     1.0000 0.76959  0.77909  0.02750  Biso   1.000  C
  C754     1.0000 0.00017  0.19016  0.23680  Biso   1.000  C
  C755     1.0000 0.68437  0.47253  0.79949  Biso   1.000  C
  C756     1.0000 0.26759  0.77944  0.53236  Biso   1.000  C
  C757     1.0000 0.97603  0.24894  0.70320  Biso   1.000  C
  C758     1.0000 0.68850  0.01523  0.30576  Biso   1.000  C
  C759     1.0000 0.26222  0.67974  0.03000  Biso   1.000  C
  C760     1.0000 0.49800  0.28952  0.80146  Biso   1.000  C
  C761     1.0000 0.22026  0.02069  0.20132  Biso   1.000  C
  C762     1.0000 0.79594  0.70550  0.50929  Biso   1.000  C
  C763     1.0000 0.46518  0.78680  0.74080  Biso   1.000  C
  C764     1.0000 0.76202  0.51054  0.32988  Biso   1.000  C
  C765     1.0000 0.19907  0.17658  0.05298  Biso   1.000  C
  C766     1.0000 0.98027  0.78694  0.80219  Biso   1.000  C
  C767     1.0000 0.29104  0.49083  0.23637  Biso   1.000  C
  C768     1.0000 0.68197  0.19868  0.49981  Biso   1.000  C
  C769     1.0000 0.47513  0.70712  0.82930  Biso   1.000  C
  C770     1.0000 0.79648  0.47233  0.74514  Biso   1.000  C
  C771     1.0000 0.68920  0.76414  0.49413  Biso   1.000  C
  C772     1.0000 0.97456  0.69577  0.72039  Biso   1.000  C
  C773     1.0000 0.26628  0.45390  0.82504  Biso   1.000  C
  C774     1.0000 0.19012  0.77464  0.05521  Biso   1.000  C
  C775     1.0000 0.00120  0.16507  0.79320  Biso   1.000  C
  C776     1.0000 0.66716  0.98678  0.75506  Biso   1.000  C
  C777     1.0000 0.79090  0.25911  0.50212  Biso   1.000  C
  C778     1.0000 0.49893  0.21001  0.71218  Biso   1.000  C
  C779     1.0000 0.16740  0.93146  0.79229  Biso   1.000  C
  C780     1.0000 0.28934  0.26271  0.04643  Biso   1.000  C
  C781     1.0000 0.52096  0.25631  0.20775  Biso   1.000  C
  C782     1.0000 0.18048  0.49174  0.29778  Biso   1.000  C
  C783     1.0000 0.28449  0.19086  0.54228  Biso   1.000  C
  C784     1.0000 0.99505  0.30062  0.29096  Biso   1.000  C
  C785     1.0000 0.70710  0.50795  0.21283  Biso   1.000  C
  C786     1.0000 0.75062  0.15629  0.01199  Biso   1.000  C
  C787     1.0000 0.00516  0.79969  0.24385  Biso   1.000  C
  C788     1.0000 0.30519  0.01221  0.28775  Biso   1.000  C
  C789     1.0000 0.20784  0.66379  0.52821  Biso   1.000  C
  C790     1.0000 0.46699  0.74924  0.32981  Biso   1.000  C
  C791     1.0000 0.80787  0.01429  0.25118  Biso   1.000  C
  C792     1.0000 0.68483  0.69493  0.02084  Biso   1.000  C
  C793     1.0000 0.47771  0.19929  0.32118  Biso   1.000  C
  C794     1.0000 0.26577  0.44636  0.21470  Biso   1.000  C
  C795     1.0000 0.17524  0.25849  0.50819  Biso   1.000  C
  C796     1.0000 0.96346  0.21785  0.20784  Biso   1.000  C
  C797     1.0000 0.79146  0.48124  0.29646  Biso   1.000  C
  C798     1.0000 0.67478  0.25380  0.00334  Biso   1.000  C
  C799     1.0000 0.97173  0.68483  0.30305  Biso   1.000  C
  C800     1.0000 0.18590  0.99218  0.23198  Biso   1.000  C
  C801     1.0000 0.30181  0.74803  0.50553  Biso   1.000  C
  C802     1.0000 0.46168  0.67505  0.23603  Biso   1.000  C
  C803     1.0000 0.71828  0.98745  0.33968  Biso   1.000  C
  C804     1.0000 0.79728  0.74802  0.05926  Biso   1.000  C
  C805     1.0000 0.51110  0.76904  0.71664  Biso   1.000  C
  C806     1.0000 0.71040  0.50672  0.83196  Biso   1.000  C
  C807     1.0000 0.76272  0.67430  0.54034  Biso   1.000  C
  C808     1.0000 0.01361  0.75548  0.82961  Biso   1.000  C
  C809     1.0000 0.17782  0.47420  0.74312  Biso   1.000  C
  C810     1.0000 0.29563  0.71315  0.00032  Biso   1.000  C
  C811     1.0000 0.00670  0.28057  0.73400  Biso   1.000  C
  C812     1.0000 0.74969  0.97745  0.84310  Biso   1.000  C
  C813     1.0000 0.69693  0.17933  0.54833  Biso   1.000  C
  C814     1.0000 0.45464  0.26269  0.82439  Biso   1.000  C
  C815     1.0000 0.28653  0.93704  0.73303  Biso   1.000  C
  C816     1.0000 0.16610  0.21289  0.03450  Biso   1.000  C
  C817     1.0000 0.97418  0.21857  0.79940  Biso   1.000  C
  C818     1.0000 0.75441  0.98169  0.25118  Biso   1.000  C
  C819     1.0000 0.22839  0.77637  0.00540  Biso   1.000  C
  C820     1.0000 0.46979  0.19290  0.76425  Biso   1.000  C
  C821     1.0000 0.25333  0.97738  0.28856  Biso   1.000  C
  C822     1.0000 0.73033  0.77183  0.53870  Biso   1.000  C
  C823     1.0000 0.50596  0.69974  0.77755  Biso   1.000  C
  C824     1.0000 0.69764  0.48102  0.26691  Biso   1.000  C
  C825     1.0000 0.23525  0.27109  0.01986  Biso   1.000  C
  C826     1.0000 0.01318  0.69229  0.76728  Biso   1.000  C
  C827     1.0000 0.22373  0.44869  0.30031  Biso   1.000  C
  C828     1.0000 0.74213  0.26316  0.54099  Biso   1.000  C
  C829     1.0000 0.95939  0.75679  0.24704  Biso   1.000  C
  C830     1.0000 0.22196  0.95928  0.79104  Biso   1.000  C
  C831     1.0000 0.76171  0.21219  0.03531  Biso   1.000  C
  C832     1.0000 0.50257  0.76123  0.27904  Biso   1.000  C
  C833     1.0000 0.71508  0.95061  0.74458  Biso   1.000  C
  C834     1.0000 0.23513  0.18827  0.50970  Biso   1.000  C
  C835     1.0000 0.49947  0.26985  0.26322  Biso   1.000  C
  C836     1.0000 0.27561  0.48392  0.77055  Biso   1.000  C
  C837     1.0000 0.72365  0.68964  0.06677  Biso   1.000  C
  C838     1.0000 0.95720  0.25103  0.29957  Biso   1.000  C
  C839     1.0000 0.75082  0.51255  0.73878  Biso   1.000  C
  C840     1.0000 0.20504  0.71979  0.50070  Biso   1.000  C
  C841     1.0000 0.18573  0.92800  0.76769  Biso   1.000  C
  C842     1.0000 0.72985  0.17775  0.01171  Biso   1.000  C
  C843     1.0000 0.00213  0.77970  0.26651  Biso   1.000  C
  C844     1.0000 0.69026  0.98462  0.77544  Biso   1.000  C
  C845     1.0000 0.26562  0.21427  0.54306  Biso   1.000  C
  C846     1.0000 0.46827  0.73097  0.30664  Biso   1.000  C
  C847     1.0000 0.24658  0.45033  0.80354  Biso   1.000  C
  C848     1.0000 0.70784  0.71340  0.02381  Biso   1.000  C
  C849     1.0000 0.51954  0.23475  0.22940  Biso   1.000  C
  C850     1.0000 0.77689  0.47584  0.76716  Biso   1.000  C
  C851     1.0000 0.23084  0.68316  0.52853  Biso   1.000  C
  C852     1.0000 0.99510  0.27922  0.27023  Biso   1.000  C
  C853     1.0000 0.78601  0.01860  0.27173  Biso   1.000  C
  C854     1.0000 0.21147  0.75402  0.05121  Biso   1.000  C
  C855     1.0000 0.00427  0.18526  0.77112  Biso   1.000  C
  C856     1.0000 0.28392  0.01551  0.26689  Biso   1.000  C
  C857     1.0000 0.70775  0.74159  0.50149  Biso   1.000  C
  C858     1.0000 0.49672  0.22934  0.73456  Biso   1.000  C
  C859     1.0000 0.72787  0.50945  0.23333  Biso   1.000  C
  C860     1.0000 0.26811  0.24056  0.04853  Biso   1.000  C
  C861     1.0000 0.47405  0.72764  0.80858  Biso   1.000  C
  C862     1.0000 0.20285  0.49093  0.27685  Biso   1.000  C
  C863     1.0000 0.76974  0.23696  0.50549  Biso   1.000  C
  C864     1.0000 0.97610  0.71825  0.73959  Biso   1.000  C
  C865     1.0000 0.70588  0.47549  0.77823  Biso   1.000  C
  C866     1.0000 0.77486  0.72741  0.51111  Biso   1.000  C
  C867     1.0000 0.46778  0.76498  0.76098  Biso   1.000  C
  C868     1.0000 0.23350  0.44797  0.73028  Biso   1.000  C
  C869     1.0000 0.24447  0.70434  0.03294  Biso   1.000  C
  C870     1.0000 0.98095  0.76569  0.78100  Biso   1.000  C
  C871     1.0000 0.76353  0.95528  0.78816  Biso   1.000  C
  C872     1.0000 0.70616  0.21772  0.50043  Biso   1.000  C
  C873     1.0000 0.97511  0.22861  0.72610  Biso   1.000  C
  C874     1.0000 0.22856  0.95376  0.72002  Biso   1.000  C
  C875     1.0000 0.22140  0.19587  0.04918  Biso   1.000  C
  C876     1.0000 0.49999  0.26627  0.78173  Biso   1.000  C
  C877     1.0000 0.27111  0.48911  0.25929  Biso   1.000  C
  C878     1.0000 0.22552  0.26028  0.54440  Biso   1.000  C
  C879     1.0000 0.51875  0.19302  0.27572  Biso   1.000  C
  C880     1.0000 0.74014  0.51094  0.30900  Biso   1.000  C
  C881     1.0000 0.71279  0.24793  0.04860  Biso   1.000  C
  C882     1.0000 0.99842  0.21018  0.25906  Biso   1.000  C
  C883     1.0000 0.24263  0.01759  0.22089  Biso   1.000  C
  C884     1.0000 0.24599  0.75675  0.53100  Biso   1.000  C
  C885     1.0000 0.99596  0.74035  0.31452  Biso   1.000  C
  C886     1.0000 0.71209  0.01834  0.28709  Biso   1.000  C
  C887     1.0000 0.74602  0.75879  0.03026  Biso   1.000  C
  C888     1.0000 0.50885  0.71550  0.23777  Biso   1.000  C
  C889     1.0000 0.74230  0.99042  0.32123  Biso   1.000  C
  C890     1.0000 0.27557  0.73484  0.00234  Biso   1.000  C
  C891     1.0000 0.00752  0.25952  0.75540  Biso   1.000  C
  C892     1.0000 0.20872  0.99046  0.25179  Biso   1.000  C
  C893     1.0000 0.74386  0.69761  0.54202  Biso   1.000  C
  C894     1.0000 0.45672  0.24181  0.80292  Biso   1.000  C
  C895     1.0000 0.76964  0.48163  0.27643  Biso   1.000  C
  C896     1.0000 0.18849  0.23312  0.03348  Biso   1.000  C
  C897     1.0000 0.51173  0.74701  0.73758  Biso   1.000  C
  C898     1.0000 0.24343  0.44911  0.23701  Biso   1.000  C
  C899     1.0000 0.71855  0.20092  0.54747  Biso   1.000  C
  C900     1.0000 0.01477  0.73563  0.80801  Biso   1.000  C
  C901     1.0000 0.26312  0.93039  0.75178  Biso   1.000  C
  C902     1.0000 0.69392  0.23017  0.00225  Biso   1.000  C
  C903     1.0000 0.97049  0.70809  0.28389  Biso   1.000  C
  C904     1.0000 0.72955  0.97670  0.82077  Biso   1.000  C
  C905     1.0000 0.19478  0.23601  0.50779  Biso   1.000  C
  C906     1.0000 0.46248  0.69514  0.25761  Biso   1.000  C
  C907     1.0000 0.20104  0.47654  0.76217  Biso   1.000  C
  C908     1.0000 0.77463  0.72855  0.06145  Biso   1.000  C
  C909     1.0000 0.48206  0.22173  0.30104  Biso   1.000  C
  C910     1.0000 0.73206  0.50862  0.80995  Biso   1.000  C
  C911     1.0000 0.28029  0.72642  0.50622  Biso   1.000  C
  C912     1.0000 0.96293  0.23785  0.22978  Biso   1.000  C
  C913     1.0000 0.75301  0.49527  0.76380  Biso   1.000  C
  C914     1.0000 0.72707  0.74481  0.52495  Biso   1.000  C
  C915     1.0000 0.49170  0.72579  0.78352  Biso   1.000  C
  C916     1.0000 0.25182  0.46470  0.77712  Biso   1.000  C
  C917     1.0000 0.23059  0.75428  0.02713  Biso   1.000  C
  C918     1.0000 0.99568  0.71640  0.76248  Biso   1.000  C
  C919     1.0000 0.71302  0.96678  0.77003  Biso   1.000  C
  C920     1.0000 0.74538  0.24069  0.52218  Biso   1.000  C
  C921     1.0000 0.98890  0.21072  0.77355  Biso   1.000  C
  C922     1.0000 0.21387  0.94010  0.76900  Biso   1.000  C
  C923     1.0000 0.24124  0.24568  0.03630  Biso   1.000  C
  C924     1.0000 0.48280  0.21989  0.76047  Biso   1.000  C
  C925     1.0000 0.22295  0.46982  0.27947  Biso   1.000  C
  C926     1.0000 0.24163  0.21513  0.52522  Biso   1.000  C
  C927     1.0000 0.50732  0.24156  0.25708  Biso   1.000  C
  C928     1.0000 0.72255  0.49672  0.26055  Biso   1.000  C
  C929     1.0000 0.73456  0.20523  0.02414  Biso   1.000  C
  C930     1.0000 0.97826  0.25457  0.27630  Biso   1.000  C
  C931     1.0000 0.25912  0.99772  0.26716  Biso   1.000  C
  C932     1.0000 0.22942  0.71067  0.51477  Biso   1.000  C
  C933     1.0000 0.98147  0.75769  0.26713  Biso   1.000  C
  C934     1.0000 0.75967  0.00348  0.27180  Biso   1.000  C
  C935     1.0000 0.72686  0.71131  0.04492  Biso   1.000  C
  C936     1.0000 0.48631  0.73555  0.28299  Biso   1.000  C
  C937     1.0000 0.71256  0.22848  0.02457  Biso   1.000  C
  C938     1.0000 0.98265  0.73478  0.28890  Biso   1.000  C
  C939     1.0000 0.23490  0.93825  0.74557  Biso   1.000  C
  C940     1.0000 0.21910  0.23712  0.52643  Biso   1.000  C
  C941     1.0000 0.48604  0.71326  0.25893  Biso   1.000  C
  C942     1.0000 0.73573  0.96549  0.79309  Biso   1.000  C
  C943     1.0000 0.74943  0.73355  0.04674  Biso   1.000  C
  C944     1.0000 0.50205  0.21819  0.27934  Biso   1.000  C
  C945     1.0000 0.22807  0.46339  0.75642  Biso   1.000  C
  C946     1.0000 0.25351  0.73105  0.51881  Biso   1.000  C
  C947     1.0000 0.98023  0.23322  0.25366  Biso   1.000  C
  C948     1.0000 0.72916  0.49348  0.78373  Biso   1.000  C
  C949     1.0000 0.25185  0.73214  0.02155  Biso   1.000  C
  C950     1.0000 0.99097  0.23388  0.75172  Biso   1.000  C
  C951     1.0000 0.73820  0.00638  0.29605  Biso   1.000  C
  C952     1.0000 0.74965  0.72331  0.52756  Biso   1.000  C
  C953     1.0000 0.47984  0.24285  0.78222  Biso   1.000  C
  C954     1.0000 0.23657  0.00212  0.24627  Biso   1.000  C
  C955     1.0000 0.21603  0.22478  0.04138  Biso   1.000  C
  C956     1.0000 0.49087  0.74654  0.75959  Biso   1.000  C
  C957     1.0000 0.74431  0.49705  0.28303  Biso   1.000  C
  C958     1.0000 0.72320  0.21890  0.52413  Biso   1.000  C
  C959     1.0000 0.99699  0.73932  0.78351  Biso   1.000  C
  C960     1.0000 0.24655  0.47044  0.25830  Biso   1.000  C
  Cu1      1.0000 0.99067  0.47546  0.67253  Biso   1.000  Cu
  Cu2      1.0000 0.64068  0.98554  0.52668  Biso   1.000  Cu
  Cu3      1.0000 0.48194  0.63446  0.02054  Biso   1.000  Cu
  Cu4      1.0000 0.49031  0.48007  0.86409  Biso   1.000  Cu
  Cu5      1.0000 0.14036  0.99185  0.01059  Biso   1.000  Cu
  Cu6      1.0000 0.98072  0.63592  0.52572  Biso   1.000  Cu
  Cu7      1.0000 0.47626  0.98495  0.67507  Biso   1.000  Cu
  Cu8      1.0000 0.82849  0.48305  0.52249  Biso   1.000  Cu
  Cu9      1.0000 0.97710  0.13286  0.02026  Biso   1.000  Cu
  Cu10     1.0000 0.97573  0.97718  0.86606  Biso   1.000  Cu
  Cu11     1.0000 0.32864  0.48788  0.01453  Biso   1.000  Cu
  Cu12     1.0000 0.48162  0.13072  0.51895  Biso   1.000  Cu
  Cu13     1.0000 0.98437  0.49112  0.36212  Biso   1.000  Cu
  Cu14     1.0000 0.33400  0.97264  0.50986  Biso   1.000  Cu
  Cu15     1.0000 0.48166  0.32926  0.01758  Biso   1.000  Cu
  Cu16     1.0000 0.48607  0.48146  0.17194  Biso   1.000  Cu
  Cu17     1.0000 0.83069  0.97066  0.03099  Biso   1.000  Cu
  Cu18     1.0000 0.98462  0.33509  0.51373  Biso   1.000  Cu
  Cu19     1.0000 0.49370  0.97474  0.36144  Biso   1.000  Cu
  Cu20     1.0000 0.13831  0.47587  0.52023  Biso   1.000  Cu
  Cu21     1.0000 0.98868  0.82608  0.02544  Biso   1.000  Cu
  Cu22     1.0000 0.99519  0.99386  0.17437  Biso   1.000  Cu
  Cu23     1.0000 0.64073  0.47504  0.02272  Biso   1.000  Cu
  Cu24     1.0000 0.49276  0.82583  0.52124  Biso   1.000  Cu
  Cu25     1.0000 0.19438  0.99296  0.00928  Biso   1.000  Cu
  Cu26     1.0000 0.97521  0.18779  0.01673  Biso   1.000  Cu
  Cu27     1.0000 0.99745  0.99174  0.22835  Biso   1.000  Cu
  Cu28     1.0000 0.69424  0.98825  0.53061  Biso   1.000  Cu
  Cu29     1.0000 0.47920  0.18371  0.51500  Biso   1.000  Cu
  Cu30     1.0000 0.49532  0.97356  0.30769  Biso   1.000  Cu
  Cu31     1.0000 0.27493  0.48638  0.01247  Biso   1.000  Cu
  Cu32     1.0000 0.48542  0.68997  0.01839  Biso   1.000  Cu
  Cu33     1.0000 0.48626  0.47978  0.22635  Biso   1.000  Cu
  Cu34     1.0000 0.77497  0.48472  0.52159  Biso   1.000  Cu
  Cu35     1.0000 0.98489  0.68904  0.52724  Biso   1.000  Cu
  Cu36     1.0000 0.98322  0.49656  0.30854  Biso   1.000  Cu
  Cu37     1.0000 0.77589  0.96669  0.03671  Biso   1.000  Cu
  Cu38     1.0000 0.99198  0.77299  0.02945  Biso   1.000  Cu
  Cu39     1.0000 0.97651  0.97609  0.81150  Biso   1.000  Cu
  Cu40     1.0000 0.27785  0.97093  0.51100  Biso   1.000  Cu
  Cu41     1.0000 0.49103  0.77207  0.52517  Biso   1.000  Cu
  Cu42     1.0000 0.47485  0.98347  0.72889  Biso   1.000  Cu
  Cu43     1.0000 0.69421  0.47666  0.02029  Biso   1.000  Cu
  Cu44     1.0000 0.48139  0.27512  0.02130  Biso   1.000  Cu
  Cu45     1.0000 0.49267  0.48175  0.80966  Biso   1.000  Cu
  Cu46     1.0000 0.19119  0.47889  0.51780  Biso   1.000  Cu
  Cu47     1.0000 0.98109  0.27931  0.50692  Biso   1.000  Cu
  Cu48     1.0000 0.98637  0.47105  0.72549  Biso   1.000  Cu
  H1       1.0000 0.22457  0.76007  0.54131  Biso   1.000  H
  H2       1.0000 0.51868  0.26827  0.76688  Biso   1.000  H
  H3       1.0000 0.72011  0.52255  0.31317  Biso   1.000  H
  H4       1.0000 0.72633  0.76327  0.01715  Biso   1.000  H
  H5       1.0000 0.96297  0.20850  0.72435  Biso   1.000  H
  H6       1.0000 0.27348  0.50639  0.27568  Biso   1.000  H
  H7       1.0000 0.24644  0.26319  0.55628  Biso   1.000  H
  H8       1.0000 0.96686  0.77047  0.76304  Biso   1.000  H
  H9       1.0000 0.71103  0.02678  0.26436  Biso   1.000  H
  H10      1.0000 0.72640  0.24355  0.06707  Biso   1.000  H
  H11      1.0000 0.44906  0.76218  0.77685  Biso   1.000  H
  H12      1.0000 0.26340  0.02772  0.21500  Biso   1.000  H
  H13      1.0000 0.71125  0.23247  0.48314  Biso   1.000  H
  H14      1.0000 0.52859  0.73035  0.24030  Biso   1.000  H
  H15      1.0000 0.25522  0.43974  0.72619  Biso   1.000  H
  H16      1.0000 0.24209  0.18686  0.05453  Biso   1.000  H
  H17      1.0000 0.00590  0.76041  0.32069  Biso   1.000  H
  H18      1.0000 0.70538  0.46337  0.75836  Biso   1.000  H
  H19      1.0000 0.77845  0.74737  0.49895  Biso   1.000  H
  H20      1.0000 0.01088  0.21065  0.27877  Biso   1.000  H
  H21      1.0000 0.20522  0.96154  0.71930  Biso   1.000  H
  H22      1.0000 0.22429  0.70259  0.04455  Biso   1.000  H
  H23      1.0000 0.53635  0.19178  0.25978  Biso   1.000  H
  H24      1.0000 0.77046  0.94438  0.76817  Biso   1.000  H
  H25      1.0000 0.24319  0.96861  0.79027  Biso   1.000  H
  H26      1.0000 0.76771  0.23458  0.04008  Biso   1.000  H
  H27      1.0000 0.94133  0.74048  0.24759  Biso   1.000  H
  H28      1.0000 0.73288  0.93641  0.74155  Biso   1.000  H
  H29      1.0000 0.21308  0.18532  0.50023  Biso   1.000  H
  H30      1.0000 0.51677  0.76564  0.25849  Biso   1.000  H
  H31      1.0000 0.27672  0.49398  0.74894  Biso   1.000  H
  H32      1.0000 0.73936  0.69066  0.08490  Biso   1.000  H
  H33      1.0000 0.49132  0.27370  0.28429  Biso   1.000  H
  H34      1.0000 0.73296  0.52874  0.73727  Biso   1.000  H
  H35      1.0000 0.20476  0.73923  0.48844  Biso   1.000  H
  H36      1.0000 0.94704  0.22943  0.30354  Biso   1.000  H
  H37      1.0000 0.73597  0.96767  0.25441  Biso   1.000  H
  H38      1.0000 0.24073  0.77483  0.98593  Biso   1.000  H
  H39      1.0000 0.96796  0.24092  0.79859  Biso   1.000  H
  H40      1.0000 0.23377  0.96165  0.28812  Biso   1.000  H
  H41      1.0000 0.74542  0.77663  0.55761  Biso   1.000  H
  H42      1.0000 0.45767  0.18562  0.78483  Biso   1.000  H
  H43      1.0000 0.69463  0.46872  0.28807  Biso   1.000  H
  H44      1.0000 0.21376  0.27397  0.01086  Biso   1.000  H
  H45      1.0000 0.51857  0.69451  0.75608  Biso   1.000  H
  H46      1.0000 0.24175  0.43212  0.30086  Biso   1.000  H
  H47      1.0000 0.72311  0.26431  0.55553  Biso   1.000  H
  H48      1.0000 0.02766  0.69261  0.78544  Biso   1.000  H
  H49      1.0000 0.20350  0.50726  0.25890  Biso   1.000  H
  H50      1.0000 0.26728  0.23037  0.55968  Biso   1.000  H
  H51      1.0000 0.52476  0.21300  0.22309  Biso   1.000  H
  H52      1.0000 0.74662  0.52450  0.22971  Biso   1.000  H
  H53      1.0000 0.70960  0.17491  0.00012  Biso   1.000  H
  H54      1.0000 0.00857  0.27959  0.25118  Biso   1.000  H
  H55      1.0000 0.28821  0.03351  0.25245  Biso   1.000  H
  H56      1.0000 0.24993  0.67837  0.54236  Biso   1.000  H
  H57      1.0000 0.01835  0.78034  0.28405  Biso   1.000  H
  H58      1.0000 0.79004  0.03420  0.28938  Biso   1.000  H
  H59      1.0000 0.70942  0.72886  0.00805  Biso   1.000  H
  H60      1.0000 0.45503  0.71113  0.30983  Biso   1.000  H
  H61      1.0000 0.77980  0.46549  0.78828  Biso   1.000  H
  H62      1.0000 0.70812  0.72062  0.48769  Biso   1.000  H
  H63      1.0000 0.46041  0.74643  0.81294  Biso   1.000  H
  H64      1.0000 0.22821  0.43626  0.80532  Biso   1.000  H
  H65      1.0000 0.21272  0.73782  0.06904  Biso   1.000  H
  H66      1.0000 0.96155  0.73771  0.73733  Biso   1.000  H
  H67      1.0000 0.68904  0.99843  0.79354  Biso   1.000  H
  H68      1.0000 0.77105  0.21748  0.49373  Biso   1.000  H
  H69      1.0000 0.01655  0.18140  0.75014  Biso   1.000  H
  H70      1.0000 0.18204  0.91735  0.74675  Biso   1.000  H
  H71      1.0000 0.26818  0.22009  0.06202  Biso   1.000  H
  H72      1.0000 0.50654  0.25122  0.73201  Biso   1.000  H
  H73      1.0000 0.75134  0.52282  0.81245  Biso   1.000  H
  H74      1.0000 0.72248  0.69504  0.55322  Biso   1.000  H
  H75      1.0000 0.53120  0.73298  0.73606  Biso   1.000  H
  H76      1.0000 0.19730  0.48749  0.78458  Biso   1.000  H
  H77      1.0000 0.27961  0.75598  0.99028  Biso   1.000  H
  H78      1.0000 0.02498  0.71456  0.81546  Biso   1.000  H
  H79      1.0000 0.70759  0.98245  0.82754  Biso   1.000  H
  H80      1.0000 0.73354  0.20380  0.56697  Biso   1.000  H
  H81      1.0000 0.02014  0.25986  0.77434  Biso   1.000  H
  H82      1.0000 0.26480  0.91747  0.77197  Biso   1.000  H
  H83      1.0000 0.18359  0.25394  0.02616  Biso   1.000  H
  H84      1.0000 0.44110  0.22400  0.80025  Biso   1.000  H
  H85      1.0000 0.22493  0.43489  0.23764  Biso   1.000  H
  H86      1.0000 0.18892  0.21956  0.49168  Biso   1.000  H
  H87      1.0000 0.47016  0.24162  0.30505  Biso   1.000  H
  H88      1.0000 0.77058  0.47112  0.25604  Biso   1.000  H
  H89      1.0000 0.69835  0.21510  0.98385  Biso   1.000  H
  H90      1.0000 0.95036  0.25840  0.22790  Biso   1.000  H
  H91      1.0000 0.20180  0.97968  0.27270  Biso   1.000  H
  H92      1.0000 0.28558  0.70524  0.49702  Biso   1.000  H
  H93      1.0000 0.95928  0.70430  0.26332  Biso   1.000  H
  H94      1.0000 0.76205  0.97976  0.32569  Biso   1.000  H
  H95      1.0000 0.77799  0.71018  0.07529  Biso   1.000  H
  H96      1.0000 0.44308  0.69466  0.27224  Biso   1.000  H
  H97      1.0000 0.84561  0.97129  0.93757  Biso   1.000  H
  H98      1.0000 0.89873  0.84041  0.03932  Biso   1.000  H
  H99      1.0000 0.97872  0.88433  0.89118  Biso   1.000  H
  H100     1.0000 0.35353  0.96346  0.60354  Biso   1.000  H
  H101     1.0000 0.39729  0.84779  0.52669  Biso   1.000  H
  H102     1.0000 0.48089  0.89433  0.65275  Biso   1.000  H
  H103     1.0000 0.62148  0.48080  0.93041  Biso   1.000  H
  H104     1.0000 0.57559  0.34288  0.01323  Biso   1.000  H
  H105     1.0000 0.48322  0.39049  0.88834  Biso   1.000  H
  H106     1.0000 0.11636  0.48358  0.61199  Biso   1.000  H
  H107     1.0000 0.07555  0.34581  0.51696  Biso   1.000  H
  H108     1.0000 0.98734  0.38391  0.65024  Biso   1.000  H
  H109     1.0000 0.12316  0.00464  0.10424  Biso   1.000  H
  H110     1.0000 0.06777  0.11805  0.02138  Biso   1.000  H
  H111     1.0000 0.98025  0.08287  0.15728  Biso   1.000  H
  H112     1.0000 0.62262  0.99279  0.43674  Biso   1.000  H
  H113     1.0000 0.57033  0.11287  0.51802  Biso   1.000  H
  H114     1.0000 0.48183  0.07010  0.38133  Biso   1.000  H
  H115     1.0000 0.34932  0.47415  0.10334  Biso   1.000  H
  H116     1.0000 0.39389  0.61867  0.01232  Biso   1.000  H
  H117     1.0000 0.48108  0.57013  0.15301  Biso   1.000  H
  H118     1.0000 0.84839  0.49107  0.42912  Biso   1.000  H
  H119     1.0000 0.89568  0.61780  0.52173  Biso   1.000  H
  H120     1.0000 0.99842  0.57513  0.38498  Biso   1.000  H
  H121     1.0000 0.07095  0.97678  0.88654  Biso   1.000  H
  H122     1.0000 0.84596  0.06213  0.01155  Biso   1.000  H
  H123     1.0000 0.98853  0.85309  0.11009  Biso   1.000  H
  H124     1.0000 0.57164  0.98877  0.66171  Biso   1.000  H
  H125     1.0000 0.34925  0.06545  0.52211  Biso   1.000  H
  H126     1.0000 0.49282  0.83603  0.43260  Biso   1.000  H
  H127     1.0000 0.39788  0.48025  0.88135  Biso   1.000  H
  H128     1.0000 0.61797  0.56724  0.02468  Biso   1.000  H
  H129     1.0000 0.49770  0.35402  0.10917  Biso   1.000  H
  H130     1.0000 0.89712  0.47810  0.64708  Biso   1.000  H
  H131     1.0000 0.11661  0.56606  0.50831  Biso   1.000  H
  H132     1.0000 0.97726  0.36073  0.41918  Biso   1.000  H
  H133     1.0000 0.90530  0.97958  0.15908  Biso   1.000  H
  H134     1.0000 0.12271  0.90123  0.02758  Biso   1.000  H
  H135     1.0000 0.97473  0.11271  0.92575  Biso   1.000  H
  H136     1.0000 0.39795  0.97187  0.37858  Biso   1.000  H
  H137     1.0000 0.62058  0.89141  0.51542  Biso   1.000  H
  H138     1.0000 0.47592  0.11574  0.61358  Biso   1.000  H
  H139     1.0000 0.57635  0.48306  0.15595  Biso   1.000  H
  H140     1.0000 0.34995  0.39661  0.02682  Biso   1.000  H
  H141     1.0000 0.49443  0.61597  0.93150  Biso   1.000  H
  H142     1.0000 0.07158  0.47269  0.38262  Biso   1.000  H
  H143     1.0000 0.84756  0.39224  0.52181  Biso   1.000  H
  H144     1.0000 0.98903  0.61096  0.61247  Biso   1.000  H
  H145     1.0000 0.57959  0.48576  0.88643  Biso   1.000  H
  H146     1.0000 0.84972  0.57134  0.51046  Biso   1.000  H
  H147     1.0000 0.48516  0.85001  0.61113  Biso   1.000  H
  H148     1.0000 0.07698  0.46386  0.65331  Biso   1.000  H
  H149     1.0000 0.34980  0.57519  0.01273  Biso   1.000  H
  H150     1.0000 0.97989  0.84412  0.93462  Biso   1.000  H
  H151     1.0000 0.88736  0.98315  0.89005  Biso   1.000  H
  H152     1.0000 0.61421  0.07368  0.53659  Biso   1.000  H
  H153     1.0000 0.98384  0.34612  0.60694  Biso   1.000  H
  H154     1.0000 0.39285  0.96936  0.65273  Biso   1.000  H
  H155     1.0000 0.11752  0.08024  0.01020  Biso   1.000  H
  H156     1.0000 0.47142  0.34957  0.93031  Biso   1.000  H
  H157     1.0000 0.39381  0.47203  0.14783  Biso   1.000  H
  H158     1.0000 0.12140  0.38907  0.52869  Biso   1.000  H
  H159     1.0000 0.48343  0.10874  0.42480  Biso   1.000  H
  H160     1.0000 0.89258  0.49369  0.38685  Biso   1.000  H
  H161     1.0000 0.62027  0.38389  0.01236  Biso   1.000  H
  H162     1.0000 0.96966  0.11737  0.11553  Biso   1.000  H
  H163     1.0000 0.08345  0.00363  0.14891  Biso   1.000  H
  H164     1.0000 0.35073  0.88561  0.52119  Biso   1.000  H
  H165     1.0000 0.98403  0.61692  0.43058  Biso   1.000  H
  H166     1.0000 0.58064  0.98575  0.39136  Biso   1.000  H
  H167     1.0000 0.85449  0.88069  0.03707  Biso   1.000  H
  H168     1.0000 0.48107  0.61543  0.10932  Biso   1.000  H
  H169     1.0000 0.97602  0.06692  0.88348  Biso   1.000  H
  H170     1.0000 0.85634  0.97210  0.11914  Biso   1.000  H
  H171     1.0000 0.07906  0.85228  0.02826  Biso   1.000  H
  H172     1.0000 0.48058  0.07564  0.65453  Biso   1.000  H
  H173     1.0000 0.35636  0.96898  0.41638  Biso   1.000  H
  H174     1.0000 0.58342  0.84880  0.51494  Biso   1.000  H
  H175     1.0000 0.50154  0.57235  0.88395  Biso   1.000  H
  H176     1.0000 0.62001  0.47093  0.11482  Biso   1.000  H
  H177     1.0000 0.39403  0.35166  0.02826  Biso   1.000  H
  H178     1.0000 0.99046  0.56759  0.65726  Biso   1.000  H
  H179     1.0000 0.11483  0.47353  0.42741  Biso   1.000  H
  H180     1.0000 0.89363  0.35011  0.51842  Biso   1.000  H
  H181     1.0000 0.99694  0.90539  0.15732  Biso   1.000  H
  H182     1.0000 0.12104  0.98384  0.92696  Biso   1.000  H
  H183     1.0000 0.88622  0.10819  0.01688  Biso   1.000  H
  H184     1.0000 0.49509  0.88271  0.38715  Biso   1.000  H
  H185     1.0000 0.61311  0.98555  0.62438  Biso   1.000  H
  H186     1.0000 0.38786  0.10945  0.52225  Biso   1.000  H
  H187     1.0000 0.51106  0.39028  0.14802  Biso   1.000  H
  H188     1.0000 0.35315  0.48408  0.92589  Biso   1.000  H
  H189     1.0000 0.57574  0.60644  0.01815  Biso   1.000  H
  H190     1.0000 0.96893  0.40366  0.37645  Biso   1.000  H
  H191     1.0000 0.84734  0.48032  0.60600  Biso   1.000  H
  H192     1.0000 0.07178  0.60920  0.51241  Biso   1.000  H
  H193     1.0000 0.25989  0.82650  0.50020  Biso   1.000  H
  H194     1.0000 0.47065  0.25576  0.87520  Biso   1.000  H
  H195     1.0000 0.83996  0.50362  0.28905  Biso   1.000  H
  H196     1.0000 0.76232  0.82285  0.05789  Biso   1.000  H
  H197     1.0000 0.99719  0.24850  0.65443  Biso   1.000  H
  H198     1.0000 0.33767  0.46874  0.24236  Biso   1.000  H
  H199     1.0000 0.21323  0.33064  0.53433  Biso   1.000  H
  H200     1.0000 0.99537  0.74746  0.87918  Biso   1.000  H
  H201     1.0000 0.64073  0.99109  0.29553  Biso   1.000  H
  H202     1.0000 0.71336  0.33048  0.03563  Biso   1.000  H
  H203     1.0000 0.49241  0.75625  0.66856  Biso   1.000  H
  H204     1.0000 0.14299  0.02164  0.24013  Biso   1.000  H
  H205     1.0000 0.70742  0.13186  0.53412  Biso   1.000  H
  H206     1.0000 0.49130  0.70789  0.16147  Biso   1.000  H
  H207     1.0000 0.13044  0.45366  0.74816  Biso   1.000  H
  H208     1.0000 0.21019  0.13561  0.02699  Biso   1.000  H
  H209     1.0000 0.97101  0.71665  0.38240  Biso   1.000  H
  H210     1.0000 0.63693  0.50115  0.79268  Biso   1.000  H
  H211     1.0000 0.75584  0.62765  0.52183  Biso   1.000  H
  H212     1.0000 0.97114  0.22208  0.15121  Biso   1.000  H
  H213     1.0000 0.32862  0.97301  0.74309  Biso   1.000  H
  H214     1.0000 0.25572  0.63176  0.00764  Biso   1.000  H
  H215     1.0000 0.49855  0.20626  0.37167  Biso   1.000  H
  H216     1.0000 0.82818  0.98554  0.79998  Biso   1.000  H
  H217     1.0000 0.21132  0.46942  0.37225  Biso   1.000  H
  H218     1.0000 0.33329  0.20285  0.51229  Biso   1.000  H
  H219     1.0000 0.52498  0.33979  0.24424  Biso   1.000  H
  H220     1.0000 0.71579  0.47585  0.16591  Biso   1.000  H
  H221     1.0000 0.83144  0.20094  0.02325  Biso   1.000  H
  H222     1.0000 0.97483  0.35183  0.28109  Biso   1.000  H
  H223     1.0000 0.26353  0.98544  0.36217  Biso   1.000  H
  H224     1.0000 0.12927  0.70695  0.52447  Biso   1.000  H
  H225     1.0000 0.98817  0.84948  0.25236  Biso   1.000  H
  H226     1.0000 0.76431  0.98851  0.17970  Biso   1.000  H
  H227     1.0000 0.62984  0.70349  0.03577  Biso   1.000  H
  H228     1.0000 0.47506  0.82917  0.29352  Biso   1.000  H
  H229     1.0000 0.75676  0.49065  0.66923  Biso   1.000  H
  H230     1.0000 0.64133  0.75354  0.51407  Biso   1.000  H
  H231     1.0000 0.48208  0.62980  0.78917  Biso   1.000  H
  H232     1.0000 0.25911  0.47769  0.86982  Biso   1.000  H
  H233     1.0000 0.13563  0.75921  0.04326  Biso   1.000  H
  H234     1.0000 0.99577  0.61591  0.75377  Biso   1.000  H
  H235     1.0000 0.70694  0.97574  0.67748  Biso   1.000  H
  H236     1.0000 0.84020  0.25468  0.51593  Biso   1.000  H
  H237     1.0000 0.97797  0.11746  0.78506  Biso   1.000  H
  H238     1.0000 0.21169  0.95685  0.86457  Biso   1.000  H
  H239     1.0000 0.33617  0.25611  0.01937  Biso   1.000  H
  H240     1.0000 0.49506  0.12964  0.74870  Biso   1.000  H
  H241     1.0000 0.71939  0.47889  0.87788  Biso   1.000  H
  H242     1.0000 0.84118  0.71349  0.52727  Biso   1.000  H
  H243     1.0000 0.47785  0.84081  0.75183  Biso   1.000  H
  H244     1.0000 0.21833  0.46966  0.65869  Biso   1.000  H
  H245     1.0000 0.34544  0.71658  0.02283  Biso   1.000  H
  H246     1.0000 0.99875  0.83776  0.79215  Biso   1.000  H
  H247     1.0000 0.74679  0.95447  0.89133  Biso   1.000  H
  H248     1.0000 0.62445  0.21202  0.51174  Biso   1.000  H
  H249     1.0000 0.98331  0.32339  0.74465  Biso   1.000  H
  H250     1.0000 0.25336  0.94611  0.65227  Biso   1.000  H
  H251     1.0000 0.11914  0.20822  0.06005  Biso   1.000  H
  H252     1.0000 0.48986  0.33541  0.79111  Biso   1.000  H
  H253     1.0000 0.25528  0.47119  0.16320  Biso   1.000  H
  H254     1.0000 0.12148  0.24754  0.53604  Biso   1.000  H
  H255     1.0000 0.49949  0.11974  0.28469  Biso   1.000  H
  H256     1.0000 0.75710  0.47482  0.37322  Biso   1.000  H
  H257     1.0000 0.62279  0.24464  0.02823  Biso   1.000  H
  H258     1.0000 0.99151  0.13955  0.24969  Biso   1.000  H
  H259     1.0000 0.22154  0.00783  0.14871  Biso   1.000  H
  H260     1.0000 0.34992  0.74688  0.53441  Biso   1.000  H
  H261     1.0000 0.00942  0.64437  0.29409  Biso   1.000  H
  H262     1.0000 0.71789  0.01287  0.38274  Biso   1.000  H
  H263     1.0000 0.85023  0.73914  0.04153  Biso   1.000  H
  H264     1.0000 0.47070  0.62084  0.24851  Biso   1.000  H
  H265     1.0000 0.99391  0.20805  0.87500  Biso   1.000  H
  H266     1.0000 0.85343  0.99248  0.25519  Biso   1.000  H
  H267     1.0000 0.21818  0.84760  0.03004  Biso   1.000  H
  H268     1.0000 0.48445  0.21380  0.65921  Biso   1.000  H
  H269     1.0000 0.35077  0.98650  0.28024  Biso   1.000  H
  H270     1.0000 0.72046  0.84750  0.50865  Biso   1.000  H
  H271     1.0000 0.50633  0.71203  0.87196  Biso   1.000  H
  H272     1.0000 0.62653  0.49734  0.25099  Biso   1.000  H
  H273     1.0000 0.25434  0.33857  0.03245  Biso   1.000  H
  H274     1.0000 0.99317  0.70569  0.67182  Biso   1.000  H
  H275     1.0000 0.12978  0.47824  0.28805  Biso   1.000  H
  H276     1.0000 0.75468  0.33453  0.52170  Biso   1.000  H
  H277     1.0000 0.98102  0.76113  0.17617  Biso   1.000  H
  H278     1.0000 0.11650  0.94983  0.78590  Biso   1.000  H
  H279     1.0000 0.75064  0.10991  0.04329  Biso   1.000  H
  H280     1.0000 0.48946  0.74460  0.37553  Biso   1.000  H
  H281     1.0000 0.61532  0.96934  0.76128  Biso   1.000  H
  H282     1.0000 0.24876  0.11213  0.52565  Biso   1.000  H
  H283     1.0000 0.49755  0.25261  0.16269  Biso   1.000  H
  H284     1.0000 0.34777  0.46738  0.78487  Biso   1.000  H
  H285     1.0000 0.71178  0.62473  0.05010  Biso   1.000  H
  H286     1.0000 0.98235  0.26552  0.36599  Biso   1.000  H
  H287     1.0000 0.85110  0.49696  0.74533  Biso   1.000  H
  H288     1.0000 0.21269  0.62062  0.49989  Biso   1.000  H
  H289     1.0000 0.06319  0.20558  0.05927  Biso   1.000  H
  H290     1.0000 0.99874  0.08629  0.25122  Biso   1.000  H
  H291     1.0000 0.21777  0.00080  0.09404  Biso   1.000  H
  H292     1.0000 0.56850  0.20918  0.50657  Biso   1.000  H
  H293     1.0000 0.49802  0.06753  0.28408  Biso   1.000  H
  H294     1.0000 0.71747  0.01065  0.43917  Biso   1.000  H
  H295     1.0000 0.39991  0.71411  0.01759  Biso   1.000  H
  H296     1.0000 0.47097  0.56972  0.24724  Biso   1.000  H
  H297     1.0000 0.25351  0.46826  0.10966  Biso   1.000  H
  H298     1.0000 0.89458  0.71200  0.53191  Biso   1.000  H
  H299     1.0000 0.01329  0.58721  0.29249  Biso   1.000  H
  H300     1.0000 0.75424  0.47596  0.42866  Biso   1.000  H
  H301     1.0000 0.90403  0.74447  0.03204  Biso   1.000  H
  H302     1.0000 0.99287  0.88927  0.79576  Biso   1.000  H
  H303     1.0000 0.75402  0.94736  0.94446  Biso   1.000  H
  H304     1.0000 0.40140  0.74978  0.54031  Biso   1.000  H
  H305     1.0000 0.46717  0.89497  0.74931  Biso   1.000  H
  H306     1.0000 0.25723  0.95208  0.59578  Biso   1.000  H
  H307     1.0000 0.57035  0.24722  0.01918  Biso   1.000  H
  H308     1.0000 0.49305  0.39209  0.79243  Biso   1.000  H
  H309     1.0000 0.71735  0.47096  0.93476  Biso   1.000  H
  H310     1.0000 0.06714  0.24913  0.52229  Biso   1.000  H
  H311     1.0000 0.98273  0.37793  0.74698  Biso   1.000  H
  H312     1.0000 0.21501  0.47767  0.60737  Biso   1.000  H
  H313     1.0000 0.21521  0.97724  0.91665  Biso   1.000  H
  H314     1.0000 0.88606  0.20247  0.01439  Biso   1.000  H
  H315     1.0000 0.00139  0.90223  0.25018  Biso   1.000  H
  H316     1.0000 0.70641  0.98501  0.62120  Biso   1.000  H
  H317     1.0000 0.38673  0.20233  0.51670  Biso   1.000  H
  H318     1.0000 0.47240  0.88176  0.29205  Biso   1.000  H
  H319     1.0000 0.25623  0.48330  0.92255  Biso   1.000  H
  H320     1.0000 0.57396  0.70512  0.02781  Biso   1.000  H
  H321     1.0000 0.52488  0.39115  0.24195  Biso   1.000  H
  H322     1.0000 0.75208  0.48481  0.61555  Biso   1.000  H
  H323     1.0000 0.07262  0.70432  0.52763  Biso   1.000  H
  H324     1.0000 0.97048  0.40625  0.28091  Biso   1.000  H
  H325     1.0000 0.76045  0.98316  0.12821  Biso   1.000  H
  H326     1.0000 0.08077  0.75803  0.03514  Biso   1.000  H
  H327     1.0000 0.98047  0.06806  0.78704  Biso   1.000  H
  H328     1.0000 0.26153  0.98242  0.41538  Biso   1.000  H
  H329     1.0000 0.58735  0.75130  0.51480  Biso   1.000  H
  H330     1.0000 0.48856  0.07566  0.75074  Biso   1.000  H
  H331     1.0000 0.71640  0.46664  0.11451  Biso   1.000  H
  H332     1.0000 0.39066  0.25479  0.01619  Biso   1.000  H
  H333     1.0000 0.48453  0.57395  0.78869  Biso   1.000  H
  H334     1.0000 0.21171  0.47248  0.42650  Biso   1.000  H
  H335     1.0000 0.89357  0.25678  0.51090  Biso   1.000  H
  H336     1.0000 0.99994  0.56035  0.75307  Biso   1.000  H
  H337     1.0000 0.98785  0.20796  0.92566  Biso   1.000  H
  H338     1.0000 0.90795  0.99575  0.25294  Biso   1.000  H
  H339     1.0000 0.21940  0.89923  0.02265  Biso   1.000  H
  H340     1.0000 0.48623  0.21300  0.60613  Biso   1.000  H
  H341     1.0000 0.40492  0.97799  0.28243  Biso   1.000  H
  H342     1.0000 0.71406  0.90181  0.51941  Biso   1.000  H
  H343     1.0000 0.51200  0.71292  0.92692  Biso   1.000  H
  H344     1.0000 0.57346  0.50316  0.24696  Biso   1.000  H
  H345     1.0000 0.25379  0.39461  0.02862  Biso   1.000  H
  H346     1.0000 0.98499  0.70477  0.61661  Biso   1.000  H
  H347     1.0000 0.07527  0.48517  0.28609  Biso   1.000  H
  H348     1.0000 0.75139  0.38820  0.52553  Biso   1.000  H
  H349     1.0000 0.97937  0.76042  0.12163  Biso   1.000  H
  H350     1.0000 0.06154  0.96247  0.79419  Biso   1.000  H
  H351     1.0000 0.75503  0.05120  0.03942  Biso   1.000  H
  H352     1.0000 0.49296  0.74271  0.43441  Biso   1.000  H
  H353     1.0000 0.56218  0.97149  0.75794  Biso   1.000  H
  H354     1.0000 0.25303  0.05923  0.53021  Biso   1.000  H
  H355     1.0000 0.49118  0.25426  0.10983  Biso   1.000  H
  H356     1.0000 0.40507  0.46769  0.78539  Biso   1.000  H
  H357     1.0000 0.71427  0.56879  0.04288  Biso   1.000  H
  H358     1.0000 0.99332  0.26574  0.41844  Biso   1.000  H
  H359     1.0000 0.90449  0.49652  0.73876  Biso   1.000  H
  H360     1.0000 0.21143  0.56897  0.49606  Biso   1.000  H
  H361     1.0000 0.97372  0.71221  0.43950  Biso   1.000  H
  H362     1.0000 0.38052  0.98073  0.74677  Biso   1.000  H
  H363     1.0000 0.71431  0.38509  0.03078  Biso   1.000  H
  H364     1.0000 0.49395  0.70968  0.11034  Biso   1.000  H
  H365     1.0000 0.88313  0.98968  0.79576  Biso   1.000  H
  H366     1.0000 0.21679  0.38448  0.53389  Biso   1.000  H
  H367     1.0000 0.49426  0.20551  0.42419  Biso   1.000  H
  H368     1.0000 0.07754  0.45775  0.75106  Biso   1.000  H
  H369     1.0000 0.76029  0.87687  0.05419  Biso   1.000  H
  H370     1.0000 0.96631  0.21306  0.10113  Biso   1.000  H
  H371     1.0000 0.58408  0.49911  0.78798  Biso   1.000  H
  H372     1.0000 0.25824  0.87684  0.49657  Biso   1.000  H
  H373     1.0000 0.99095  0.25189  0.59954  Biso   1.000  H
  H374     1.0000 0.58930  0.98127  0.29485  Biso   1.000  H
  H375     1.0000 0.25468  0.57960  0.01328  Biso   1.000  H
  H376     1.0000 0.46010  0.25364  0.93089  Biso   1.000  H
  H377     1.0000 0.09143  0.01446  0.24607  Biso   1.000  H
  H378     1.0000 0.75575  0.57025  0.52365  Biso   1.000  H
  H379     1.0000 0.49364  0.75436  0.61328  Biso   1.000  H
  H380     1.0000 0.89488  0.50794  0.29165  Biso   1.000  H
  H381     1.0000 0.21218  0.08724  0.01135  Biso   1.000  H
  H382     1.0000 0.99445  0.74994  0.93449  Biso   1.000  H
  H383     1.0000 0.39330  0.46462  0.24571  Biso   1.000  H
  H384     1.0000 0.70869  0.07701  0.54610  Biso   1.000  H
  H385     1.0000 0.20473  0.43611  0.33987  Biso   1.000  H
  H386     1.0000 0.25010  0.14768  0.49254  Biso   1.000  H
  H387     1.0000 0.49091  0.31157  0.24791  Biso   1.000  H
  H388     1.0000 0.65679  0.46621  0.25441  Biso   1.000  H
  H389     1.0000 0.80268  0.19691  0.04926  Biso   1.000  H
  H390     1.0000 0.94199  0.27008  0.33924  Biso   1.000  H
  H391     1.0000 0.26630  0.95882  0.32890  Biso   1.000  H
  H392     1.0000 0.16299  0.70643  0.48576  Biso   1.000  H
  H393     1.0000 0.94162  0.77728  0.21050  Biso   1.000  H
  H394     1.0000 0.77227  0.96072  0.21453  Biso   1.000  H
  H395     1.0000 0.69732  0.65655  0.08525  Biso   1.000  H
  H396     1.0000 0.51685  0.79916  0.29814  Biso   1.000  H
  H397     1.0000 0.76993  0.52346  0.69831  Biso   1.000  H
  H398     1.0000 0.71332  0.81297  0.54594  Biso   1.000  H
  H399     1.0000 0.51988  0.65927  0.79327  Biso   1.000  H
  H400     1.0000 0.31464  0.49898  0.78791  Biso   1.000  H
  H401     1.0000 0.20909  0.81478  0.99187  Biso   1.000  H
  H402     1.0000 0.02452  0.65021  0.75130  Biso   1.000  H
  H403     1.0000 0.69721  0.94233  0.70222  Biso   1.000  H
  H404     1.0000 0.75774  0.30571  0.55344  Biso   1.000  H
  H405     1.0000 0.95764  0.20449  0.84195  Biso   1.000  H
  H406     1.0000 0.20834  0.98347  0.82687  Biso   1.000  H
  H407     1.0000 0.25299  0.31010  0.00190  Biso   1.000  H
  H408     1.0000 0.45948  0.15243  0.74379  Biso   1.000  H
  H409     1.0000 0.26652  0.42713  0.20160  Biso   1.000  H
  H410     1.0000 0.15848  0.25919  0.49120  Biso   1.000  H
  H411     1.0000 0.46255  0.20200  0.33954  Biso   1.000  H
  H412     1.0000 0.81048  0.46925  0.29156  Biso   1.000  H
  H413     1.0000 0.66136  0.25676  0.98288  Biso   1.000  H
  H414     1.0000 0.95022  0.22222  0.18808  Biso   1.000  H
  H415     1.0000 0.16617  0.97923  0.23633  Biso   1.000  H
  H416     1.0000 0.32311  0.74442  0.49417  Biso   1.000  H
  H417     1.0000 0.96315  0.66433  0.29729  Biso   1.000  H
  H418     1.0000 0.72191  0.97353  0.35792  Biso   1.000  H
  H419     1.0000 0.81657  0.74501  0.07327  Biso   1.000  H
  H420     1.0000 0.44419  0.65688  0.23852  Biso   1.000  H
  H421     1.0000 0.71499  0.52127  0.85076  Biso   1.000  H
  H422     1.0000 0.75865  0.65541  0.55516  Biso   1.000  H
  H423     1.0000 0.52679  0.76919  0.69854  Biso   1.000  H
  H424     1.0000 0.15805  0.48635  0.74785  Biso   1.000  H
  H425     1.0000 0.31427  0.71779  0.98625  Biso   1.000  H
  H426     1.0000 0.02796  0.75407  0.84795  Biso   1.000  H
  H427     1.0000 0.74293  0.99014  0.86272  Biso   1.000  H
  H428     1.0000 0.69202  0.16493  0.56510  Biso   1.000  H
  H429     1.0000 0.01771  0.30045  0.74132  Biso   1.000  H
  H430     1.0000 0.30867  0.92975  0.73761  Biso   1.000  H
  H431     1.0000 0.14623  0.22126  0.02623  Biso   1.000  H
  H432     1.0000 0.43918  0.25932  0.84207  Biso   1.000  H
  H433     1.0000 0.24105  0.97159  0.68156  Biso   1.000  H
  H434     1.0000 0.69738  0.28612  0.06645  Biso   1.000  H
  H435     1.0000 0.00848  0.72339  0.35706  Biso   1.000  H
  H436     1.0000 0.80523  0.94512  0.80526  Biso   1.000  H
  H437     1.0000 0.20830  0.29928  0.56275  Biso   1.000  H
  H438     1.0000 0.52524  0.70116  0.19957  Biso   1.000  H
  H439     1.0000 0.21295  0.43378  0.69053  Biso   1.000  H
  H440     1.0000 0.76702  0.79792  0.01588  Biso   1.000  H
  H441     1.0000 0.53453  0.15656  0.29591  Biso   1.000  H
  H442     1.0000 0.66466  0.46012  0.79462  Biso   1.000  H
  H443     1.0000 0.26368  0.79977  0.54172  Biso   1.000  H
  H444     1.0000 0.01791  0.17313  0.23849  Biso   1.000  H
  H445     1.0000 0.66849  0.02407  0.29997  Biso   1.000  H
  H446     1.0000 0.25751  0.65900  0.04096  Biso   1.000  H
  H447     1.0000 0.96802  0.24239  0.68307  Biso   1.000  H
  H448     1.0000 0.22764  0.03252  0.18078  Biso   1.000  H
  H449     1.0000 0.81370  0.70791  0.49305  Biso   1.000  H
  H450     1.0000 0.51547  0.30622  0.80082  Biso   1.000  H
  H451     1.0000 0.75610  0.52404  0.34834  Biso   1.000  H
  H452     1.0000 0.20482  0.15487  0.06234  Biso   1.000  H
  H453     1.0000 0.44759  0.80275  0.74000  Biso   1.000  H
  H454     1.0000 0.30770  0.50815  0.24052  Biso   1.000  H
  H455     1.0000 0.66793  0.19630  0.48128  Biso   1.000  H
  H456     1.0000 0.96726  0.80759  0.79890  Biso   1.000  H
  H457     1.0000 0.67209  0.76101  0.47799  Biso   1.000  H
  H458     1.0000 0.45965  0.70804  0.84656  Biso   1.000  H
  H459     1.0000 0.81600  0.46010  0.74982  Biso   1.000  H
  H460     1.0000 0.17330  0.77412  0.07266  Biso   1.000  H
  H461     1.0000 0.95854  0.69748  0.70298  Biso   1.000  H
  H462     1.0000 0.26445  0.43973  0.84390  Biso   1.000  H
  H463     1.0000 0.80782  0.25856  0.48630  Biso   1.000  H
  H464     1.0000 0.01341  0.14554  0.79285  Biso   1.000  H
  H465     1.0000 0.64865  0.00208  0.76142  Biso   1.000  H
  H466     1.0000 0.30921  0.26121  0.05991  Biso   1.000  H
  H467     1.0000 0.51187  0.21607  0.69342  Biso   1.000  H
  H468     1.0000 0.14838  0.91578  0.79362  Biso   1.000  H
  H469     1.0000 0.30323  0.19183  0.55392  Biso   1.000  H
  H470     1.0000 0.53226  0.24894  0.18775  Biso   1.000  H
  H471     1.0000 0.16512  0.51058  0.29484  Biso   1.000  H
  H472     1.0000 0.74509  0.13412  0.00384  Biso   1.000  H
  H473     1.0000 0.00961  0.31922  0.28840  Biso   1.000  H
  H474     1.0000 0.71208  0.51534  0.19117  Biso   1.000  H
  H475     1.0000 0.20692  0.64289  0.54026  Biso   1.000  H
  H476     1.0000 0.02623  0.81386  0.24364  Biso   1.000  H
  H477     1.0000 0.32607  0.02393  0.28560  Biso   1.000  H
  H478     1.0000 0.67055  0.69618  0.00272  Biso   1.000  H
  H479     1.0000 0.45152  0.74317  0.34842  Biso   1.000  H
  H480     1.0000 0.82926  0.02756  0.24938  Biso   1.000  H
  N1       1.0000 0.65529  0.16108  0.52548  Biso   1.000  N
  N2       1.0000 0.48450  0.65504  0.19395  Biso   1.000  N
  N3       1.0000 0.16359  0.46175  0.69436  Biso   1.000  N
  N4       1.0000 0.15100  0.16339  0.03932  Biso   1.000  N
  N5       1.0000 0.99012  0.66829  0.35002  Biso   1.000  N
  N6       1.0000 0.66655  0.48837  0.84686  Biso   1.000  N
  N7       1.0000 0.80857  0.65750  0.52516  Biso   1.000  N
  N8       1.0000 0.98111  0.17177  0.19296  Biso   1.000  N
  N9       1.0000 0.30153  0.95791  0.68716  Biso   1.000  N
  N10      1.0000 0.30853  0.66390  0.01234  Biso   1.000  N
  N11      1.0000 0.49390  0.15279  0.33943  Biso   1.000  N
  N12      1.0000 0.79973  0.96754  0.85512  Biso   1.000  N
  N13      1.0000 0.31271  0.79736  0.51918  Biso   1.000  N
  N14      1.0000 0.47417  0.30615  0.84421  Biso   1.000  N
  N15      1.0000 0.80783  0.49177  0.34417  Biso   1.000  N
  N16      1.0000 0.81544  0.79305  0.04457  Biso   1.000  N
  N17      1.0000 0.98845  0.29720  0.68915  Biso   1.000  N
  N18      1.0000 0.30797  0.47055  0.19235  Biso   1.000  N
  N19      1.0000 0.15729  0.29986  0.53178  Biso   1.000  N
  N20      1.0000 0.99496  0.80101  0.84699  Biso   1.000  N
  N21      1.0000 0.66891  0.99926  0.35091  Biso   1.000  N
  N22      1.0000 0.65779  0.29797  0.02490  Biso   1.000  N
  N23      1.0000 0.48271  0.80927  0.69726  Biso   1.000  N
  N24      1.0000 0.17216  0.00818  0.18531  Biso   1.000  N
  N25      1.0000 0.81302  0.48722  0.69678  Biso   1.000  N
  N26      1.0000 0.66933  0.81038  0.50961  Biso   1.000  N
  N27      1.0000 0.49093  0.65986  0.84323  Biso   1.000  N
  N28      1.0000 0.31346  0.47482  0.83770  Biso   1.000  N
  N29      1.0000 0.16550  0.81365  0.03381  Biso   1.000  N
  N30      1.0000 0.99231  0.65075  0.70180  Biso   1.000  N
  N31      1.0000 0.65183  0.97606  0.70937  Biso   1.000  N
  N32      1.0000 0.80773  0.30599  0.51983  Biso   1.000  N
  N33      1.0000 0.98227  0.15259  0.83936  Biso   1.000  N
  N34      1.0000 0.15479  0.95791  0.83642  Biso   1.000  N
  N35      1.0000 0.30628  0.30846  0.02899  Biso   1.000  N
  N36      1.0000 0.48693  0.16199  0.69565  Biso   1.000  N
  N37      1.0000 0.15956  0.47035  0.34075  Biso   1.000  N
  N38      1.0000 0.30116  0.14808  0.52109  Biso   1.000  N
  N39      1.0000 0.50996  0.30480  0.19347  Biso   1.000  N
  N40      1.0000 0.66168  0.48857  0.19820  Biso   1.000  N
  N41      1.0000 0.79924  0.14356  0.02719  Biso   1.000  N
  N42      1.0000 0.97613  0.31776  0.33437  Biso   1.000  N
  N43      1.0000 0.31656  0.98734  0.33120  Biso   1.000  N
  N44      1.0000 0.16018  0.65397  0.51243  Biso   1.000  N
  N45      1.0000 0.98459  0.81789  0.20084  Biso   1.000  N
  N46      1.0000 0.82075  0.98970  0.20701  Biso   1.000  N
  N47      1.0000 0.65993  0.65277  0.03823  Biso   1.000  N
  N48      1.0000 0.48455  0.79548  0.34590  Biso   1.000  N
  O1       1.0000 0.32616  0.52950  0.01322  Biso   1.000  O
  O2       1.0000 0.98699  0.32705  0.55580  Biso   1.000  O
  O3       1.0000 0.53396  0.97874  0.36299  Biso   1.000  O
  O4       1.0000 0.82607  0.52436  0.52708  Biso   1.000  O
  O5       1.0000 0.47375  0.32462  0.97851  Biso   1.000  O
  O6       1.0000 0.03588  0.00487  0.17561  Biso   1.000  O
  O7       1.0000 0.14151  0.03353  0.00384  Biso   1.000  O
  O8       1.0000 0.50158  0.82521  0.56318  Biso   1.000  O
  O9       1.0000 0.94188  0.50278  0.36444  Biso   1.000  O
  O10      1.0000 0.63964  0.02605  0.53037  Biso   1.000  O
  O11      1.0000 0.99283  0.82367  0.98229  Biso   1.000  O
  O12      1.0000 0.44735  0.47388  0.17515  Biso   1.000  O
  O13      1.0000 0.64172  0.43600  0.01789  Biso   1.000  O
  O14      1.0000 0.98076  0.63905  0.48385  Biso   1.000  O
  O15      1.0000 0.43380  0.98233  0.67600  Biso   1.000  O
  O16      1.0000 0.14439  0.43684  0.53061  Biso   1.000  O
  O17      1.0000 0.47740  0.63690  0.06134  Biso   1.000  O
  O18      1.0000 0.93345  0.97919  0.86318  Biso   1.000  O
  O19      1.0000 0.82617  0.92830  0.03577  Biso   1.000  O
  O20      1.0000 0.47952  0.13264  0.47599  Biso   1.000  O
  O21      1.0000 0.03100  0.46815  0.67629  Biso   1.000  O
  O22      1.0000 0.32859  0.93193  0.50780  Biso   1.000  O
  O23      1.0000 0.97596  0.13553  0.06009  Biso   1.000  O
  O24      1.0000 0.53296  0.48455  0.86178  Biso   1.000  O
  O25      1.0000 0.95472  0.98781  0.17642  Biso   1.000  O
  O26      1.0000 0.14463  0.94801  0.02024  Biso   1.000  O
  O27      1.0000 0.97756  0.13595  0.97706  Biso   1.000  O
  O28      1.0000 0.44964  0.96892  0.35682  Biso   1.000  O
  O29      1.0000 0.64114  0.94419  0.52626  Biso   1.000  O
  O30      1.0000 0.48522  0.13367  0.56065  Biso   1.000  O
  O31      1.0000 0.52744  0.48727  0.17472  Biso   1.000  O
  O32      1.0000 0.32831  0.44610  0.01549  Biso   1.000  O
  O33      1.0000 0.48928  0.64067  0.97877  Biso   1.000  O
  O34      1.0000 0.02381  0.48116  0.35794  Biso   1.000  O
  O35      1.0000 0.82646  0.44267  0.51664  Biso   1.000  O
  O36      1.0000 0.98395  0.63649  0.56777  Biso   1.000  O
  O37      1.0000 0.01756  0.97484  0.86493  Biso   1.000  O
  O38      1.0000 0.83040  0.01435  0.02583  Biso   1.000  O
  O39      1.0000 0.98703  0.82620  0.06743  Biso   1.000  O
  O40      1.0000 0.52017  0.98953  0.68210  Biso   1.000  O
  O41      1.0000 0.32759  0.01537  0.51291  Biso   1.000  O
  O42      1.0000 0.49165  0.81915  0.47863  Biso   1.000  O
  O43      1.0000 0.44774  0.47952  0.85829  Biso   1.000  O
  O44      1.0000 0.64317  0.51877  0.03292  Biso   1.000  O
  O45      1.0000 0.48703  0.32843  0.06035  Biso   1.000  O
  O46      1.0000 0.95217  0.48596  0.66680  Biso   1.000  O
  O47      1.0000 0.13925  0.51623  0.51398  Biso   1.000  O
  O48      1.0000 0.98874  0.33401  0.46868  Biso   1.000  O
  O49      1.0000 0.00487  0.95180  0.17992  Biso   1.000  O
  O50      1.0000 0.14381  0.98847  0.96892  Biso   1.000  O
  O51      1.0000 0.93398  0.13397  0.01811  Biso   1.000  O
  O52      1.0000 0.49649  0.93069  0.36329  Biso   1.000  O
  O53      1.0000 0.63889  0.98079  0.56994  Biso   1.000  O
  O54      1.0000 0.43870  0.13367  0.52280  Biso   1.000  O
  O55      1.0000 0.49621  0.43888  0.17370  Biso   1.000  O
  O56      1.0000 0.32666  0.48813  0.97162  Biso   1.000  O
  O57      1.0000 0.52319  0.63564  0.02016  Biso   1.000  O
  O58      1.0000 0.97151  0.45231  0.35762  Biso   1.000  O
  O59      1.0000 0.82185  0.47589  0.56286  Biso   1.000  O
  O60      1.0000 0.02245  0.63334  0.52386  Biso   1.000  O
  O61      1.0000 0.97500  0.01920  0.86140  Biso   1.000  O
  O62      1.0000 0.83234  0.96918  0.07225  Biso   1.000  O
  O63      1.0000 0.02998  0.82495  0.02913  Biso   1.000  O
  O64      1.0000 0.47483  0.02657  0.67838  Biso   1.000  O
  O65      1.0000 0.33092  0.97281  0.46790  Biso   1.000  O
  O66      1.0000 0.53302  0.82201  0.51321  Biso   1.000  O
  O67      1.0000 0.48880  0.52315  0.85987  Biso   1.000  O
  O68      1.0000 0.64551  0.47000  0.06382  Biso   1.000  O
  O69      1.0000 0.44146  0.32495  0.02654  Biso   1.000  O
  O70      1.0000 0.99892  0.51609  0.67773  Biso   1.000  O
  O71      1.0000 0.14163  0.47162  0.47568  Biso   1.000  O
  O72      1.0000 0.94350  0.33103  0.51166  Biso   1.000  O
  O73      1.0000 0.98222  0.43321  0.67807  Biso   1.000  O
  O74      1.0000 0.64587  0.98808  0.48550  Biso   1.000  O
  O75      1.0000 0.44263  0.64145  0.01991  Biso   1.000  O
  O76      1.0000 0.49215  0.43924  0.86392  Biso   1.000  O
  O77      1.0000 0.14434  0.99750  0.05147  Biso   1.000  O
  O78      1.0000 0.94101  0.64021  0.52973  Biso   1.000  O
  O79      1.0000 0.47736  0.94235  0.67866  Biso   1.000  O
  O80      1.0000 0.82303  0.48951  0.47887  Biso   1.000  O
  O81      1.0000 0.01822  0.13786  0.01915  Biso   1.000  O
  O82      1.0000 0.97038  0.93410  0.86606  Biso   1.000  O
  O83      1.0000 0.32435  0.48686  0.05811  Biso   1.000  O
  O84      1.0000 0.52226  0.13382  0.51274  Biso   1.000  O
  O85      1.0000 0.99718  0.53270  0.35968  Biso   1.000  O
  O86      1.0000 0.32985  0.97032  0.55247  Biso   1.000  O
  O87      1.0000 0.52422  0.32218  0.01127  Biso   1.000  O
  O88      1.0000 0.47905  0.52287  0.17669  Biso   1.000  O
  O89      1.0000 0.82588  0.96883  0.98982  Biso   1.000  O
  O90      1.0000 0.02540  0.32587  0.51350  Biso   1.000  O
  O91      1.0000 0.48877  0.01664  0.35793  Biso   1.000  O
  O92      1.0000 0.13887  0.48322  0.56161  Biso   1.000  O
  O93      1.0000 0.94569  0.82193  0.02469  Biso   1.000  O
  O94      1.0000 0.98853  0.03405  0.18126  Biso   1.000  O
  O95      1.0000 0.64436  0.48046  0.97987  Biso   1.000  O
  O96      1.0000 0.45119  0.82535  0.53095  Biso   1.000  O
  O97      1.0000 0.43706  0.18304  0.51547  Biso   1.000  O
  O98      1.0000 0.49957  0.43822  0.22180  Biso   1.000  O
  O99      1.0000 0.19051  0.47436  0.47482  Biso   1.000  O
  O100     1.0000 0.93312  0.18232  0.01154  Biso   1.000  O
  O101     1.0000 0.97796  0.45532  0.30996  Biso   1.000  O
  O102     1.0000 0.69478  0.46622  0.06231  Biso   1.000  O
  O103     1.0000 0.02605  0.68211  0.52381  Biso   1.000  O
  O104     1.0000 0.00460  0.95215  0.22698  Biso   1.000  O
  O105     1.0000 0.28166  0.97613  0.46661  Biso   1.000  O
  O106     1.0000 0.52868  0.68423  0.02450  Biso   1.000  O
  O107     1.0000 0.49429  0.93307  0.31393  Biso   1.000  O
  O108     1.0000 0.78315  0.97214  0.07754  Biso   1.000  O
  O109     1.0000 0.53416  0.77379  0.52323  Biso   1.000  O
  O110     1.0000 0.48790  0.52604  0.81124  Biso   1.000  O
  O111     1.0000 0.77544  0.48767  0.56279  Biso   1.000  O
  O112     1.0000 0.03199  0.77610  0.03561  Biso   1.000  O
  O113     1.0000 0.99125  0.51300  0.72501  Biso   1.000  O
  O114     1.0000 0.27672  0.48480  0.97023  Biso   1.000  O
  O115     1.0000 0.94114  0.28239  0.50736  Biso   1.000  O
  O116     1.0000 0.97480  0.01704  0.81180  Biso   1.000  O
  O117     1.0000 0.68621  0.98659  0.57153  Biso   1.000  O
  O118     1.0000 0.44010  0.27670  0.02786  Biso   1.000  O
  O119     1.0000 0.47247  0.02712  0.72759  Biso   1.000  O
  O120     1.0000 0.19176  0.98726  0.96674  Biso   1.000  O
  O121     1.0000 0.02683  0.46821  0.72544  Biso   1.000  O
  O122     1.0000 0.68940  0.02823  0.53394  Biso   1.000  O
  O123     1.0000 0.47888  0.68465  0.05892  Biso   1.000  O
  O124     1.0000 0.53390  0.48533  0.81052  Biso   1.000  O
  O125     1.0000 0.19071  0.03494  0.00371  Biso   1.000  O
  O126     1.0000 0.98001  0.68866  0.48544  Biso   1.000  O
  O127     1.0000 0.43376  0.98191  0.72352  Biso   1.000  O
  O128     1.0000 0.77712  0.52485  0.52069  Biso   1.000  O
  O129     1.0000 0.96669  0.18305  0.05761  Biso   1.000  O
  O130     1.0000 0.93317  0.97840  0.81510  Biso   1.000  O
  O131     1.0000 0.27776  0.52789  0.01258  Biso   1.000  O
  O132     1.0000 0.48217  0.18101  0.47481  Biso   1.000  O
  O133     1.0000 0.94306  0.50477  0.31478  Biso   1.000  O
  O134     1.0000 0.28048  0.92936  0.50893  Biso   1.000  O
  O135     1.0000 0.47519  0.27571  0.97852  Biso   1.000  O
  O136     1.0000 0.44525  0.46789  0.22370  Biso   1.000  O
  O137     1.0000 0.77817  0.92409  0.04024  Biso   1.000  O
  O138     1.0000 0.98040  0.27900  0.55143  Biso   1.000  O
  O139     1.0000 0.53656  0.97876  0.31368  Biso   1.000  O
  O140     1.0000 0.19179  0.43745  0.52622  Biso   1.000  O
  O141     1.0000 0.99646  0.77620  0.98525  Biso   1.000  O
  O142     1.0000 0.03747  0.99937  0.22491  Biso   1.000  O
  O143     1.0000 0.69070  0.43491  0.01420  Biso   1.000  O
  O144     1.0000 0.49650  0.77576  0.56617  Biso   1.000  O
  O145     1.0000 0.52474  0.49387  0.22277  Biso   1.000  O
  O146     1.0000 0.18936  0.51931  0.50999  Biso   1.000  O
  O147     1.0000 0.47992  0.18312  0.55602  Biso   1.000  O
  O148     1.0000 0.02431  0.49002  0.31068  Biso   1.000  O
  O149     1.0000 0.69171  0.51931  0.03046  Biso   1.000  O
  O150     1.0000 0.97842  0.18498  0.97564  Biso   1.000  O
  O151     1.0000 0.95694  0.98764  0.22485  Biso   1.000  O
  O152     1.0000 0.27869  0.01290  0.51561  Biso   1.000  O
  O153     1.0000 0.98565  0.68598  0.56843  Biso   1.000  O
  O154     1.0000 0.45320  0.96964  0.30876  Biso   1.000  O
  O155     1.0000 0.78012  0.00856  0.02964  Biso   1.000  O
  O156     1.0000 0.49149  0.68946  0.97690  Biso   1.000  O
  O157     1.0000 0.45100  0.47495  0.80917  Biso   1.000  O
  O158     1.0000 0.77793  0.44274  0.51808  Biso   1.000  O
  O159     1.0000 0.48888  0.76976  0.48345  Biso   1.000  O
  O160     1.0000 0.94482  0.47757  0.71626  Biso   1.000  O
  O161     1.0000 0.27912  0.44459  0.01839  Biso   1.000  O
  O162     1.0000 0.99041  0.77629  0.07229  Biso   1.000  O
  O163     1.0000 0.01856  0.96890  0.81678  Biso   1.000  O
  O164     1.0000 0.68919  0.94626  0.52846  Biso   1.000  O
  O165     1.0000 0.98011  0.28582  0.46629  Biso   1.000  O
  O166     1.0000 0.51636  0.98283  0.73133  Biso   1.000  O
  O167     1.0000 0.19250  0.94881  0.01593  Biso   1.000  O
  O168     1.0000 0.48533  0.28042  0.06101  Biso   1.000  O
  O169     1.0000 0.99565  0.03617  0.22933  Biso   1.000  O
  O170     1.0000 0.19321  0.99862  0.04883  Biso   1.000  O
  O171     1.0000 0.01854  0.18699  0.02581  Biso   1.000  O
  O172     1.0000 0.49317  0.01598  0.30964  Biso   1.000  O
  O173     1.0000 0.69350  0.99450  0.48632  Biso   1.000  O
  O174     1.0000 0.51963  0.18157  0.51410  Biso   1.000  O
  O175     1.0000 0.47575  0.51995  0.22542  Biso   1.000  O
  O176     1.0000 0.27605  0.48637  0.05692  Biso   1.000  O
  O177     1.0000 0.44460  0.69175  0.01322  Biso   1.000  O
  O178     1.0000 0.99694  0.53670  0.31092  Biso   1.000  O
  O179     1.0000 0.77627  0.48471  0.47848  Biso   1.000  O
  O180     1.0000 0.94427  0.68851  0.53130  Biso   1.000  O
  O181     1.0000 0.97319  0.93396  0.81656  Biso   1.000  O
  O182     1.0000 0.77792  0.95984  0.99276  Biso   1.000  O
  O183     1.0000 0.95032  0.77307  0.02718  Biso   1.000  O
  O184     1.0000 0.47444  0.94067  0.72809  Biso   1.000  O
  O185     1.0000 0.27978  0.96789  0.55453  Biso   1.000  O
  O186     1.0000 0.44953  0.77583  0.52894  Biso   1.000  O
  O187     1.0000 0.49863  0.43962  0.81508  Biso   1.000  O
  O188     1.0000 0.69238  0.48646  0.98016  Biso   1.000  O
  O189     1.0000 0.52206  0.27317  0.01747  Biso   1.000  O
  O190     1.0000 0.98537  0.42975  0.72783  Biso   1.000  O
  O191     1.0000 0.18700  0.48676  0.55863  Biso   1.000  O
  O192     1.0000 0.02118  0.27788  0.51079  Biso   1.000  O
