data_image0
_cell_length_a       46.5264
_cell_length_b       46.9624
_cell_length_c       46.6114
_cell_angle_alpha    90
_cell_angle_beta     90
_cell_angle_gamma    90

_symmetry_space_group_name_H-M    "P 1"
_symmetry_int_tables_number       1

loop_
  _symmetry_equiv_pos_as_xyz
  'x, y, z'

loop_
  _atom_site_label
  _atom_site_occupancy
  _atom_site_fract_x
  _atom_site_fract_y
  _atom_site_fract_z
  _atom_site_thermal_displace_type
  _atom_site_B_iso_or_equiv
  _atom_site_type_symbol
  C1       1.0000 0.58398  0.98033  0.34968  Biso   1.000  C
  C2       1.0000 0.34659  0.53079  0.03360  Biso   1.000  C
  C3       1.0000 0.03601  0.29842  0.58311  Biso   1.000  C
  C4       1.0000 0.08259  0.97054  0.20742  Biso   1.000  C
  C5       1.0000 0.83217  0.52917  0.53742  Biso   1.000  C
  C6       1.0000 0.53524  0.29782  0.98137  Biso   1.000  C
  C7       1.0000 0.96290  0.47243  0.35191  Biso   1.000  C
  C8       1.0000 0.20990  0.02800  0.03036  Biso   1.000  C
  C9       1.0000 0.52046  0.79920  0.58050  Biso   1.000  C
  C10      1.0000 0.46634  0.48090  0.21246  Biso   1.000  C
  C11      1.0000 0.70437  0.03036  0.53406  Biso   1.000  C
  C12      1.0000 0.02993  0.79780  0.97738  Biso   1.000  C
  C13      1.0000 0.46049  0.98528  0.70844  Biso   1.000  C
  C14      1.0000 0.71555  0.42270  0.03165  Biso   1.000  C
  C15      1.0000 0.01226  0.64854  0.47758  Biso   1.000  C
  C16      1.0000 0.96826  0.96620  0.84777  Biso   1.000  C
  C17      1.0000 0.20661  0.42718  0.53234  Biso   1.000  C
  C18      1.0000 0.53492  0.65787  0.07974  Biso   1.000  C
  C19      1.0000 0.08092  0.47184  0.71157  Biso   1.000  C
  C20      1.0000 0.84771  0.91978  0.03997  Biso   1.000  C
  C21      1.0000 0.54200  0.16079  0.47783  Biso   1.000  C
  C22      1.0000 0.58693  0.48315  0.85242  Biso   1.000  C
  C23      1.0000 0.34453  0.92323  0.52728  Biso   1.000  C
  C24      1.0000 0.03341  0.15228  0.08459  Biso   1.000  C
  C25      1.0000 0.34306  0.03224  0.53648  Biso   1.000  C
  C26      1.0000 0.52222  0.30084  0.09156  Biso   1.000  C
  C27      1.0000 0.07131  0.47074  0.35311  Biso   1.000  C
  C28      1.0000 0.84241  0.02640  0.03434  Biso   1.000  C
  C29      1.0000 0.02615  0.28830  0.47361  Biso   1.000  C
  C30      1.0000 0.57463  0.47965  0.21448  Biso   1.000  C
  C31      1.0000 0.20150  0.53212  0.52205  Biso   1.000  C
  C32      1.0000 0.02574  0.79201  0.08625  Biso   1.000  C
  C33      1.0000 0.47531  0.97568  0.35251  Biso   1.000  C
  C34      1.0000 0.70988  0.52960  0.02999  Biso   1.000  C
  C35      1.0000 0.52223  0.79148  0.47284  Biso   1.000  C
  C36      1.0000 0.97413  0.96946  0.21058  Biso   1.000  C
  C37      1.0000 0.70202  0.92162  0.53319  Biso   1.000  C
  C38      1.0000 0.52148  0.65852  0.97187  Biso   1.000  C
  C39      1.0000 0.97074  0.47892  0.71281  Biso   1.000  C
  C40      1.0000 0.21154  0.91993  0.03008  Biso   1.000  C
  C41      1.0000 0.02303  0.65578  0.58449  Biso   1.000  C
  C42      1.0000 0.47915  0.47878  0.84844  Biso   1.000  C
  C43      1.0000 0.84073  0.42352  0.53781  Biso   1.000  C
  C44      1.0000 0.03234  0.14911  0.97531  Biso   1.000  C
  C45      1.0000 0.56888  0.97055  0.71334  Biso   1.000  C
  C46      1.0000 0.34577  0.42099  0.03275  Biso   1.000  C
  C47      1.0000 0.52647  0.16098  0.58524  Biso   1.000  C
  C48      1.0000 0.07442  0.98908  0.85241  Biso   1.000  C
  C49      1.0000 0.01241  0.02897  0.85048  Biso   1.000  C
  C50      1.0000 0.84407  0.97529  0.08851  Biso   1.000  C
  C51      1.0000 0.08367  0.79822  0.03246  Biso   1.000  C
  C52      1.0000 0.52506  0.03300  0.71005  Biso   1.000  C
  C53      1.0000 0.35241  0.98543  0.47918  Biso   1.000  C
  C54      1.0000 0.57833  0.79667  0.52768  Biso   1.000  C
  C55      1.0000 0.52812  0.53262  0.84606  Biso   1.000  C
  C56      1.0000 0.70981  0.47846  0.08716  Biso   1.000  C
  C57      1.0000 0.47387  0.29745  0.03603  Biso   1.000  C
  C58      1.0000 0.02928  0.52888  0.71201  Biso   1.000  C
  C59      1.0000 0.20892  0.47653  0.47395  Biso   1.000  C
  C60      1.0000 0.97429  0.30090  0.53013  Biso   1.000  C
  C61      1.0000 0.03028  0.91616  0.21324  Biso   1.000  C
  C62      1.0000 0.21067  0.98060  0.97337  Biso   1.000  C
  C63      1.0000 0.97571  0.14978  0.03065  Biso   1.000  C
  C64      1.0000 0.53186  0.92276  0.34617  Biso   1.000  C
  C65      1.0000 0.70313  0.97326  0.59094  Biso   1.000  C
  C66      1.0000 0.47722  0.15625  0.52522  Biso   1.000  C
  C67      1.0000 0.51993  0.42752  0.21386  Biso   1.000  C
  C68      1.0000 0.35172  0.47780  0.97502  Biso   1.000  C
  C69      1.0000 0.58112  0.65599  0.02139  Biso   1.000  C
  C70      1.0000 0.01580  0.41664  0.35042  Biso   1.000  C
  C71      1.0000 0.84038  0.47416  0.59472  Biso   1.000  C
  C72      1.0000 0.07031  0.65297  0.52795  Biso   1.000  C
  C73      1.0000 0.01382  0.52410  0.35170  Biso   1.000  C
  C74      1.0000 0.33563  0.96986  0.58411  Biso   1.000  C
  C75      1.0000 0.58349  0.30079  0.04209  Biso   1.000  C
  C76      1.0000 0.52050  0.53555  0.21316  Biso   1.000  C
  C77      1.0000 0.84560  0.96865  0.98024  Biso   1.000  C
  C78      1.0000 0.08595  0.29548  0.52477  Biso   1.000  C
  C79      1.0000 0.52838  0.03198  0.35173  Biso   1.000  C
  C80      1.0000 0.20456  0.48319  0.58172  Biso   1.000  C
  C81      1.0000 0.97452  0.79282  0.03323  Biso   1.000  C
  C82      1.0000 0.03035  0.02576  0.20922  Biso   1.000  C
  C83      1.0000 0.71612  0.48145  0.97557  Biso   1.000  C
  C84      1.0000 0.46967  0.79450  0.52561  Biso   1.000  C
  C85      1.0000 0.02364  0.41938  0.71180  Biso   1.000  C
  C86      1.0000 0.70212  0.97923  0.48219  Biso   1.000  C
  C87      1.0000 0.47446  0.65438  0.03472  Biso   1.000  C
  C88      1.0000 0.53272  0.42272  0.84891  Biso   1.000  C
  C89      1.0000 0.20919  0.97505  0.08271  Biso   1.000  C
  C90      1.0000 0.96085  0.64836  0.54059  Biso   1.000  C
  C91      1.0000 0.50840  0.92458  0.70941  Biso   1.000  C
  C92      1.0000 0.83718  0.47713  0.48335  Biso   1.000  C
  C93      1.0000 0.08505  0.15341  0.02529  Biso   1.000  C
  C94      1.0000 0.03312  0.92205  0.84851  Biso   1.000  C
  C95      1.0000 0.34383  0.47549  0.08478  Biso   1.000  C
  C96      1.0000 0.58473  0.15997  0.54007  Biso   1.000  C
  C97      1.0000 0.70370  0.06246  0.53340  Biso   1.000  C
  C98      1.0000 0.53766  0.65837  0.11154  Biso   1.000  C
  C99      1.0000 0.11346  0.46897  0.71069  Biso   1.000  C
  C100     1.0000 0.21177  0.06024  0.02881  Biso   1.000  C
  C101     1.0000 0.01296  0.64821  0.44572  Biso   1.000  C
  C102     1.0000 0.61795  0.48728  0.85168  Biso   1.000  C
  C103     1.0000 0.83113  0.56069  0.53307  Biso   1.000  C
  C104     1.0000 0.03513  0.15234  0.11615  Biso   1.000  C
  C105     1.0000 0.43024  0.99371  0.70580  Biso   1.000  C
  C106     1.0000 0.34682  0.56223  0.04307  Biso   1.000  C
  C107     1.0000 0.54063  0.16128  0.44516  Biso   1.000  C
  C108     1.0000 0.93571  0.96559  0.84834  Biso   1.000  C
  C109     1.0000 0.34346  0.89131  0.52686  Biso   1.000  C
  C110     1.0000 0.53595  0.29836  0.95045  Biso   1.000  C
  C111     1.0000 0.92974  0.46891  0.35207  Biso   1.000  C
  C112     1.0000 0.84681  0.88702  0.04134  Biso   1.000  C
  C113     1.0000 0.04230  0.29736  0.61574  Biso   1.000  C
  C114     1.0000 0.43451  0.47556  0.21359  Biso   1.000  C
  C115     1.0000 0.20691  0.39535  0.53241  Biso   1.000  C
  C116     1.0000 0.02824  0.79756  0.94646  Biso   1.000  C
  C117     1.0000 0.61568  0.98204  0.35019  Biso   1.000  C
  C118     1.0000 0.71432  0.39075  0.03364  Biso   1.000  C
  C119     1.0000 0.51989  0.80107  0.61222  Biso   1.000  C
  C120     1.0000 0.11429  0.96862  0.20685  Biso   1.000  C
  C121     1.0000 0.84294  0.96925  0.12096  Biso   1.000  C
  C122     1.0000 0.11545  0.79930  0.02869  Biso   1.000  C
  C123     1.0000 0.01641  0.06031  0.84858  Biso   1.000  C
  C124     1.0000 0.35016  0.97701  0.44778  Biso   1.000  C
  C125     1.0000 0.60891  0.79496  0.53764  Biso   1.000  C
  C126     1.0000 0.52931  0.06442  0.71234  Biso   1.000  C
  C127     1.0000 0.70636  0.48040  0.11850  Biso   1.000  C
  C128     1.0000 0.44300  0.29738  0.04300  Biso   1.000  C
  C129     1.0000 0.51820  0.56321  0.84711  Biso   1.000  C
  C130     1.0000 0.20745  0.47674  0.44200  Biso   1.000  C
  C131     1.0000 0.94228  0.29982  0.53000  Biso   1.000  C
  C132     1.0000 0.03480  0.56163  0.71257  Biso   1.000  C
  C133     1.0000 0.20919  0.98644  0.94192  Biso   1.000  C
  C134     1.0000 0.94349  0.14908  0.02531  Biso   1.000  C
  C135     1.0000 0.02443  0.88545  0.21326  Biso   1.000  C
  C136     1.0000 0.70173  0.97145  0.62277  Biso   1.000  C
  C137     1.0000 0.44475  0.15663  0.52547  Biso   1.000  C
  C138     1.0000 0.52950  0.89136  0.34611  Biso   1.000  C
  C139     1.0000 0.35193  0.48066  0.94284  Biso   1.000  C
  C140     1.0000 0.61305  0.65470  0.01583  Biso   1.000  C
  C141     1.0000 0.52671  0.39677  0.21647  Biso   1.000  C
  C142     1.0000 0.84209  0.47807  0.62579  Biso   1.000  C
  C143     1.0000 0.10202  0.65473  0.52521  Biso   1.000  C
  C144     1.0000 0.02035  0.38442  0.35004  Biso   1.000  C
  C145     1.0000 0.34272  0.47813  0.11690  Biso   1.000  C
  C146     1.0000 0.11820  0.29681  0.52845  Biso   1.000  C
  C147     1.0000 0.52687  0.06381  0.35184  Biso   1.000  C
  C148     1.0000 0.83811  0.47632  0.45160  Biso   1.000  C
  C149     1.0000 0.61540  0.29908  0.03885  Biso   1.000  C
  C150     1.0000 0.03143  0.05774  0.21061  Biso   1.000  C
  C151     1.0000 0.20847  0.97597  0.11407  Biso   1.000  C
  C152     1.0000 0.43785  0.79357  0.52793  Biso   1.000  C
  C153     1.0000 0.01103  0.55554  0.35060  Biso   1.000  C
  C154     1.0000 0.70310  0.98912  0.45053  Biso   1.000  C
  C155     1.0000 0.94182  0.79223  0.03503  Biso   1.000  C
  C156     1.0000 0.51816  0.56761  0.21147  Biso   1.000  C
  C157     1.0000 0.71719  0.48940  0.94430  Biso   1.000  C
  C158     1.0000 0.92944  0.64842  0.54858  Biso   1.000  C
  C159     1.0000 0.50780  0.89202  0.70769  Biso   1.000  C
  C160     1.0000 0.20602  0.48261  0.61410  Biso   1.000  C
  C161     1.0000 0.44266  0.65436  0.03769  Biso   1.000  C
  C162     1.0000 0.03301  0.89058  0.84886  Biso   1.000  C
  C163     1.0000 0.84479  0.96414  0.94867  Biso   1.000  C
  C164     1.0000 0.61741  0.15991  0.54041  Biso   1.000  C
  C165     1.0000 0.02426  0.38811  0.71020  Biso   1.000  C
  C166     1.0000 0.33395  0.97040  0.61747  Biso   1.000  C
  C167     1.0000 0.11664  0.15537  0.02152  Biso   1.000  C
  C168     1.0000 0.52999  0.39160  0.85011  Biso   1.000  C
  C169     1.0000 0.02044  0.79255  0.11759  Biso   1.000  C
  C170     1.0000 0.10563  0.99691  0.85373  Biso   1.000  C
  C171     1.0000 0.84354  0.05928  0.02978  Biso   1.000  C
  C172     1.0000 0.52027  0.79178  0.44099  Biso   1.000  C
  C173     1.0000 0.60102  0.96524  0.71361  Biso   1.000  C
  C174     1.0000 0.34628  0.06365  0.53402  Biso   1.000  C
  C175     1.0000 0.51667  0.30148  0.12350  Biso   1.000  C
  C176     1.0000 0.44775  0.47767  0.84865  Biso   1.000  C
  C177     1.0000 0.70773  0.56020  0.02440  Biso   1.000  C
  C178     1.0000 0.02404  0.28729  0.44144  Biso   1.000  C
  C179     1.0000 0.94088  0.48664  0.71505  Biso   1.000  C
  C180     1.0000 0.20064  0.56399  0.52203  Biso   1.000  C
  C181     1.0000 0.03315  0.15149  0.94191  Biso   1.000  C
  C182     1.0000 0.94195  0.96780  0.21238  Biso   1.000  C
  C183     1.0000 0.21218  0.88974  0.03512  Biso   1.000  C
  C184     1.0000 0.52876  0.16234  0.61765  Biso   1.000  C
  C185     1.0000 0.44322  0.96844  0.35318  Biso   1.000  C
  C186     1.0000 0.70216  0.88982  0.53726  Biso   1.000  C
  C187     1.0000 0.51873  0.65789  0.93975  Biso   1.000  C
  C188     1.0000 0.60701  0.48040  0.21534  Biso   1.000  C
  C189     1.0000 0.34673  0.38996  0.04056  Biso   1.000  C
  C190     1.0000 0.02665  0.65765  0.61725  Biso   1.000  C
  C191     1.0000 0.10399  0.46809  0.35241  Biso   1.000  C
  C192     1.0000 0.84279  0.39223  0.54000  Biso   1.000  C
  C193     1.0000 0.87194  0.96292  0.93218  Biso   1.000  C
  C194     1.0000 0.92634  0.81948  0.03648  Biso   1.000  C
  C195     1.0000 0.03003  0.87378  0.87561  Biso   1.000  C
  C196     1.0000 0.36025  0.97322  0.63298  Biso   1.000  C
  C197     1.0000 0.42125  0.82089  0.52660  Biso   1.000  C
  C198     1.0000 0.51098  0.87769  0.68078  Biso   1.000  C
  C199     1.0000 0.68887  0.48680  0.92933  Biso   1.000  C
  C200     1.0000 0.63120  0.32597  0.03728  Biso   1.000  C
  C201     1.0000 0.53629  0.37601  0.87801  Biso   1.000  C
  C202     1.0000 0.18068  0.47797  0.63029  Biso   1.000  C
  C203     1.0000 0.13220  0.32485  0.52888  Biso   1.000  C
  C204     1.0000 0.02542  0.37172  0.68323  Biso   1.000  C
  C205     1.0000 0.18263  0.97510  0.12955  Biso   1.000  C
  C206     1.0000 0.13329  0.12854  0.02141  Biso   1.000  C
  C207     1.0000 0.03436  0.07456  0.18474  Biso   1.000  C
  C208     1.0000 0.67944  0.98543  0.43190  Biso   1.000  C
  C209     1.0000 0.63250  0.13271  0.53976  Biso   1.000  C
  C210     1.0000 0.53048  0.07934  0.37928  Biso   1.000  C
  C211     1.0000 0.36912  0.47933  0.13416  Biso   1.000  C
  C212     1.0000 0.42663  0.62777  0.03616  Biso   1.000  C
  C213     1.0000 0.52367  0.58009  0.18358  Biso   1.000  C
  C214     1.0000 0.86454  0.47463  0.43618  Biso   1.000  C
  C215     1.0000 0.91209  0.62245  0.54319  Biso   1.000  C
  C216     1.0000 0.01209  0.57017  0.37816  Biso   1.000  C
  C217     1.0000 0.12376  0.99229  0.87919  Biso   1.000  C
  C218     1.0000 0.87079  0.07472  0.02959  Biso   1.000  C
  C219     1.0000 0.01808  0.81892  0.13427  Biso   1.000  C
  C220     1.0000 0.61876  0.96684  0.68814  Biso   1.000  C
  C221     1.0000 0.37391  0.07763  0.53330  Biso   1.000  C
  C222     1.0000 0.52228  0.81905  0.42442  Biso   1.000  C
  C223     1.0000 0.43092  0.47547  0.87654  Biso   1.000  C
  C224     1.0000 0.68021  0.57567  0.02093  Biso   1.000  C
  C225     1.0000 0.51713  0.32772  0.13910  Biso   1.000  C
  C226     1.0000 0.92205  0.48249  0.68927  Biso   1.000  C
  C227     1.0000 0.17149  0.57873  0.52358  Biso   1.000  C
  C228     1.0000 0.02288  0.31527  0.42564  Biso   1.000  C
  C229     1.0000 0.92254  0.96587  0.18585  Biso   1.000  C
  C230     1.0000 0.18461  0.87259  0.03406  Biso   1.000  C
  C231     1.0000 0.03046  0.12547  0.92525  Biso   1.000  C
  C232     1.0000 0.42741  0.97124  0.37988  Biso   1.000  C
  C233     1.0000 0.67665  0.87135  0.53356  Biso   1.000  C
  C234     1.0000 0.53214  0.13474  0.63316  Biso   1.000  C
  C235     1.0000 0.62407  0.47934  0.18674  Biso   1.000  C
  C236     1.0000 0.37503  0.37475  0.04328  Biso   1.000  C
  C237     1.0000 0.51716  0.62996  0.92505  Biso   1.000  C
  C238     1.0000 0.12174  0.47098  0.37849  Biso   1.000  C
  C239     1.0000 0.86996  0.37727  0.53803  Biso   1.000  C
  C240     1.0000 0.02993  0.62975  0.63440  Biso   1.000  C
  C241     1.0000 0.63352  0.48674  0.87839  Biso   1.000  C
  C242     1.0000 0.85783  0.57585  0.53532  Biso   1.000  C
  C243     1.0000 0.51917  0.82825  0.62845  Biso   1.000  C
  C244     1.0000 0.12918  0.47055  0.68379  Biso   1.000  C
  C245     1.0000 0.37398  0.57808  0.03864  Biso   1.000  C
  C246     1.0000 0.02673  0.82480  0.92957  Biso   1.000  C
  C247     1.0000 0.92156  0.96581  0.87641  Biso   1.000  C
  C248     1.0000 0.67763  0.08027  0.53758  Biso   1.000  C
  C249     1.0000 0.03794  0.32215  0.63256  Biso   1.000  C
  C250     1.0000 0.41402  0.98533  0.68073  Biso   1.000  C
  C251     1.0000 0.18577  0.07727  0.02637  Biso   1.000  C
  C252     1.0000 0.53700  0.32468  0.93380  Biso   1.000  C
  C253     1.0000 0.41827  0.47889  0.18730  Biso   1.000  C
  C254     1.0000 0.18052  0.37824  0.53345  Biso   1.000  C
  C255     1.0000 0.53758  0.13395  0.42968  Biso   1.000  C
  C256     1.0000 0.91387  0.46910  0.38054  Biso   1.000  C
  C257     1.0000 0.68535  0.37591  0.03344  Biso   1.000  C
  C258     1.0000 0.03249  0.12444  0.13211  Biso   1.000  C
  C259     1.0000 0.13092  0.97130  0.18098  Biso   1.000  C
  C260     1.0000 0.37082  0.87550  0.52906  Biso   1.000  C
  C261     1.0000 0.01422  0.62199  0.42898  Biso   1.000  C
  C262     1.0000 0.63042  0.98624  0.37781  Biso   1.000  C
  C263     1.0000 0.87368  0.87072  0.03898  Biso   1.000  C
  C264     1.0000 0.53530  0.63188  0.12754  Biso   1.000  C
  C265     1.0000 0.02136  0.07654  0.87438  Biso   1.000  C
  C266     1.0000 0.87009  0.96557  0.13722  Biso   1.000  C
  C267     1.0000 0.13347  0.82431  0.03038  Biso   1.000  C
  C268     1.0000 0.52915  0.08262  0.68539  Biso   1.000  C
  C269     1.0000 0.37640  0.97541  0.43063  Biso   1.000  C
  C270     1.0000 0.62636  0.82082  0.53422  Biso   1.000  C
  C271     1.0000 0.51634  0.57837  0.87337  Biso   1.000  C
  C272     1.0000 0.67868  0.47848  0.13291  Biso   1.000  C
  C273     1.0000 0.42625  0.32396  0.04269  Biso   1.000  C
  C274     1.0000 0.03565  0.57851  0.68555  Biso   1.000  C
  C275     1.0000 0.17837  0.47737  0.42804  Biso   1.000  C
  C276     1.0000 0.92465  0.32675  0.53287  Biso   1.000  C
  C277     1.0000 0.02104  0.87016  0.18637  Biso   1.000  C
  C278     1.0000 0.18035  0.98707  0.92743  Biso   1.000  C
  C279     1.0000 0.92724  0.12307  0.02780  Biso   1.000  C
  C280     1.0000 0.52727  0.87366  0.37348  Biso   1.000  C
  C281     1.0000 0.67374  0.97282  0.63723  Biso   1.000  C
  C282     1.0000 0.42864  0.13056  0.53113  Biso   1.000  C
  C283     1.0000 0.52162  0.38028  0.18933  Biso   1.000  C
  C284     1.0000 0.37897  0.47965  0.92800  Biso   1.000  C
  C285     1.0000 0.62926  0.62888  0.01670  Biso   1.000  C
  C286     1.0000 0.02248  0.36840  0.37619  Biso   1.000  C
  C287     1.0000 0.87012  0.48001  0.64031  Biso   1.000  C
  C288     1.0000 0.11916  0.62894  0.52494  Biso   1.000  C
  C289     1.0000 0.36955  0.84376  0.52639  Biso   1.000  C
  C290     1.0000 0.53446  0.32364  0.90147  Biso   1.000  C
  C291     1.0000 0.88300  0.46962  0.38182  Biso   1.000  C
  C292     1.0000 0.87340  0.84008  0.03608  Biso   1.000  C
  C293     1.0000 0.03776  0.31931  0.66493  Biso   1.000  C
  C294     1.0000 0.38673  0.47844  0.18845  Biso   1.000  C
  C295     1.0000 0.18411  0.34798  0.53074  Biso   1.000  C
  C296     1.0000 0.03066  0.82182  0.89765  Biso   1.000  C
  C297     1.0000 0.66175  0.98982  0.37968  Biso   1.000  C
  C298     1.0000 0.68488  0.34504  0.03399  Biso   1.000  C
  C299     1.0000 0.51471  0.82701  0.65984  Biso   1.000  C
  C300     1.0000 0.16237  0.96876  0.18254  Biso   1.000  C
  C301     1.0000 0.68335  0.11102  0.53438  Biso   1.000  C
  C302     1.0000 0.53056  0.63201  0.15909  Biso   1.000  C
  C303     1.0000 0.16131  0.47223  0.68416  Biso   1.000  C
  C304     1.0000 0.18603  0.10877  0.02608  Biso   1.000  C
  C305     1.0000 0.01414  0.62365  0.39737  Biso   1.000  C
  C306     1.0000 0.66618  0.48902  0.87682  Biso   1.000  C
  C307     1.0000 0.85868  0.60568  0.53978  Biso   1.000  C
  C308     1.0000 0.03130  0.12633  0.16312  Biso   1.000  C
  C309     1.0000 0.38285  0.98492  0.68249  Biso   1.000  C
  C310     1.0000 0.37471  0.60814  0.04231  Biso   1.000  C
  C311     1.0000 0.53484  0.13297  0.39836  Biso   1.000  C
  C312     1.0000 0.89043  0.96329  0.87750  Biso   1.000  C
  C313     1.0000 0.17834  0.47163  0.39579  Biso   1.000  C
  C314     1.0000 0.39727  0.13042  0.52860  Biso   1.000  C
  C315     1.0000 0.52132  0.34845  0.19044  Biso   1.000  C
  C316     1.0000 0.67770  0.47757  0.16530  Biso   1.000  C
  C317     1.0000 0.89506  0.12543  0.02687  Biso   1.000  C
  C318     1.0000 0.02586  0.33697  0.37356  Biso   1.000  C
  C319     1.0000 0.37412  0.97612  0.39954  Biso   1.000  C
  C320     1.0000 0.15016  0.63255  0.52291  Biso   1.000  C
  C321     1.0000 0.01920  0.83887  0.18679  Biso   1.000  C
  C322     1.0000 0.86940  0.97053  0.16713  Biso   1.000  C
  C323     1.0000 0.66076  0.62801  0.01518  Biso   1.000  C
  C324     1.0000 0.52564  0.84300  0.37249  Biso   1.000  C
  C325     1.0000 0.86946  0.48939  0.67035  Biso   1.000  C
  C326     1.0000 0.65558  0.81890  0.54253  Biso   1.000  C
  C327     1.0000 0.51295  0.60935  0.87198  Biso   1.000  C
  C328     1.0000 0.37620  0.47607  0.89656  Biso   1.000  C
  C329     1.0000 0.16483  0.82182  0.03465  Biso   1.000  C
  C330     1.0000 0.03695  0.60988  0.68715  Biso   1.000  C
  C331     1.0000 0.67231  0.96578  0.66874  Biso   1.000  C
  C332     1.0000 0.89350  0.32387  0.53407  Biso   1.000  C
  C333     1.0000 0.02562  0.10744  0.87294  Biso   1.000  C
  C334     1.0000 0.17844  0.99205  0.89582  Biso   1.000  C
  C335     1.0000 0.39597  0.32294  0.04745  Biso   1.000  C
  C336     1.0000 0.52850  0.11374  0.68624  Biso   1.000  C
  C337     1.0000 0.68814  0.49085  0.89785  Biso   1.000  C
  C338     1.0000 0.88127  0.62511  0.54290  Biso   1.000  C
  C339     1.0000 0.50945  0.84716  0.68170  Biso   1.000  C
  C340     1.0000 0.18189  0.47587  0.66178  Biso   1.000  C
  C341     1.0000 0.39518  0.62996  0.04080  Biso   1.000  C
  C342     1.0000 0.03023  0.84305  0.87568  Biso   1.000  C
  C343     1.0000 0.87058  0.96335  0.90092  Biso   1.000  C
  C344     1.0000 0.66304  0.13391  0.53491  Biso   1.000  C
  C345     1.0000 0.03249  0.33986  0.68533  Biso   1.000  C
  C346     1.0000 0.35942  0.97982  0.66297  Biso   1.000  C
  C347     1.0000 0.16558  0.13013  0.02320  Biso   1.000  C
  C348     1.0000 0.53436  0.34476  0.87927  Biso   1.000  C
  C349     1.0000 0.36681  0.47808  0.16548  Biso   1.000  C
  C350     1.0000 0.16328  0.32578  0.52819  Biso   1.000  C
  C351     1.0000 0.53360  0.11118  0.37628  Biso   1.000  C
  C352     1.0000 0.86286  0.47217  0.40468  Biso   1.000  C
  C353     1.0000 0.66286  0.32396  0.03443  Biso   1.000  C
  C354     1.0000 0.03101  0.10601  0.18572  Biso   1.000  C
  C355     1.0000 0.18446  0.97157  0.16122  Biso   1.000  C
  C356     1.0000 0.38988  0.82076  0.52638  Biso   1.000  C
  C357     1.0000 0.01250  0.60129  0.37647  Biso   1.000  C
  C358     1.0000 0.68393  0.99017  0.40203  Biso   1.000  C
  C359     1.0000 0.89435  0.81737  0.03631  Biso   1.000  C
  C360     1.0000 0.52518  0.61164  0.18221  Biso   1.000  C
  C361     1.0000 0.02949  0.12836  0.89333  Biso   1.000  C
  C362     1.0000 0.89207  0.97010  0.18795  Biso   1.000  C
  C363     1.0000 0.18689  0.84228  0.03679  Biso   1.000  C
  C364     1.0000 0.52871  0.13580  0.66533  Biso   1.000  C
  C365     1.0000 0.39582  0.97365  0.37767  Biso   1.000  C
  C366     1.0000 0.67775  0.84117  0.54162  Biso   1.000  C
  C367     1.0000 0.51301  0.63116  0.89328  Biso   1.000  C
  C368     1.0000 0.65611  0.47803  0.18697  Biso   1.000  C
  C369     1.0000 0.37324  0.34412  0.04765  Biso   1.000  C
  C370     1.0000 0.03409  0.63117  0.66498  Biso   1.000  C
  C371     1.0000 0.15439  0.46927  0.37505  Biso   1.000  C
  C372     1.0000 0.87136  0.34481  0.53498  Biso   1.000  C
  C373     1.0000 0.01635  0.81789  0.16490  Biso   1.000  C
  C374     1.0000 0.15445  0.99521  0.87634  Biso   1.000  C
  C375     1.0000 0.87136  0.10574  0.02630  Biso   1.000  C
  C376     1.0000 0.52271  0.82085  0.39363  Biso   1.000  C
  C377     1.0000 0.64994  0.96570  0.68943  Biso   1.000  C
  C378     1.0000 0.37495  0.10937  0.52942  Biso   1.000  C
  C379     1.0000 0.51870  0.32738  0.16923  Biso   1.000  C
  C380     1.0000 0.39919  0.47532  0.87613  Biso   1.000  C
  C381     1.0000 0.68209  0.60691  0.01883  Biso   1.000  C
  C382     1.0000 0.02591  0.31474  0.39491  Biso   1.000  C
  C383     1.0000 0.89181  0.49167  0.69096  Biso   1.000  C
  C384     1.0000 0.17121  0.60979  0.52349  Biso   1.000  C
  C385     1.0000 0.21316  0.12409  0.02581  Biso   1.000  C
  C386     1.0000 0.02945  0.15388  0.17780  Biso   1.000  C
  C387     1.0000 0.17771  0.96646  0.21006  Biso   1.000  C
  C388     1.0000 0.71170  0.12559  0.52999  Biso   1.000  C
  C389     1.0000 0.53332  0.15899  0.38264  Biso   1.000  C
  C390     1.0000 0.67940  0.99261  0.35329  Biso   1.000  C
  C391     1.0000 0.34710  0.62287  0.04991  Biso   1.000  C
  C392     1.0000 0.52974  0.65911  0.17370  Biso   1.000  C
  C393     1.0000 0.37049  0.47370  0.21326  Biso   1.000  C
  C394     1.0000 0.83230  0.62274  0.54098  Biso   1.000  C
  C395     1.0000 0.01633  0.64998  0.38135  Biso   1.000  C
  C396     1.0000 0.86722  0.46941  0.35523  Biso   1.000  C
  C397     1.0000 0.84620  0.82403  0.03391  Biso   1.000  C
  C398     1.0000 0.03366  0.79470  0.88218  Biso   1.000  C
  C399     1.0000 0.87351  0.96099  0.85230  Biso   1.000  C
  C400     1.0000 0.34044  0.82928  0.52412  Biso   1.000  C
  C401     1.0000 0.51382  0.79964  0.67510  Biso   1.000  C
  C402     1.0000 0.36849  0.99285  0.70910  Biso   1.000  C
  C403     1.0000 0.71101  0.32874  0.03239  Biso   1.000  C
  C404     1.0000 0.53221  0.29663  0.88741  Biso   1.000  C
  C405     1.0000 0.68137  0.49458  0.85068  Biso   1.000  C
  C406     1.0000 0.21222  0.33258  0.53121  Biso   1.000  C
  C407     1.0000 0.04134  0.29337  0.68184  Biso   1.000  C
  C408     1.0000 0.17754  0.47258  0.70963  Biso   1.000  C
  C409     1.0000 0.16891  0.00241  0.84985  Biso   1.000  C
  C410     1.0000 0.84519  0.12306  0.02199  Biso   1.000  C
  C411     1.0000 0.01591  0.79120  0.18074  Biso   1.000  C
  C412     1.0000 0.66377  0.96004  0.71744  Biso   1.000  C
  C413     1.0000 0.34910  0.12668  0.52851  Biso   1.000  C
  C414     1.0000 0.52168  0.79447  0.37637  Biso   1.000  C
  C415     1.0000 0.38394  0.47612  0.84804  Biso   1.000  C
  C416     1.0000 0.70932  0.62293  0.01894  Biso   1.000  C
  C417     1.0000 0.52055  0.30121  0.18537  Biso   1.000  C
  C418     1.0000 0.87920  0.50093  0.71762  Biso   1.000  C
  C419     1.0000 0.19779  0.62597  0.52272  Biso   1.000  C
  C420     1.0000 0.02623  0.28804  0.37971  Biso   1.000  C
  C421     1.0000 0.87852  0.97689  0.21454  Biso   1.000  C
  C422     1.0000 0.21291  0.82550  0.04275  Biso   1.000  C
  C423     1.0000 0.03246  0.15537  0.87741  Biso   1.000  C
  C424     1.0000 0.37974  0.97324  0.35044  Biso   1.000  C
  C425     1.0000 0.70499  0.82650  0.54907  Biso   1.000  C
  C426     1.0000 0.52800  0.16270  0.68134  Biso   1.000  C
  C427     1.0000 0.67149  0.47843  0.21375  Biso   1.000  C
  C428     1.0000 0.34817  0.32786  0.05190  Biso   1.000  C
  C429     1.0000 0.51221  0.65847  0.87684  Biso   1.000  C
  C430     1.0000 0.16828  0.46456  0.34830  Biso   1.000  C
  C431     1.0000 0.84463  0.32880  0.53507  Biso   1.000  C
  C432     1.0000 0.03272  0.65800  0.67927  Biso   1.000  C
  C433     1.0000 0.02542  0.12219  0.84618  Biso   1.000  C
  C434     1.0000 0.84403  0.97794  0.18416  Biso   1.000  C
  C435     1.0000 0.17950  0.79475  0.03799  Biso   1.000  C
  C436     1.0000 0.52797  0.12789  0.71316  Biso   1.000  C
  C437     1.0000 0.34694  0.97569  0.38396  Biso   1.000  C
  C438     1.0000 0.67022  0.79338  0.55219  Biso   1.000  C
  C439     1.0000 0.50944  0.62487  0.84555  Biso   1.000  C
  C440     1.0000 0.70539  0.47672  0.18200  Biso   1.000  C
  C441     1.0000 0.38053  0.29531  0.05254  Biso   1.000  C
  C442     1.0000 0.03674  0.62479  0.71343  Biso   1.000  C
  C443     1.0000 0.20344  0.46649  0.37867  Biso   1.000  C
  C444     1.0000 0.87801  0.29715  0.53213  Biso   1.000  C
  C445     1.0000 0.02000  0.82284  0.21409  Biso   1.000  C
  C446     1.0000 0.20407  0.99892  0.87956  Biso   1.000  C
  C447     1.0000 0.88136  0.15283  0.02121  Biso   1.000  C
  C448     1.0000 0.52904  0.82837  0.34527  Biso   1.000  C
  C449     1.0000 0.69815  0.95977  0.68524  Biso   1.000  C
  C450     1.0000 0.38348  0.15737  0.52445  Biso   1.000  C
  C451     1.0000 0.52577  0.33295  0.21685  Biso   1.000  C
  C452     1.0000 0.34994  0.47702  0.88008  Biso   1.000  C
  C453     1.0000 0.67595  0.65513  0.01427  Biso   1.000  C
  C454     1.0000 0.02596  0.32258  0.34683  Biso   1.000  C
  C455     1.0000 0.84410  0.49625  0.68559  Biso   1.000  C
  C456     1.0000 0.16578  0.65943  0.51969  Biso   1.000  C
  C457     1.0000 0.01324  0.61738  0.34863  Biso   1.000  C
  C458     1.0000 0.33318  0.98289  0.67838  Biso   1.000  C
  C459     1.0000 0.67753  0.29641  0.03433  Biso   1.000  C
  C460     1.0000 0.52359  0.62863  0.20827  Biso   1.000  C
  C461     1.0000 0.84278  0.96259  0.88731  Biso   1.000  C
  C462     1.0000 0.18065  0.29965  0.52782  Biso   1.000  C
  C463     1.0000 0.53044  0.12544  0.34950  Biso   1.000  C
  C464     1.0000 0.20908  0.47691  0.67688  Biso   1.000  C
  C465     1.0000 0.87847  0.79183  0.03383  Biso   1.000  C
  C466     1.0000 0.02749  0.12103  0.21248  Biso   1.000  C
  C467     1.0000 0.71430  0.49783  0.88412  Biso   1.000  C
  C468     1.0000 0.37146  0.79570  0.52349  Biso   1.000  C
  C469     1.0000 0.03461  0.32562  0.71303  Biso   1.000  C
  C470     1.0000 0.71071  0.99526  0.38750  Biso   1.000  C
  C471     1.0000 0.38022  0.65568  0.04772  Biso   1.000  C
  C472     1.0000 0.53011  0.32819  0.85268  Biso   1.000  C
  C473     1.0000 0.21107  0.97158  0.17771  Biso   1.000  C
  C474     1.0000 0.86764  0.65241  0.54807  Biso   1.000  C
  C475     1.0000 0.50918  0.83028  0.70790  Biso   1.000  C
  C476     1.0000 0.83621  0.47314  0.38913  Biso   1.000  C
  C477     1.0000 0.18156  0.15710  0.02417  Biso   1.000  C
  C478     1.0000 0.03161  0.82682  0.84827  Biso   1.000  C
  C479     1.0000 0.33906  0.47378  0.18000  Biso   1.000  C
  C480     1.0000 0.67925  0.16008  0.53095  Biso   1.000  C
  C481     1.0000 0.38862  0.76802  0.52850  Biso   1.000  C
  C482     1.0000 0.52417  0.34294  0.82437  Biso   1.000  C
  C483     1.0000 0.80859  0.47443  0.40528  Biso   1.000  C
  C484     1.0000 0.89389  0.76395  0.03315  Biso   1.000  C
  C485     1.0000 0.03017  0.34050  0.74128  Biso   1.000  C
  C486     1.0000 0.31211  0.47165  0.16208  Biso   1.000  C
  C487     1.0000 0.16697  0.27024  0.52872  Biso   1.000  C
  C488     1.0000 0.03399  0.84217  0.82092  Biso   1.000  C
  C489     1.0000 0.73462  0.99970  0.40701  Biso   1.000  C
  C490     1.0000 0.66134  0.26917  0.03882  Biso   1.000  C
  C491     1.0000 0.50638  0.84421  0.73555  Biso   1.000  C
  C492     1.0000 0.23822  0.97132  0.16164  Biso   1.000  C
  C493     1.0000 0.66400  0.18807  0.53252  Biso   1.000  C
  C494     1.0000 0.51952  0.61500  0.23570  Biso   1.000  C
  C495     1.0000 0.23577  0.48360  0.66098  Biso   1.000  C
  C496     1.0000 0.16249  0.18338  0.02409  Biso   1.000  C
  C497     1.0000 0.01230  0.60193  0.32237  Biso   1.000  C
  C498     1.0000 0.74201  0.49910  0.89853  Biso   1.000  C
  C499     1.0000 0.88498  0.67786  0.55582  Biso   1.000  C
  C500     1.0000 0.02374  0.10345  0.23961  Biso   1.000  C
  C501     1.0000 0.30580  0.97605  0.66379  Biso   1.000  C
  C502     1.0000 0.39634  0.68131  0.05271  Biso   1.000  C
  C503     1.0000 0.52560  0.10946  0.32274  Biso   1.000  C
  C504     1.0000 0.81534  0.96232  0.90345  Biso   1.000  C
  C505     1.0000 0.66443  0.49543  0.82315  Biso   1.000  C
  C506     1.0000 0.80449  0.60712  0.53563  Biso   1.000  C
  C507     1.0000 0.51500  0.77319  0.66031  Biso   1.000  C
  C508     1.0000 0.16398  0.46651  0.73782  Biso   1.000  C
  C509     1.0000 0.32018  0.60594  0.05417  Biso   1.000  C
  C510     1.0000 0.03368  0.76892  0.89933  Biso   1.000  C
  C511     1.0000 0.88838  0.96203  0.82432  Biso   1.000  C
  C512     1.0000 0.73644  0.10824  0.52530  Biso   1.000  C
  C513     1.0000 0.04585  0.26810  0.66429  Biso   1.000  C
  C514     1.0000 0.38477  0.00573  0.73297  Biso   1.000  C
  C515     1.0000 0.24057  0.10737  0.02681  Biso   1.000  C
  C516     1.0000 0.53261  0.26987  0.90296  Biso   1.000  C
  C517     1.0000 0.38681  0.47000  0.24097  Biso   1.000  C
  C518     1.0000 0.23880  0.34975  0.53302  Biso   1.000  C
  C519     1.0000 0.53813  0.18574  0.39700  Biso   1.000  C
  C520     1.0000 0.88163  0.46945  0.32748  Biso   1.000  C
  C521     1.0000 0.73910  0.34270  0.02831  Biso   1.000  C
  C522     1.0000 0.03330  0.18093  0.16163  Biso   1.000  C
  C523     1.0000 0.16102  0.96255  0.23552  Biso   1.000  C
  C524     1.0000 0.31417  0.84606  0.52155  Biso   1.000  C
  C525     1.0000 0.01520  0.67616  0.39873  Biso   1.000  C
  C526     1.0000 0.66392  0.98935  0.32483  Biso   1.000  C
  C527     1.0000 0.81908  0.83988  0.03796  Biso   1.000  C
  C528     1.0000 0.53194  0.68736  0.15760  Biso   1.000  C
  C529     1.0000 0.81772  0.10777  0.02494  Biso   1.000  C
  C530     1.0000 0.01807  0.76438  0.16443  Biso   1.000  C
  C531     1.0000 0.15127  0.00758  0.82613  Biso   1.000  C
  C532     1.0000 0.32022  0.11246  0.52854  Biso   1.000  C
  C533     1.0000 0.52016  0.76577  0.39323  Biso   1.000  C
  C534     1.0000 0.64615  0.95824  0.74438  Biso   1.000  C
  C535     1.0000 0.73612  0.60736  0.01910  Biso   1.000  C
  C536     1.0000 0.51765  0.27326  0.17172  Biso   1.000  C
  C537     1.0000 0.39984  0.47563  0.82101  Biso   1.000  C
  C538     1.0000 0.22641  0.61179  0.52270  Biso   1.000  C
  C539     1.0000 0.02552  0.26047  0.39452  Biso   1.000  C
  C540     1.0000 0.89864  0.50726  0.74343  Biso   1.000  C
  C541     1.0000 0.23840  0.84343  0.04971  Biso   1.000  C
  C542     1.0000 0.03952  0.18082  0.89521  Biso   1.000  C
  C543     1.0000 0.89624  0.97663  0.24202  Biso   1.000  C
  C544     1.0000 0.73018  0.84421  0.54826  Biso   1.000  C
  C545     1.0000 0.52256  0.18891  0.66520  Biso   1.000  C
  C546     1.0000 0.39636  0.96983  0.32462  Biso   1.000  C
  C547     1.0000 0.32157  0.34470  0.05133  Biso   1.000  C
  C548     1.0000 0.51733  0.68549  0.89194  Biso   1.000  C
  C549     1.0000 0.65553  0.48321  0.24196  Biso   1.000  C
  C550     1.0000 0.81726  0.34417  0.53668  Biso   1.000  C
  C551     1.0000 0.02904  0.68506  0.66400  Biso   1.000  C
  C552     1.0000 0.14893  0.46211  0.32250  Biso   1.000  C
  C553     1.0000 0.01919  0.10614  0.81870  Biso   1.000  C
  C554     1.0000 0.81667  0.97868  0.16748  Biso   1.000  C
  C555     1.0000 0.16144  0.76887  0.03305  Biso   1.000  C
  C556     1.0000 0.53098  0.11012  0.73935  Biso   1.000  C
  C557     1.0000 0.31998  0.97622  0.40086  Biso   1.000  C
  C558     1.0000 0.65282  0.76748  0.55786  Biso   1.000  C
  C559     1.0000 0.50489  0.60903  0.81861  Biso   1.000  C
  C560     1.0000 0.73206  0.47652  0.16619  Biso   1.000  C
  C561     1.0000 0.39639  0.26854  0.05034  Biso   1.000  C
  C562     1.0000 0.03753  0.60915  0.74004  Biso   1.000  C
  C563     1.0000 0.23139  0.46937  0.39286  Biso   1.000  C
  C564     1.0000 0.89572  0.27050  0.52991  Biso   1.000  C
  C565     1.0000 0.02187  0.83821  0.24062  Biso   1.000  C
  C566     1.0000 0.23381  0.99610  0.89284  Biso   1.000  C
  C567     1.0000 0.89882  0.17796  0.01726  Biso   1.000  C
  C568     1.0000 0.53168  0.84519  0.31910  Biso   1.000  C
  C569     1.0000 0.72766  0.96192  0.67047  Biso   1.000  C
  C570     1.0000 0.39992  0.18226  0.51537  Biso   1.000  C
  C571     1.0000 0.53061  0.35008  0.24547  Biso   1.000  C
  C572     1.0000 0.32328  0.48205  0.89559  Biso   1.000  C
  C573     1.0000 0.66071  0.68295  0.01455  Biso   1.000  C
  C574     1.0000 0.02304  0.33924  0.32073  Biso   1.000  C
  C575     1.0000 0.81464  0.49397  0.67195  Biso   1.000  C
  C576     1.0000 0.14801  0.68521  0.51994  Biso   1.000  C
  C577     1.0000 0.31509  0.47526  0.13158  Biso   1.000  C
  C578     1.0000 0.13526  0.26987  0.52908  Biso   1.000  C
  C579     1.0000 0.52624  0.07894  0.32399  Biso   1.000  C
  C580     1.0000 0.80967  0.47519  0.43648  Biso   1.000  C
  C581     1.0000 0.63062  0.27018  0.03808  Biso   1.000  C
  C582     1.0000 0.02329  0.07179  0.23857  Biso   1.000  C
  C583     1.0000 0.23645  0.97423  0.13088  Biso   1.000  C
  C584     1.0000 0.41954  0.76753  0.52982  Biso   1.000  C
  C585     1.0000 0.00838  0.57177  0.32334  Biso   1.000  C
  C586     1.0000 0.73165  0.99670  0.43780  Biso   1.000  C
  C587     1.0000 0.92653  0.76466  0.03465  Biso   1.000  C
  C588     1.0000 0.51514  0.58404  0.23760  Biso   1.000  C
  C589     1.0000 0.74418  0.49665  0.92897  Biso   1.000  C
  C590     1.0000 0.91621  0.67482  0.55722  Biso   1.000  C
  C591     1.0000 0.50539  0.87565  0.73557  Biso   1.000  C
  C592     1.0000 0.23526  0.48453  0.62863  Biso   1.000  C
  C593     1.0000 0.42683  0.68104  0.04763  Biso   1.000  C
  C594     1.0000 0.03473  0.87384  0.82108  Biso   1.000  C
  C595     1.0000 0.81586  0.96266  0.93436  Biso   1.000  C
  C596     1.0000 0.63340  0.18746  0.53637  Biso   1.000  C
  C597     1.0000 0.02412  0.37115  0.73754  Biso   1.000  C
  C598     1.0000 0.30685  0.97201  0.63280  Biso   1.000  C
  C599     1.0000 0.13034  0.18385  0.02145  Biso   1.000  C
  C600     1.0000 0.52331  0.37476  0.82370  Biso   1.000  C
  C601     1.0000 0.23413  0.99026  0.92360  Biso   1.000  C
  C602     1.0000 0.93016  0.17688  0.01878  Biso   1.000  C
  C603     1.0000 0.02351  0.86962  0.24069  Biso   1.000  C
  C604     1.0000 0.72821  0.96660  0.64019  Biso   1.000  C
  C605     1.0000 0.43092  0.18319  0.51572  Biso   1.000  C
  C606     1.0000 0.52865  0.87546  0.31779  Biso   1.000  C
  C607     1.0000 0.32375  0.48347  0.92695  Biso   1.000  C
  C608     1.0000 0.62862  0.68237  0.01516  Biso   1.000  C
  C609     1.0000 0.53110  0.38138  0.24454  Biso   1.000  C
  C610     1.0000 0.81493  0.48406  0.64177  Biso   1.000  C
  C611     1.0000 0.11620  0.68391  0.52334  Biso   1.000  C
  C612     1.0000 0.02040  0.37018  0.32164  Biso   1.000  C
  C613     1.0000 0.81573  0.97390  0.13649  Biso   1.000  C
  C614     1.0000 0.13032  0.77164  0.02831  Biso   1.000  C
  C615     1.0000 0.01544  0.07448  0.82116  Biso   1.000  C
  C616     1.0000 0.32103  0.97374  0.43357  Biso   1.000  C
  C617     1.0000 0.62127  0.76834  0.54982  Biso   1.000  C
  C618     1.0000 0.53168  0.07891  0.73867  Biso   1.000  C
  C619     1.0000 0.73323  0.47973  0.13512  Biso   1.000  C
  C620     1.0000 0.42809  0.26867  0.04844  Biso   1.000  C
  C621     1.0000 0.51102  0.57784  0.81973  Biso   1.000  C
  C622     1.0000 0.23401  0.47350  0.42485  Biso   1.000  C
  C623     1.0000 0.92777  0.27200  0.53022  Biso   1.000  C
  C624     1.0000 0.03749  0.57766  0.73940  Biso   1.000  C
  C625     1.0000 0.03934  0.17816  0.92760  Biso   1.000  C
  C626     1.0000 0.92744  0.97078  0.24099  Biso   1.000  C
  C627     1.0000 0.23826  0.87455  0.04588  Biso   1.000  C
  C628     1.0000 0.52498  0.18996  0.63336  Biso   1.000  C
  C629     1.0000 0.42693  0.96494  0.32662  Biso   1.000  C
  C630     1.0000 0.72873  0.87616  0.54535  Biso   1.000  C
  C631     1.0000 0.51838  0.68576  0.92462  Biso   1.000  C
  C632     1.0000 0.62332  0.48240  0.24254  Biso   1.000  C
  C633     1.0000 0.32039  0.37485  0.04378  Biso   1.000  C
  C634     1.0000 0.02631  0.68553  0.63261  Biso   1.000  C
  C635     1.0000 0.11733  0.46398  0.32455  Biso   1.000  C
  C636     1.0000 0.81606  0.37452  0.53943  Biso   1.000  C
  C637     1.0000 0.02025  0.76522  0.13264  Biso   1.000  C
  C638     1.0000 0.11963  0.00660  0.82701  Biso   1.000  C
  C639     1.0000 0.81725  0.07591  0.02782  Biso   1.000  C
  C640     1.0000 0.52162  0.76510  0.42476  Biso   1.000  C
  C641     1.0000 0.61454  0.96125  0.74204  Biso   1.000  C
  C642     1.0000 0.31985  0.08131  0.53355  Biso   1.000  C
  C643     1.0000 0.51627  0.27402  0.14022  Biso   1.000  C
  C644     1.0000 0.43127  0.47691  0.81986  Biso   1.000  C
  C645     1.0000 0.73642  0.57594  0.02248  Biso   1.000  C
  C646     1.0000 0.02537  0.25986  0.42548  Biso   1.000  C
  C647     1.0000 0.92998  0.49815  0.74306  Biso   1.000  C
  C648     1.0000 0.22799  0.58004  0.52113  Biso   1.000  C
  C649     1.0000 0.01365  0.67539  0.42977  Biso   1.000  C
  C650     1.0000 0.41656  0.00596  0.73204  Biso   1.000  C
  C651     1.0000 0.74115  0.37355  0.03067  Biso   1.000  C
  C652     1.0000 0.53573  0.68599  0.12695  Biso   1.000  C
  C653     1.0000 0.92048  0.96393  0.82243  Biso   1.000  C
  C654     1.0000 0.23551  0.38128  0.53274  Biso   1.000  C
  C655     1.0000 0.54202  0.18756  0.42838  Biso   1.000  C
  C656     1.0000 0.13261  0.46224  0.73750  Biso   1.000  C
  C657     1.0000 0.81914  0.87070  0.04202  Biso   1.000  C
  C658     1.0000 0.03651  0.17989  0.13141  Biso   1.000  C
  C659     1.0000 0.63219  0.49247  0.82546  Biso   1.000  C
  C660     1.0000 0.31480  0.87768  0.52260  Biso   1.000  C
  C661     1.0000 0.04739  0.27058  0.63115  Biso   1.000  C
  C662     1.0000 0.63362  0.98495  0.32504  Biso   1.000  C
  C663     1.0000 0.32040  0.57633  0.05037  Biso   1.000  C
  C664     1.0000 0.53418  0.27181  0.93490  Biso   1.000  C
  C665     1.0000 0.12974  0.96408  0.23434  Biso   1.000  C
  C666     1.0000 0.80328  0.57510  0.53223  Biso   1.000  C
  C667     1.0000 0.51721  0.77370  0.62811  Biso   1.000  C
  C668     1.0000 0.91432  0.46878  0.32520  Biso   1.000  C
  C669     1.0000 0.23838  0.07606  0.02752  Biso   1.000  C
  C670     1.0000 0.03285  0.77024  0.93100  Biso   1.000  C
  C671     1.0000 0.41817  0.47117  0.23932  Biso   1.000  C
  C672     1.0000 0.73133  0.07637  0.52856  Biso   1.000  C
  C673     1.0000 0.21537  0.00763  0.83312  Biso   1.000  C
  C674     1.0000 0.83442  0.17050  0.01975  Biso   1.000  C
  C675     1.0000 0.01918  0.77713  0.22741  Biso   1.000  C
  C676     1.0000 0.71152  0.95751  0.73193  Biso   1.000  C
  C677     1.0000 0.33678  0.17386  0.52204  Biso   1.000  C
  C678     1.0000 0.52688  0.78129  0.33027  Biso   1.000  C
  C679     1.0000 0.33603  0.47687  0.83438  Biso   1.000  C
  C680     1.0000 0.72332  0.66938  0.01751  Biso   1.000  C
  C681     1.0000 0.52962  0.28732  0.23128  Biso   1.000  C
  C682     1.0000 0.83407  0.50909  0.73100  Biso   1.000  C
  C683     1.0000 0.21138  0.67388  0.51863  Biso   1.000  C
  C684     1.0000 0.02327  0.27489  0.33325  Biso   1.000  C
  C685     1.0000 0.83413  0.98583  0.23067  Biso   1.000  C
  C686     1.0000 0.22614  0.77877  0.04497  Biso   1.000  C
  C687     1.0000 0.03185  0.16779  0.82989  Biso   1.000  C
  C688     1.0000 0.33142  0.97413  0.33892  Biso   1.000  C
  C689     1.0000 0.71465  0.77808  0.55829  Biso   1.000  C
  C690     1.0000 0.52847  0.17505  0.72793  Biso   1.000  C
  C691     1.0000 0.71878  0.47602  0.22925  Biso   1.000  C
  C692     1.0000 0.33442  0.28193  0.05241  Biso   1.000  C
  C693     1.0000 0.50824  0.67128  0.83075  Biso   1.000  C
  C694     1.0000 0.21491  0.46210  0.33263  Biso   1.000  C
  C695     1.0000 0.83067  0.28237  0.52976  Biso   1.000  C
  C696     1.0000 0.03652  0.67188  0.72571  Biso   1.000  C
  C697     1.0000 0.72736  0.99433  0.34135  Biso   1.000  C
  C698     1.0000 0.33410  0.67030  0.05450  Biso   1.000  C
  C699     1.0000 0.04174  0.27984  0.73088  Biso   1.000  C
  C700     1.0000 0.22391  0.96967  0.22428  Biso   1.000  C
  C701     1.0000 0.82067  0.66940  0.54989  Biso   1.000  C
  C702     1.0000 0.53061  0.28158  0.84115  Biso   1.000  C
  C703     1.0000 0.82078  0.46961  0.34146  Biso   1.000  C
  C704     1.0000 0.22853  0.17225  0.02700  Biso   1.000  C
  C705     1.0000 0.51102  0.78305  0.71991  Biso   1.000  C
  C706     1.0000 0.32380  0.46794  0.22558  Biso   1.000  C
  C707     1.0000 0.72569  0.17239  0.52578  Biso   1.000  C
  C708     1.0000 0.03417  0.77915  0.83573  Biso   1.000  C
  C709     1.0000 0.32140  0.99419  0.72500  Biso   1.000  C
  C710     1.0000 0.72502  0.28262  0.03050  Biso   1.000  C
  C711     1.0000 0.01558  0.66574  0.33424  Biso   1.000  C
  C712     1.0000 0.82525  0.95887  0.84191  Biso   1.000  C
  C713     1.0000 0.22868  0.28616  0.52635  Biso   1.000  C
  C714     1.0000 0.52547  0.67617  0.21821  Biso   1.000  C
  C715     1.0000 0.22465  0.47658  0.72309  Biso   1.000  C
  C716     1.0000 0.83419  0.77607  0.02786  Biso   1.000  C
  C717     1.0000 0.53068  0.17177  0.33397  Biso   1.000  C
  C718     1.0000 0.72818  0.50328  0.83706  Biso   1.000  C
  C719     1.0000 0.32309  0.78259  0.52246  Biso   1.000  C
  C720     1.0000 0.02427  0.16754  0.22488  Biso   1.000  C
  C721     1.0000 0.54878  0.78118  0.30837  Biso   1.000  C
  C722     1.0000 0.33710  0.49280  0.80655  Biso   1.000  C
  C723     1.0000 0.80322  0.28521  0.54633  Biso   1.000  C
  C724     1.0000 0.00123  0.75126  0.22313  Biso   1.000  C
  C725     1.0000 0.80837  0.52786  0.72576  Biso   1.000  C
  C726     1.0000 0.31154  0.28560  0.03059  Biso   1.000  C
  C727     1.0000 0.00552  0.24856  0.33671  Biso   1.000  C
  C728     1.0000 0.24248  0.02422  0.83833  Biso   1.000  C
  C729     1.0000 0.74247  0.78282  0.57424  Biso   1.000  C
  C730     1.0000 0.51304  0.28836  0.25705  Biso   1.000  C
  C731     1.0000 0.73659  0.93854  0.72846  Biso   1.000  C
  C732     1.0000 0.25644  0.78585  0.03748  Biso   1.000  C
  C733     1.0000 0.51500  0.17011  0.75592  Biso   1.000  C
  C734     1.0000 0.71191  0.46336  0.25673  Biso   1.000  C
  C735     1.0000 0.20654  0.70147  0.50382  Biso   1.000  C
  C736     1.0000 0.02164  0.19673  0.83425  Biso   1.000  C
  C737     1.0000 0.24194  0.44609  0.33815  Biso   1.000  C
  C738     1.0000 0.74645  0.66826  0.03950  Biso   1.000  C
  C739     1.0000 0.05715  0.67124  0.74965  Biso   1.000  C
  C740     1.0000 0.80569  0.97278  0.23117  Biso   1.000  C
  C741     1.0000 0.31003  0.17001  0.50597  Biso   1.000  C
  C742     1.0000 0.52403  0.66803  0.80374  Biso   1.000  C
  C743     1.0000 0.30286  0.95772  0.34130  Biso   1.000  C
  C744     1.0000 0.84215  0.20051  0.03252  Biso   1.000  C
  C745     1.0000 0.03448  0.69088  0.33752  Biso   1.000  C
  C746     1.0000 0.29246  0.00648  0.71921  Biso   1.000  C
  C747     1.0000 0.75306  0.28420  0.04342  Biso   1.000  C
  C748     1.0000 0.54262  0.70132  0.21439  Biso   1.000  C
  C749     1.0000 0.82829  0.94281  0.81372  Biso   1.000  C
  C750     1.0000 0.25500  0.28789  0.54405  Biso   1.000  C
  C751     1.0000 0.54886  0.16793  0.30790  Biso   1.000  C
  C752     1.0000 0.25183  0.46332  0.71979  Biso   1.000  C
  C753     1.0000 0.80884  0.78016  0.00972  Biso   1.000  C
  C754     1.0000 0.03675  0.16467  0.25405  Biso   1.000  C
  C755     1.0000 0.72480  0.48785  0.80826  Biso   1.000  C
  C756     1.0000 0.29409  0.78729  0.53619  Biso   1.000  C
  C757     1.0000 0.03088  0.25167  0.72450  Biso   1.000  C
  C758     1.0000 0.72385  0.00855  0.31027  Biso   1.000  C
  C759     1.0000 0.30873  0.66768  0.07296  Biso   1.000  C
  C760     1.0000 0.54985  0.28267  0.81528  Biso   1.000  C
  C761     1.0000 0.24880  0.98915  0.22156  Biso   1.000  C
  C762     1.0000 0.82650  0.69931  0.54314  Biso   1.000  C
  C763     1.0000 0.48994  0.78217  0.74444  Biso   1.000  C
  C764     1.0000 0.79529  0.48891  0.34090  Biso   1.000  C
  C765     1.0000 0.25585  0.16542  0.04193  Biso   1.000  C
  C766     1.0000 0.01780  0.78101  0.80997  Biso   1.000  C
  C767     1.0000 0.32417  0.48263  0.25426  Biso   1.000  C
  C768     1.0000 0.71921  0.19958  0.50979  Biso   1.000  C
  C769     1.0000 0.49263  0.69749  0.83268  Biso   1.000  C
  C770     1.0000 0.83679  0.49762  0.75986  Biso   1.000  C
  C771     1.0000 0.71208  0.75065  0.54523  Biso   1.000  C
  C772     1.0000 0.01601  0.69524  0.72382  Biso   1.000  C
  C773     1.0000 0.30919  0.46197  0.83921  Biso   1.000  C
  C774     1.0000 0.21951  0.75073  0.05685  Biso   1.000  C
  C775     1.0000 0.04775  0.16186  0.80303  Biso   1.000  C
  C776     1.0000 0.71076  0.97519  0.75839  Biso   1.000  C
  C777     1.0000 0.83517  0.25686  0.51281  Biso   1.000  C
  C778     1.0000 0.54288  0.20243  0.72562  Biso   1.000  C
  C779     1.0000 0.21262  0.98890  0.80746  Biso   1.000  C
  C780     1.0000 0.33441  0.25388  0.06686  Biso   1.000  C
  C781     1.0000 0.54740  0.26207  0.22658  Biso   1.000  C
  C782     1.0000 0.21209  0.47740  0.30532  Biso   1.000  C
  C783     1.0000 0.34109  0.20005  0.53775  Biso   1.000  C
  C784     1.0000 0.03678  0.27735  0.30398  Biso   1.000  C
  C785     1.0000 0.74779  0.48905  0.22794  Biso   1.000  C
  C786     1.0000 0.80619  0.16840  0.00587  Biso   1.000  C
  C787     1.0000 0.03784  0.77866  0.25294  Biso   1.000  C
  C788     1.0000 0.33576  0.98792  0.30993  Biso   1.000  C
  C789     1.0000 0.23782  0.67243  0.53655  Biso   1.000  C
  C790     1.0000 0.50557  0.75752  0.32877  Biso   1.000  C
  C791     1.0000 0.84192  0.00239  0.25621  Biso   1.000  C
  C792     1.0000 0.72480  0.69274  0.99680  Biso   1.000  C
  C793     1.0000 0.51406  0.19860  0.33620  Biso   1.000  C
  C794     1.0000 0.29757  0.44879  0.22064  Biso   1.000  C
  C795     1.0000 0.22595  0.26207  0.50537  Biso   1.000  C
  C796     1.0000 0.00802  0.19415  0.21749  Biso   1.000  C
  C797     1.0000 0.82342  0.45002  0.31859  Biso   1.000  C
  C798     1.0000 0.72104  0.25604  0.01265  Biso   1.000  C
  C799     1.0000 0.99476  0.66514  0.31068  Biso   1.000  C
  C800     1.0000 0.22400  0.95026  0.25136  Biso   1.000  C
  C801     1.0000 0.32675  0.75432  0.50738  Biso   1.000  C
  C802     1.0000 0.50827  0.67358  0.24396  Biso   1.000  C
  C803     1.0000 0.75694  0.98091  0.34642  Biso   1.000  C
  C804     1.0000 0.83593  0.74889  0.04328  Biso   1.000  C
  C805     1.0000 0.53237  0.75898  0.71845  Biso   1.000  C
  C806     1.0000 0.75131  0.52489  0.84144  Biso   1.000  C
  C807     1.0000 0.79310  0.66253  0.56352  Biso   1.000  C
  C808     1.0000 0.05342  0.75503  0.83742  Biso   1.000  C
  C809     1.0000 0.22197  0.49127  0.75094  Biso   1.000  C
  C810     1.0000 0.33813  0.69754  0.03737  Biso   1.000  C
  C811     1.0000 0.05693  0.28347  0.75772  Biso   1.000  C
  C812     1.0000 0.79902  0.97403  0.84377  Biso   1.000  C
  C813     1.0000 0.75129  0.17064  0.54313  Biso   1.000  C
  C814     1.0000 0.50966  0.25789  0.83961  Biso   1.000  C
  C815     1.0000 0.33006  0.98492  0.75542  Biso   1.000  C
  C816     1.0000 0.22473  0.20106  0.01375  Biso   1.000  C
  C817     1.0000 0.02943  0.21807  0.81357  Biso   1.000  C
  C818     1.0000 0.78567  0.97874  0.25173  Biso   1.000  C
  C819     1.0000 0.27741  0.76410  0.04110  Biso   1.000  C
  C820     1.0000 0.51475  0.19028  0.77705  Biso   1.000  C
  C821     1.0000 0.28161  0.95886  0.31948  Biso   1.000  C
  C822     1.0000 0.76231  0.76133  0.57705  Biso   1.000  C
  C823     1.0000 0.52491  0.68932  0.78350  Biso   1.000  C
  C824     1.0000 0.73186  0.46112  0.27881  Biso   1.000  C
  C825     1.0000 0.29211  0.26335  0.02291  Biso   1.000  C
  C826     1.0000 0.05830  0.69303  0.77024  Biso   1.000  C
  C827     1.0000 0.26290  0.44568  0.31760  Biso   1.000  C
  C828     1.0000 0.78373  0.26309  0.54409  Biso   1.000  C
  C829     1.0000 0.00316  0.72829  0.24272  Biso   1.000  C
  C830     1.0000 0.26464  0.02343  0.81777  Biso   1.000  C
  C831     1.0000 0.82207  0.22143  0.03178  Biso   1.000  C
  C832     1.0000 0.54849  0.76021  0.28657  Biso   1.000  C
  C833     1.0000 0.75898  0.93883  0.74911  Biso   1.000  C
  C834     1.0000 0.29035  0.19343  0.50418  Biso   1.000  C
  C835     1.0000 0.51224  0.26431  0.27539  Biso   1.000  C
  C836     1.0000 0.31409  0.49065  0.78506  Biso   1.000  C
  C837     1.0000 0.76683  0.68960  0.04185  Biso   1.000  C
  C838     1.0000 0.00299  0.22839  0.31467  Biso   1.000  C
  C839     1.0000 0.78705  0.53107  0.74634  Biso   1.000  C
  C840     1.0000 0.22704  0.72313  0.50587  Biso   1.000  C
  C841     1.0000 0.23624  0.98934  0.78868  Biso   1.000  C
  C842     1.0000 0.78594  0.19097  0.00608  Biso   1.000  C
  C843     1.0000 0.03836  0.75559  0.27230  Biso   1.000  C
  C844     1.0000 0.73291  0.97585  0.77867  Biso   1.000  C
  C845     1.0000 0.32046  0.22158  0.53688  Biso   1.000  C
  C846     1.0000 0.50640  0.73889  0.30579  Biso   1.000  C
  C847     1.0000 0.28671  0.46090  0.81823  Biso   1.000  C
  C848     1.0000 0.74766  0.71140  0.99807  Biso   1.000  C
  C849     1.0000 0.54753  0.23983  0.24519  Biso   1.000  C
  C850     1.0000 0.81565  0.50332  0.78065  Biso   1.000  C
  C851     1.0000 0.25855  0.69468  0.53627  Biso   1.000  C
  C852     1.0000 0.03399  0.25713  0.28268  Biso   1.000  C
  C853     1.0000 0.82198  0.00294  0.27950  Biso   1.000  C
  C854     1.0000 0.24117  0.73069  0.06074  Biso   1.000  C
  C855     1.0000 0.05723  0.18275  0.78386  Biso   1.000  C
  C856     1.0000 0.31515  0.98590  0.28931  Biso   1.000  C
  C857     1.0000 0.73360  0.72977  0.54743  Biso   1.000  C
  C858     1.0000 0.54660  0.22090  0.74881  Biso   1.000  C
  C859     1.0000 0.76811  0.48564  0.24964  Biso   1.000  C
  C860     1.0000 0.31450  0.23264  0.05868  Biso   1.000  C
  C861     1.0000 0.49250  0.71803  0.81108  Biso   1.000  C
  C862     1.0000 0.23381  0.47405  0.28477  Biso   1.000  C
  C863     1.0000 0.81442  0.23502  0.51140  Biso   1.000  C
  C864     1.0000 0.01732  0.71732  0.74650  Biso   1.000  C
  C865     1.0000 0.74392  0.49692  0.78684  Biso   1.000  C
  C866     1.0000 0.80484  0.71932  0.54897  Biso   1.000  C
  C867     1.0000 0.49137  0.75974  0.76553  Biso   1.000  C
  C868     1.0000 0.27184  0.46212  0.74305  Biso   1.000  C
  C869     1.0000 0.28818  0.69073  0.07072  Biso   1.000  C
  C870     1.0000 0.01931  0.76035  0.78853  Biso   1.000  C
  C871     1.0000 0.80654  0.94191  0.79302  Biso   1.000  C
  C872     1.0000 0.74018  0.22195  0.50891  Biso   1.000  C
  C873     1.0000 0.03539  0.22853  0.74377  Biso   1.000  C
  C874     1.0000 0.27379  0.01196  0.74274  Biso   1.000  C
  C875     1.0000 0.27800  0.18610  0.04109  Biso   1.000  C
  C876     1.0000 0.54982  0.26179  0.79368  Biso   1.000  C
  C877     1.0000 0.30272  0.47706  0.27438  Biso   1.000  C
  C878     1.0000 0.27630  0.26586  0.54056  Biso   1.000  C
  C879     1.0000 0.54833  0.19083  0.28711  Biso   1.000  C
  C880     1.0000 0.77279  0.48715  0.32085  Biso   1.000  C
  C881     1.0000 0.77373  0.26304  0.04073  Biso   1.000  C
  C882     1.0000 0.03356  0.18647  0.27384  Biso   1.000  C
  C883     1.0000 0.26835  0.99151  0.24519  Biso   1.000  C
  C884     1.0000 0.27227  0.76629  0.53464  Biso   1.000  C
  C885     1.0000 0.03689  0.71027  0.31522  Biso   1.000  C
  C886     1.0000 0.74705  0.00806  0.29194  Biso   1.000  C
  C887     1.0000 0.78941  0.75818  0.00799  Biso   1.000  C
  C888     1.0000 0.54035  0.72397  0.23404  Biso   1.000  C
  C889     1.0000 0.77731  0.97829  0.32594  Biso   1.000  C
  C890     1.0000 0.31710  0.71934  0.03759  Biso   1.000  C
  C891     1.0000 0.05978  0.26051  0.77591  Biso   1.000  C
  C892     1.0000 0.24525  0.95203  0.27263  Biso   1.000  C
  C893     1.0000 0.77312  0.68442  0.57028  Biso   1.000  C
  C894     1.0000 0.51176  0.23416  0.82077  Biso   1.000  C
  C895     1.0000 0.80093  0.44898  0.29868  Biso   1.000  C
  C896     1.0000 0.24615  0.22112  0.01835  Biso   1.000  C
  C897     1.0000 0.53109  0.73647  0.73980  Biso   1.000  C
  C898     1.0000 0.27636  0.44580  0.24215  Biso   1.000  C
  C899     1.0000 0.77051  0.19285  0.54190  Biso   1.000  C
  C900     1.0000 0.05258  0.73354  0.81710  Biso   1.000  C
  C901     1.0000 0.30962  0.98931  0.77690  Biso   1.000  C
  C902     1.0000 0.74347  0.23594  0.00866  Biso   1.000  C
  C903     1.0000 0.99936  0.68551  0.28850  Biso   1.000  C
  C904     1.0000 0.77650  0.97232  0.82323  Biso   1.000  C
  C905     1.0000 0.24779  0.24162  0.50268  Biso   1.000  C
  C906     1.0000 0.50863  0.69534  0.26276  Biso   1.000  C
  C907     1.0000 0.24035  0.49079  0.77422  Biso   1.000  C
  C908     1.0000 0.81643  0.72683  0.04018  Biso   1.000  C
  C909     1.0000 0.51464  0.22026  0.31592  Biso   1.000  C
  C910     1.0000 0.77101  0.52965  0.81978  Biso   1.000  C
  C911     1.0000 0.30379  0.73316  0.50655  Biso   1.000  C
  C912     1.0000 0.00654  0.21669  0.23846  Biso   1.000  C
  C913     1.0000 0.79129  0.52043  0.77367  Biso   1.000  C
  C914     1.0000 0.75756  0.73454  0.56500  Biso   1.000  C
  C915     1.0000 0.50927  0.71393  0.78662  Biso   1.000  C
  C916     1.0000 0.28997  0.47498  0.79183  Biso   1.000  C
  C917     1.0000 0.27043  0.73792  0.05268  Biso   1.000  C
  C918     1.0000 0.03655  0.71441  0.76999  Biso   1.000  C
  C919     1.0000 0.75620  0.95642  0.77524  Biso   1.000  C
  C920     1.0000 0.78845  0.23894  0.52651  Biso   1.000  C
  C921     1.0000 0.04773  0.21096  0.79090  Biso   1.000  C
  C922     1.0000 0.26062  0.00579  0.79283  Biso   1.000  C
  C923     1.0000 0.29249  0.23751  0.03846  Biso   1.000  C
  C924     1.0000 0.53123  0.21609  0.77415  Biso   1.000  C
  C925     1.0000 0.25766  0.45786  0.29124  Biso   1.000  C
  C926     1.0000 0.29471  0.21981  0.52059  Biso   1.000  C
  C927     1.0000 0.53136  0.24073  0.27092  Biso   1.000  C
  C928     1.0000 0.75916  0.47088  0.27420  Biso   1.000  C
  C929     1.0000 0.79362  0.21708  0.02032  Biso   1.000  C
  C930     1.0000 0.01652  0.23294  0.28744  Biso   1.000  C
  C931     1.0000 0.28766  0.97365  0.29362  Biso   1.000  C
  C932     1.0000 0.25396  0.71908  0.52004  Biso   1.000  C
  C933     1.0000 0.02056  0.73135  0.26743  Biso   1.000  C
  C934     1.0000 0.79384  0.99339  0.27586  Biso   1.000  C
  C935     1.0000 0.76852  0.70962  0.02018  Biso   1.000  C
  C936     1.0000 0.52702  0.74029  0.28484  Biso   1.000  C
  C937     1.0000 0.76984  0.23888  0.02261  Biso   1.000  C
  C938     1.0000 0.01854  0.70951  0.29166  Biso   1.000  C
  C939     1.0000 0.28286  0.00199  0.77007  Biso   1.000  C
  C940     1.0000 0.27230  0.24192  0.52165  Biso   1.000  C
  C941     1.0000 0.52532  0.71931  0.26035  Biso   1.000  C
  C942     1.0000 0.78087  0.95820  0.79690  Biso   1.000  C
  C943     1.0000 0.79251  0.73080  0.02235  Biso   1.000  C
  C944     1.0000 0.53095  0.21656  0.29131  Biso   1.000  C
  C945     1.0000 0.26660  0.47545  0.76974  Biso   1.000  C
  C946     1.0000 0.27829  0.74051  0.52106  Biso   1.000  C
  C947     1.0000 0.01913  0.21208  0.26506  Biso   1.000  C
  C948     1.0000 0.76704  0.51629  0.79328  Biso   1.000  C
  C949     1.0000 0.29211  0.71431  0.05360  Biso   1.000  C
  C950     1.0000 0.05054  0.23313  0.76857  Biso   1.000  C
  C951     1.0000 0.77321  0.99381  0.29999  Biso   1.000  C
  C952     1.0000 0.78047  0.71327  0.56377  Biso   1.000  C
  C953     1.0000 0.53153  0.23815  0.79616  Biso   1.000  C
  C954     1.0000 0.26732  0.97272  0.26951  Biso   1.000  C
  C955     1.0000 0.27136  0.21366  0.03210  Biso   1.000  C
  C956     1.0000 0.51110  0.73675  0.76342  Biso   1.000  C
  C957     1.0000 0.77724  0.46771  0.30010  Biso   1.000  C
  C958     1.0000 0.76552  0.21819  0.52579  Biso   1.000  C
  C959     1.0000 0.03778  0.73736  0.79171  Biso   1.000  C
  C960     1.0000 0.28039  0.45900  0.26857  Biso   1.000  C
  Cu1      1.0000 0.02400  0.47385  0.68219  Biso   1.000  Cu
  Cu2      1.0000 0.67559  0.97522  0.53584  Biso   1.000  Cu
  Cu3      1.0000 0.52765  0.63154  0.02642  Biso   1.000  Cu
  Cu4      1.0000 0.53257  0.47785  0.87519  Biso   1.000  Cu
  Cu5      1.0000 0.18112  0.97498  0.02788  Biso   1.000  Cu
  Cu6      1.0000 0.01701  0.62440  0.53345  Biso   1.000  Cu
  Cu7      1.0000 0.51617  0.98006  0.68405  Biso   1.000  Cu
  Cu8      1.0000 0.86459  0.47744  0.53836  Biso   1.000  Cu
  Cu9      1.0000 0.03074  0.12350  0.02922  Biso   1.000  Cu
  Cu10     1.0000 0.02132  0.97481  0.87981  Biso   1.000  Cu
  Cu11     1.0000 0.37441  0.47436  0.03091  Biso   1.000  Cu
  Cu12     1.0000 0.53254  0.13181  0.53149  Biso   1.000  Cu
  Cu13     1.0000 0.01494  0.47028  0.37940  Biso   1.000  Cu
  Cu14     1.0000 0.37220  0.97903  0.53338  Biso   1.000  Cu
  Cu15     1.0000 0.52707  0.32671  0.03686  Biso   1.000  Cu
  Cu16     1.0000 0.52003  0.48031  0.18726  Biso   1.000  Cu
  Cu17     1.0000 0.87091  0.97104  0.03465  Biso   1.000  Cu
  Cu18     1.0000 0.03059  0.32295  0.52270  Biso   1.000  Cu
  Cu19     1.0000 0.53095  0.97624  0.37896  Biso   1.000  Cu
  Cu20     1.0000 0.17779  0.48029  0.52709  Biso   1.000  Cu
  Cu21     1.0000 0.02723  0.82283  0.03276  Biso   1.000  Cu
  Cu22     1.0000 0.02779  0.97107  0.18125  Biso   1.000  Cu
  Cu23     1.0000 0.68645  0.47612  0.02909  Biso   1.000  Cu
  Cu24     1.0000 0.52407  0.82470  0.52448  Biso   1.000  Cu
  Cu25     1.0000 0.23748  0.97482  0.02824  Biso   1.000  Cu
  Cu26     1.0000 0.03003  0.17737  0.03048  Biso   1.000  Cu
  Cu27     1.0000 0.02955  0.97170  0.23689  Biso   1.000  Cu
  Cu28     1.0000 0.72957  0.97668  0.53523  Biso   1.000  Cu
  Cu29     1.0000 0.53065  0.18795  0.53112  Biso   1.000  Cu
  Cu30     1.0000 0.52904  0.97752  0.32611  Biso   1.000  Cu
  Cu31     1.0000 0.32094  0.47556  0.02863  Biso   1.000  Cu
  Cu32     1.0000 0.52637  0.68402  0.02619  Biso   1.000  Cu
  Cu33     1.0000 0.51934  0.48189  0.24181  Biso   1.000  Cu
  Cu34     1.0000 0.81095  0.47339  0.53909  Biso   1.000  Cu
  Cu35     1.0000 0.01557  0.67906  0.53025  Biso   1.000  Cu
  Cu36     1.0000 0.01559  0.47041  0.32691  Biso   1.000  Cu
  Cu37     1.0000 0.81666  0.97280  0.03650  Biso   1.000  Cu
  Cu38     1.0000 0.03079  0.77044  0.03235  Biso   1.000  Cu
  Cu39     1.0000 0.02193  0.97668  0.82408  Biso   1.000  Cu
  Cu40     1.0000 0.31692  0.97953  0.52877  Biso   1.000  Cu
  Cu41     1.0000 0.52367  0.76847  0.52763  Biso   1.000  Cu
  Cu42     1.0000 0.51413  0.97678  0.73743  Biso   1.000  Cu
  Cu43     1.0000 0.74073  0.47697  0.03420  Biso   1.000  Cu
  Cu44     1.0000 0.52844  0.27259  0.03754  Biso   1.000  Cu
  Cu45     1.0000 0.53394  0.47941  0.82068  Biso   1.000  Cu
  Cu46     1.0000 0.23424  0.47904  0.52788  Biso   1.000  Cu
  Cu47     1.0000 0.02972  0.27053  0.53125  Biso   1.000  Cu
  Cu48     1.0000 0.02709  0.47474  0.73963  Biso   1.000  Cu
  H1       1.0000 0.25271  0.76980  0.54658  Biso   1.000  H
  H2       1.0000 0.56500  0.26598  0.77577  Biso   1.000  H
  H3       1.0000 0.75565  0.50343  0.32208  Biso   1.000  H
  H4       1.0000 0.76898  0.76116  0.99580  Biso   1.000  H
  H5       1.0000 0.02539  0.20724  0.73893  Biso   1.000  H
  H6       1.0000 0.30207  0.48822  0.29463  Biso   1.000  H
  H7       1.0000 0.29510  0.26748  0.55572  Biso   1.000  H
  H8       1.0000 0.00458  0.76365  0.77058  Biso   1.000  H
  H9       1.0000 0.74508  0.02072  0.27271  Biso   1.000  H
  H10      1.0000 0.79366  0.26716  0.05489  Biso   1.000  H
  H11      1.0000 0.47700  0.76188  0.78424  Biso   1.000  H
  H12      1.0000 0.28124  0.01011  0.24613  Biso   1.000  H
  H13      1.0000 0.73425  0.24188  0.49859  Biso   1.000  H
  H14      1.0000 0.54997  0.74455  0.22818  Biso   1.000  H
  H15      1.0000 0.29251  0.45026  0.73958  Biso   1.000  H
  H16      1.0000 0.29825  0.18092  0.04946  Biso   1.000  H
  H17      1.0000 0.05497  0.72518  0.31734  Biso   1.000  H
  H18      1.0000 0.74170  0.48652  0.76529  Biso   1.000  H
  H19      1.0000 0.80660  0.74219  0.54091  Biso   1.000  H
  H20      1.0000 0.04416  0.18260  0.29479  Biso   1.000  H
  H21      1.0000 0.25233  0.02121  0.74095  Biso   1.000  H
  H22      1.0000 0.26886  0.68732  0.08431  Biso   1.000  H
  H23      1.0000 0.56252  0.18636  0.26761  Biso   1.000  H
  H24      1.0000 0.81136  0.92923  0.77391  Biso   1.000  H
  H25      1.0000 0.28412  0.03683  0.82226  Biso   1.000  H
  H26      1.0000 0.82834  0.24216  0.04181  Biso   1.000  H
  H27      1.0000 0.99390  0.70856  0.23724  Biso   1.000  H
  H28      1.0000 0.77626  0.92323  0.74590  Biso   1.000  H
  H29      1.0000 0.27045  0.18866  0.49278  Biso   1.000  H
  H30      1.0000 0.56830  0.76042  0.27271  Biso   1.000  H
  H31      1.0000 0.31608  0.50243  0.76484  Biso   1.000  H
  H32      1.0000 0.78037  0.69198  0.06155  Biso   1.000  H
  H33      1.0000 0.49911  0.26552  0.29441  Biso   1.000  H
  H34      1.0000 0.76502  0.54344  0.74037  Biso   1.000  H
  H35      1.0000 0.22027  0.74378  0.49496  Biso   1.000  H
  H36      1.0000 0.98944  0.21002  0.31692  Biso   1.000  H
  H37      1.0000 0.76273  0.97240  0.24963  Biso   1.000  H
  H38      1.0000 0.29955  0.77099  0.03456  Biso   1.000  H
  H39      1.0000 0.02151  0.23934  0.81381  Biso   1.000  H
  H40      1.0000 0.26122  0.94786  0.32310  Biso   1.000  H
  H41      1.0000 0.78268  0.76649  0.58787  Biso   1.000  H
  H42      1.0000 0.49835  0.18520  0.79450  Biso   1.000  H
  H43      1.0000 0.72646  0.45239  0.30093  Biso   1.000  H
  H44      1.0000 0.27614  0.26610  0.00662  Biso   1.000  H
  H45      1.0000 0.53802  0.68677  0.76486  Biso   1.000  H
  H46      1.0000 0.28372  0.43491  0.32109  Biso   1.000  H
  H47      1.0000 0.76461  0.26512  0.55725  Biso   1.000  H
  H48      1.0000 0.07411  0.69220  0.78855  Biso   1.000  H
  H49      1.0000 0.23010  0.48441  0.26338  Biso   1.000  H
  H50      1.0000 0.32345  0.24131  0.55010  Biso   1.000  H
  H51      1.0000 0.56219  0.22233  0.23961  Biso   1.000  H
  H52      1.0000 0.78913  0.49419  0.24880  Biso   1.000  H
  H53      1.0000 0.76413  0.18716  0.99706  Biso   1.000  H
  H54      1.0000 0.04574  0.25951  0.26266  Biso   1.000  H
  H55      1.0000 0.31765  0.99853  0.27045  Biso   1.000  H
  H56      1.0000 0.27708  0.69213  0.55209  Biso   1.000  H
  H57      1.0000 0.05331  0.75911  0.29151  Biso   1.000  H
  H58      1.0000 0.82676  0.01115  0.30004  Biso   1.000  H
  H59      1.0000 0.74823  0.72679  0.98088  Biso   1.000  H
  H60      1.0000 0.48926  0.72319  0.30483  Biso   1.000  H
  H61      1.0000 0.81961  0.49379  0.80254  Biso   1.000  H
  H62      1.0000 0.73409  0.70892  0.53564  Biso   1.000  H
  H63      1.0000 0.47940  0.73657  0.81518  Biso   1.000  H
  H64      1.0000 0.26578  0.45164  0.82238  Biso   1.000  H
  H65      1.0000 0.23627  0.70804  0.06718  Biso   1.000  H
  H66      1.0000 0.00132  0.73410  0.74423  Biso   1.000  H
  H67      1.0000 0.72969  0.98884  0.79682  Biso   1.000  H
  H68      1.0000 0.81505  0.21590  0.49873  Biso   1.000  H
  H69      1.0000 0.06954  0.17555  0.76528  Biso   1.000  H
  H70      1.0000 0.23422  0.97381  0.77110  Biso   1.000  H
  H71      1.0000 0.31644  0.21389  0.07372  Biso   1.000  H
  H72      1.0000 0.55896  0.24015  0.74762  Biso   1.000  H
  H73      1.0000 0.79046  0.54108  0.82279  Biso   1.000  H
  H74      1.0000 0.75297  0.68188  0.58077  Biso   1.000  H
  H75      1.0000 0.54713  0.71979  0.73935  Biso   1.000  H
  H76      1.0000 0.23409  0.50587  0.79216  Biso   1.000  H
  H77      1.0000 0.31920  0.73780  0.02461  Biso   1.000  H
  H78      1.0000 0.06756  0.71473  0.82185  Biso   1.000  H
  H79      1.0000 0.75730  0.98381  0.82767  Biso   1.000  H
  H80      1.0000 0.79040  0.19013  0.55471  Biso   1.000  H
  H81      1.0000 0.07016  0.26191  0.79781  Biso   1.000  H
  H82      1.0000 0.31292  0.98555  0.80036  Biso   1.000  H
  H83      1.0000 0.24295  0.24133  0.00781  Biso   1.000  H
  H84      1.0000 0.49721  0.21624  0.82264  Biso   1.000  H
  H85      1.0000 0.25581  0.43669  0.23876  Biso   1.000  H
  H86      1.0000 0.24701  0.22552  0.48638  Biso   1.000  H
  H87      1.0000 0.49907  0.23812  0.32044  Biso   1.000  H
  H88      1.0000 0.80228  0.43290  0.28162  Biso   1.000  H
  H89      1.0000 0.73697  0.21779  0.99611  Biso   1.000  H
  H90      1.0000 0.99789  0.23777  0.23379  Biso   1.000  H
  H91      1.0000 0.24387  0.93435  0.28819  Biso   1.000  H
  H92      1.0000 0.30766  0.71264  0.49476  Biso   1.000  H
  H93      1.0000 0.98729  0.68255  0.26866  Biso   1.000  H
  H94      1.0000 0.79972  0.96594  0.32885  Biso   1.000  H
  H95      1.0000 0.81753  0.70694  0.05367  Biso   1.000  H
  H96      1.0000 0.49327  0.69176  0.28079  Biso   1.000  H
  H97      1.0000 0.89089  0.96699  0.94367  Biso   1.000  H
  H98      1.0000 0.93599  0.84013  0.03617  Biso   1.000  H
  H99      1.0000 0.02626  0.88333  0.89661  Biso   1.000  H
  H100     1.0000 0.37855  0.96945  0.62110  Biso   1.000  H
  H101     1.0000 0.43450  0.84011  0.52816  Biso   1.000  H
  H102     1.0000 0.51353  0.88662  0.65936  Biso   1.000  H
  H103     1.0000 0.67079  0.48082  0.94096  Biso   1.000  H
  H104     1.0000 0.61974  0.34704  0.03767  Biso   1.000  H
  H105     1.0000 0.53933  0.39062  0.89657  Biso   1.000  H
  H106     1.0000 0.15955  0.47939  0.61977  Biso   1.000  H
  H107     1.0000 0.12043  0.34482  0.53082  Biso   1.000  H
  H108     1.0000 0.01870  0.38244  0.66361  Biso   1.000  H
  H109     1.0000 0.16264  0.97748  0.11486  Biso   1.000  H
  H110     1.0000 0.12246  0.10743  0.02140  Biso   1.000  H
  H111     1.0000 0.04041  0.06383  0.16557  Biso   1.000  H
  H112     1.0000 0.65715  0.98036  0.43704  Biso   1.000  H
  H113     1.0000 0.62153  0.11336  0.54619  Biso   1.000  H
  H114     1.0000 0.53063  0.06729  0.40095  Biso   1.000  H
  H115     1.0000 0.39027  0.48314  0.12260  Biso   1.000  H
  H116     1.0000 0.43591  0.60677  0.03414  Biso   1.000  H
  H117     1.0000 0.52393  0.56862  0.16347  Biso   1.000  H
  H118     1.0000 0.88652  0.47495  0.44585  Biso   1.000  H
  H119     1.0000 0.92437  0.60254  0.53968  Biso   1.000  H
  H120     1.0000 0.00820  0.55924  0.39806  Biso   1.000  H
  H121     1.0000 0.11439  0.98500  0.89944  Biso   1.000  H
  H122     1.0000 0.89111  0.06473  0.03339  Biso   1.000  H
  H123     1.0000 0.01849  0.83972  0.12338  Biso   1.000  H
  H124     1.0000 0.60846  0.96752  0.66672  Biso   1.000  H
  H125     1.0000 0.39387  0.06498  0.53761  Biso   1.000  H
  H126     1.0000 0.52307  0.83955  0.43658  Biso   1.000  H
  H127     1.0000 0.44232  0.47673  0.89709  Biso   1.000  H
  H128     1.0000 0.65920  0.56382  0.01886  Biso   1.000  H
  H129     1.0000 0.51620  0.34850  0.12580  Biso   1.000  H
  H130     1.0000 0.92932  0.47201  0.66921  Biso   1.000  H
  H131     1.0000 0.14947  0.56841  0.52360  Biso   1.000  H
  H132     1.0000 0.02103  0.33660  0.43586  Biso   1.000  H
  H133     1.0000 0.93137  0.96048  0.16485  Biso   1.000  H
  H134     1.0000 0.16373  0.88264  0.03271  Biso   1.000  H
  H135     1.0000 0.02876  0.10393  0.93510  Biso   1.000  H
  H136     1.0000 0.43854  0.97403  0.40049  Biso   1.000  H
  H137     1.0000 0.65564  0.87684  0.52485  Biso   1.000  H
  H138     1.0000 0.53706  0.11329  0.62302  Biso   1.000  H
  H139     1.0000 0.61391  0.47888  0.16519  Biso   1.000  H
  H140     1.0000 0.39554  0.38634  0.04019  Biso   1.000  H
  H141     1.0000 0.51582  0.60975  0.93732  Biso   1.000  H
  H142     1.0000 0.11509  0.47561  0.40138  Biso   1.000  H
  H143     1.0000 0.89005  0.38865  0.53742  Biso   1.000  H
  H144     1.0000 0.03195  0.60821  0.62479  Biso   1.000  H
  H145     1.0000 0.62359  0.48428  0.89949  Biso   1.000  H
  H146     1.0000 0.87808  0.56471  0.53479  Biso   1.000  H
  H147     1.0000 0.52331  0.84922  0.61807  Biso   1.000  H
  H148     1.0000 0.11714  0.47120  0.66311  Biso   1.000  H
  H149     1.0000 0.39301  0.56741  0.02788  Biso   1.000  H
  H150     1.0000 0.02213  0.84525  0.93946  Biso   1.000  H
  H151     1.0000 0.93361  0.96474  0.89754  Biso   1.000  H
  H152     1.0000 0.65662  0.07074  0.53850  Biso   1.000  H
  H153     1.0000 0.03646  0.34398  0.62361  Biso   1.000  H
  H154     1.0000 0.42663  0.98102  0.66072  Biso   1.000  H
  H155     1.0000 0.16496  0.06644  0.01978  Biso   1.000  H
  H156     1.0000 0.54026  0.34642  0.94297  Biso   1.000  H
  H157     1.0000 0.43005  0.48012  0.16726  Biso   1.000  H
  H158     1.0000 0.15842  0.38638  0.53401  Biso   1.000  H
  H159     1.0000 0.53924  0.11310  0.44088  Biso   1.000  H
  H160     1.0000 0.92834  0.46900  0.39872  Biso   1.000  H
  H161     1.0000 0.66519  0.38859  0.03456  Biso   1.000  H
  H162     1.0000 0.03621  0.10427  0.11949  Biso   1.000  H
  H163     1.0000 0.11923  0.97521  0.16021  Biso   1.000  H
  H164     1.0000 0.39022  0.88667  0.53442  Biso   1.000  H
  H165     1.0000 0.01420  0.60186  0.44207  Biso   1.000  H
  H166     1.0000 0.61989  0.98412  0.39772  Biso   1.000  H
  H167     1.0000 0.89472  0.88128  0.04068  Biso   1.000  H
  H168     1.0000 0.53566  0.61106  0.11652  Biso   1.000  H
  H169     1.0000 0.02415  0.06680  0.89601  Biso   1.000  H
  H170     1.0000 0.88710  0.95878  0.12376  Biso   1.000  H
  H171     1.0000 0.12589  0.84680  0.02996  Biso   1.000  H
  H172     1.0000 0.52680  0.07194  0.66560  Biso   1.000  H
  H173     1.0000 0.39604  0.97427  0.44375  Biso   1.000  H
  H174     1.0000 0.61549  0.83896  0.52367  Biso   1.000  H
  H175     1.0000 0.51753  0.56554  0.89383  Biso   1.000  H
  H176     1.0000 0.65809  0.47922  0.11886  Biso   1.000  H
  H177     1.0000 0.43547  0.34545  0.03986  Biso   1.000  H
  H178     1.0000 0.03337  0.56777  0.66484  Biso   1.000  H
  H179     1.0000 0.15875  0.48116  0.43998  Biso   1.000  H
  H180     1.0000 0.93621  0.34623  0.53431  Biso   1.000  H
  H181     1.0000 0.01632  0.88130  0.16522  Biso   1.000  H
  H182     1.0000 0.16060  0.98388  0.94001  Biso   1.000  H
  H183     1.0000 0.93798  0.10163  0.03097  Biso   1.000  H
  H184     1.0000 0.52921  0.88565  0.39332  Biso   1.000  H
  H185     1.0000 0.65452  0.98062  0.62558  Biso   1.000  H
  H186     1.0000 0.43823  0.11016  0.53682  Biso   1.000  H
  H187     1.0000 0.51993  0.39084  0.16819  Biso   1.000  H
  H188     1.0000 0.40016  0.47863  0.93954  Biso   1.000  H
  H189     1.0000 0.61861  0.60739  0.01731  Biso   1.000  H
  H190     1.0000 0.02255  0.38090  0.39638  Biso   1.000  H
  H191     1.0000 0.88979  0.47414  0.62919  Biso   1.000  H
  H192     1.0000 0.11005  0.60563  0.52636  Biso   1.000  H
  H193     1.0000 0.29286  0.83391  0.51841  Biso   1.000  H
  H194     1.0000 0.53149  0.25046  0.88936  Biso   1.000  H
  H195     1.0000 0.87005  0.47058  0.30626  Biso   1.000  H
  H196     1.0000 0.79827  0.82921  0.03494  Biso   1.000  H
  H197     1.0000 0.05259  0.24809  0.67367  Biso   1.000  H
  H198     1.0000 0.37584  0.46658  0.26031  Biso   1.000  H
  H199     1.0000 0.26038  0.33910  0.53380  Biso   1.000  H
  H200     1.0000 0.03448  0.74734  0.89017  Biso   1.000  H
  H201     1.0000 0.67438  0.99020  0.30335  Biso   1.000  H
  H202     1.0000 0.76030  0.33306  0.02187  Biso   1.000  H
  H203     1.0000 0.51875  0.75325  0.67221  Biso   1.000  H
  H204     1.0000 0.17010  0.95752  0.25728  Biso   1.000  H
  H205     1.0000 0.75750  0.11828  0.51737  Biso   1.000  H
  H206     1.0000 0.52753  0.70907  0.16669  Biso   1.000  H
  H207     1.0000 0.17787  0.46345  0.75784  Biso   1.000  H
  H208     1.0000 0.26278  0.11617  0.02403  Biso   1.000  H
  H209     1.0000 0.01599  0.69826  0.38964  Biso   1.000  H
  H210     1.0000 0.67562  0.49761  0.80244  Biso   1.000  H
  H211     1.0000 0.78492  0.61871  0.53106  Biso   1.000  H
  H212     1.0000 0.03410  0.19886  0.17541  Biso   1.000  H
  H213     1.0000 0.37459  0.01382  0.75167  Biso   1.000  H
  H214     1.0000 0.30026  0.61620  0.05926  Biso   1.000  H
  H215     1.0000 0.54390  0.20416  0.38242  Biso   1.000  H
  H216     1.0000 0.87414  0.96456  0.80405  Biso   1.000  H
  H217     1.0000 0.25192  0.46724  0.38151  Biso   1.000  H
  H218     1.0000 0.38718  0.20072  0.51269  Biso   1.000  H
  H219     1.0000 0.53453  0.33830  0.26599  Biso   1.000  H
  H220     1.0000 0.75304  0.47511  0.17744  Biso   1.000  H
  H221     1.0000 0.88959  0.19927  0.01272  Biso   1.000  H
  H222     1.0000 0.01961  0.32880  0.30001  Biso   1.000  H
  H223     1.0000 0.29959  0.97787  0.38971  Biso   1.000  H
  H224     1.0000 0.15790  0.70714  0.51914  Biso   1.000  H
  H225     1.0000 0.02146  0.82719  0.26144  Biso   1.000  H
  H226     1.0000 0.79756  0.98577  0.18098  Biso   1.000  H
  H227     1.0000 0.67363  0.70189  0.01552  Biso   1.000  H
  H228     1.0000 0.53509  0.83449  0.29714  Biso   1.000  H
  H229     1.0000 0.79392  0.49703  0.68272  Biso   1.000  H
  H230     1.0000 0.66300  0.74984  0.56971  Biso   1.000  H
  H231     1.0000 0.49837  0.61960  0.79763  Biso   1.000  H
  H232     1.0000 0.30432  0.48341  0.88382  Biso   1.000  H
  H233     1.0000 0.16993  0.74605  0.03097  Biso   1.000  H
  H234     1.0000 0.04017  0.61919  0.76161  Biso   1.000  H
  H235     1.0000 0.74828  0.95942  0.68137  Biso   1.000  H
  H236     1.0000 0.88469  0.24897  0.53293  Biso   1.000  H
  H237     1.0000 0.01500  0.11707  0.79714  Biso   1.000  H
  H238     1.0000 0.25312  0.99910  0.88050  Biso   1.000  H
  H239     1.0000 0.38382  0.24957  0.05476  Biso   1.000  H
  H240     1.0000 0.52996  0.11865  0.76038  Biso   1.000  H
  H241     1.0000 0.76101  0.50099  0.88523  Biso   1.000  H
  H242     1.0000 0.87628  0.69848  0.55934  Biso   1.000  H
  H243     1.0000 0.50726  0.83187  0.75616  Biso   1.000  H
  H244     1.0000 0.25640  0.48810  0.67273  Biso   1.000  H
  H245     1.0000 0.38712  0.70172  0.06111  Biso   1.000  H
  H246     1.0000 0.03641  0.83412  0.79940  Biso   1.000  H
  H247     1.0000 0.79490  0.95723  0.89434  Biso   1.000  H
  H248     1.0000 0.67700  0.20754  0.53577  Biso   1.000  H
  H249     1.0000 0.03083  0.32973  0.76220  Biso   1.000  H
  H250     1.0000 0.28579  0.97367  0.67600  Biso   1.000  H
  H251     1.0000 0.17192  0.20464  0.02657  Biso   1.000  H
  H252     1.0000 0.52203  0.33069  0.80567  Biso   1.000  H
  H253     1.0000 0.29035  0.46809  0.17119  Biso   1.000  H
  H254     1.0000 0.18042  0.25191  0.52852  Biso   1.000  H
  H255     1.0000 0.52523  0.11871  0.30110  Biso   1.000  H
  H256     1.0000 0.78770  0.47467  0.39365  Biso   1.000  H
  H257     1.0000 0.66845  0.24714  0.03997  Biso   1.000  H
  H258     1.0000 0.01734  0.11387  0.25897  Biso   1.000  H
  H259     1.0000 0.26060  0.96836  0.17196  Biso   1.000  H
  H260     1.0000 0.37661  0.74882  0.52967  Biso   1.000  H
  H261     1.0000 0.01180  0.61183  0.30121  Biso   1.000  H
  H262     1.0000 0.75603  0.00345  0.39944  Biso   1.000  H
  H263     1.0000 0.88614  0.74253  0.03237  Biso   1.000  H
  H264     1.0000 0.52276  0.62655  0.25592  Biso   1.000  H
  H265     1.0000 0.04519  0.20114  0.88607  Biso   1.000  H
  H266     1.0000 0.88543  0.97719  0.26258  Biso   1.000  H
  H267     1.0000 0.25755  0.83163  0.05491  Biso   1.000  H
  H268     1.0000 0.51610  0.20784  0.67737  Biso   1.000  H
  H269     1.0000 0.38666  0.96524  0.30373  Biso   1.000  H
  H270     1.0000 0.75111  0.83299  0.55321  Biso   1.000  H
  H271     1.0000 0.52186  0.70636  0.88077  Biso   1.000  H
  H272     1.0000 0.66593  0.48835  0.26303  Biso   1.000  H
  H273     1.0000 0.30105  0.33236  0.05670  Biso   1.000  H
  H274     1.0000 0.02717  0.70765  0.67529  Biso   1.000  H
  H275     1.0000 0.15815  0.45646  0.30154  Biso   1.000  H
  H276     1.0000 0.79695  0.33371  0.53341  Biso   1.000  H
  H277     1.0000 0.02146  0.74393  0.17492  Biso   1.000  H
  H278     1.0000 0.16389  0.01030  0.80646  Biso   1.000  H
  H279     1.0000 0.79625  0.11833  0.02344  Biso   1.000  H
  H280     1.0000 0.51999  0.74778  0.37978  Biso   1.000  H
  H281     1.0000 0.65650  0.95300  0.76490  Biso   1.000  H
  H282     1.0000 0.29993  0.12496  0.52932  Biso   1.000  H
  H283     1.0000 0.51633  0.25261  0.18506  Biso   1.000  H
  H284     1.0000 0.38767  0.47531  0.80059  Biso   1.000  H
  H285     1.0000 0.75674  0.61998  0.01797  Biso   1.000  H
  H286     1.0000 0.02699  0.24030  0.38220  Biso   1.000  H
  H287     1.0000 0.88976  0.51328  0.76395  Biso   1.000  H
  H288     1.0000 0.24593  0.62365  0.51916  Biso   1.000  H
  H289     1.0000 0.11942  0.20409  0.01872  Biso   1.000  H
  H290     1.0000 0.01973  0.06109  0.25909  Biso   1.000  H
  H291     1.0000 0.25689  0.97481  0.11877  Biso   1.000  H
  H292     1.0000 0.62124  0.20689  0.53617  Biso   1.000  H
  H293     1.0000 0.52398  0.06622  0.30386  Biso   1.000  H
  H294     1.0000 0.74916  0.00236  0.45284  Biso   1.000  H
  H295     1.0000 0.43966  0.70007  0.05002  Biso   1.000  H
  H296     1.0000 0.51080  0.57205  0.25880  Biso   1.000  H
  H297     1.0000 0.29590  0.47399  0.11992  Biso   1.000  H
  H298     1.0000 0.92954  0.69211  0.56182  Biso   1.000  H
  H299     1.0000 0.00250  0.56216  0.30273  Biso   1.000  H
  H300     1.0000 0.78866  0.47701  0.44589  Biso   1.000  H
  H301     1.0000 0.93808  0.74357  0.03454  Biso   1.000  H
  H302     1.0000 0.03937  0.88439  0.80025  Biso   1.000  H
  H303     1.0000 0.79597  0.96495  0.94646  Biso   1.000  H
  H304     1.0000 0.43214  0.74672  0.53222  Biso   1.000  H
  H305     1.0000 0.50444  0.88970  0.75551  Biso   1.000  H
  H306     1.0000 0.28436  0.97314  0.62235  Biso   1.000  H
  H307     1.0000 0.61977  0.24840  0.04000  Biso   1.000  H
  H308     1.0000 0.51937  0.38668  0.80383  Biso   1.000  H
  H309     1.0000 0.76445  0.50361  0.94002  Biso   1.000  H
  H310     1.0000 0.12251  0.24998  0.52919  Biso   1.000  H
  H311     1.0000 0.02126  0.38261  0.75670  Biso   1.000  H
  H312     1.0000 0.25529  0.48793  0.61436  Biso   1.000  H
  H313     1.0000 0.25516  0.98625  0.93401  Biso   1.000  H
  H314     1.0000 0.94241  0.19765  0.01668  Biso   1.000  H
  H315     1.0000 0.02335  0.87923  0.26199  Biso   1.000  H
  H316     1.0000 0.74992  0.96492  0.63021  Biso   1.000  H
  H317     1.0000 0.44213  0.20269  0.50852  Biso   1.000  H
  H318     1.0000 0.52954  0.88699  0.29804  Biso   1.000  H
  H319     1.0000 0.30275  0.48369  0.93716  Biso   1.000  H
  H320     1.0000 0.61508  0.70172  0.01878  Biso   1.000  H
  H321     1.0000 0.53409  0.39279  0.26455  Biso   1.000  H
  H322     1.0000 0.79294  0.48403  0.63305  Biso   1.000  H
  H323     1.0000 0.10310  0.70271  0.52492  Biso   1.000  H
  H324     1.0000 0.01845  0.38038  0.30014  Biso   1.000  H
  H325     1.0000 0.79384  0.97894  0.12513  Biso   1.000  H
  H326     1.0000 0.11645  0.75175  0.02506  Biso   1.000  H
  H327     1.0000 0.01054  0.06310  0.80202  Biso   1.000  H
  H328     1.0000 0.30358  0.96694  0.44631  Biso   1.000  H
  H329     1.0000 0.60796  0.74890  0.55453  Biso   1.000  H
  H330     1.0000 0.53482  0.06765  0.75923  Biso   1.000  H
  H331     1.0000 0.75331  0.48189  0.12352  Biso   1.000  H
  H332     1.0000 0.43834  0.24792  0.04792  Biso   1.000  H
  H333     1.0000 0.51243  0.56797  0.79814  Biso   1.000  H
  H334     1.0000 0.25410  0.47675  0.43757  Biso   1.000  H
  H335     1.0000 0.94133  0.25247  0.52795  Biso   1.000  H
  H336     1.0000 0.03738  0.56364  0.75871  Biso   1.000  H
  H337     1.0000 0.04293  0.19684  0.94066  Biso   1.000  H
  H338     1.0000 0.93984  0.96872  0.26107  Biso   1.000  H
  H339     1.0000 0.25916  0.88668  0.04804  Biso   1.000  H
  H340     1.0000 0.52399  0.21016  0.62200  Biso   1.000  H
  H341     1.0000 0.43967  0.95805  0.30975  Biso   1.000  H
  H342     1.0000 0.74800  0.88869  0.54807  Biso   1.000  H
  H343     1.0000 0.52069  0.70387  0.93916  Biso   1.000  H
  H344     1.0000 0.61338  0.48579  0.26355  Biso   1.000  H
  H345     1.0000 0.30044  0.38391  0.03860  Biso   1.000  H
  H346     1.0000 0.02869  0.70549  0.62035  Biso   1.000  H
  H347     1.0000 0.10491  0.46182  0.30457  Biso   1.000  H
  H348     1.0000 0.79481  0.38540  0.54141  Biso   1.000  H
  H349     1.0000 0.02278  0.74567  0.12001  Biso   1.000  H
  H350     1.0000 0.10702  0.01179  0.80669  Biso   1.000  H
  H351     1.0000 0.79628  0.06590  0.02766  Biso   1.000  H
  H352     1.0000 0.52441  0.74330  0.43509  Biso   1.000  H
  H353     1.0000 0.60078  0.95986  0.76091  Biso   1.000  H
  H354     1.0000 0.29767  0.07380  0.53770  Biso   1.000  H
  H355     1.0000 0.51739  0.25363  0.12884  Biso   1.000  H
  H356     1.0000 0.43944  0.47588  0.79568  Biso   1.000  H
  H357     1.0000 0.75652  0.56402  0.02617  Biso   1.000  H
  H358     1.0000 0.02702  0.23874  0.43578  Biso   1.000  H
  H359     1.0000 0.94305  0.49804  0.76212  Biso   1.000  H
  H360     1.0000 0.24910  0.57023  0.51922  Biso   1.000  H
  H361     1.0000 0.01027  0.69611  0.44045  Biso   1.000  H
  H362     1.0000 0.43057  0.01122  0.75034  Biso   1.000  H
  H363     1.0000 0.76053  0.38508  0.02559  Biso   1.000  H
  H364     1.0000 0.53334  0.70590  0.11334  Biso   1.000  H
  H365     1.0000 0.92898  0.96534  0.80000  Biso   1.000  H
  H366     1.0000 0.25530  0.39262  0.53382  Biso   1.000  H
  H367     1.0000 0.55043  0.20761  0.43837  Biso   1.000  H
  H368     1.0000 0.12024  0.45442  0.75624  Biso   1.000  H
  H369     1.0000 0.79687  0.88101  0.04266  Biso   1.000  H
  H370     1.0000 0.03814  0.20040  0.11969  Biso   1.000  H
  H371     1.0000 0.62115  0.48910  0.80461  Biso   1.000  H
  H372     1.0000 0.29603  0.89273  0.51795  Biso   1.000  H
  H373     1.0000 0.05385  0.25171  0.61905  Biso   1.000  H
  H374     1.0000 0.62186  0.98325  0.30456  Biso   1.000  H
  H375     1.0000 0.30062  0.56265  0.05573  Biso   1.000  H
  H376     1.0000 0.53838  0.25255  0.94840  Biso   1.000  H
  H377     1.0000 0.11814  0.95976  0.25638  Biso   1.000  H
  H378     1.0000 0.78207  0.56399  0.52766  Biso   1.000  H
  H379     1.0000 0.51945  0.75465  0.61594  Biso   1.000  H
  H380     1.0000 0.92306  0.47125  0.30353  Biso   1.000  H
  H381     1.0000 0.25866  0.06403  0.02597  Biso   1.000  H
  H382     1.0000 0.03508  0.74912  0.94340  Biso   1.000  H
  H383     1.0000 0.43013  0.46558  0.25961  Biso   1.000  H
  H384     1.0000 0.75117  0.06293  0.52820  Biso   1.000  H
  H385     1.0000 0.24863  0.43563  0.35849  Biso   1.000  H
  H386     1.0000 0.30382  0.15125  0.49224  Biso   1.000  H
  H387     1.0000 0.49831  0.30634  0.26240  Biso   1.000  H
  H388     1.0000 0.68957  0.45259  0.25899  Biso   1.000  H
  H389     1.0000 0.86145  0.20469  0.04453  Biso   1.000  H
  H390     1.0000 0.99290  0.24560  0.35636  Biso   1.000  H
  H391     1.0000 0.29779  0.94259  0.35908  Biso   1.000  H
  H392     1.0000 0.18599  0.70665  0.48959  Biso   1.000  H
  H393     1.0000 0.98848  0.75194  0.20416  Biso   1.000  H
  H394     1.0000 0.79888  0.95963  0.21362  Biso   1.000  H
  H395     1.0000 0.74551  0.65028  0.05681  Biso   1.000  H
  H396     1.0000 0.56555  0.79782  0.30780  Biso   1.000  H
  H397     1.0000 0.80744  0.54032  0.70539  Biso   1.000  H
  H398     1.0000 0.74706  0.80144  0.58614  Biso   1.000  H
  H399     1.0000 0.53515  0.64838  0.80113  Biso   1.000  H
  H400     1.0000 0.35632  0.50737  0.80413  Biso   1.000  H
  H401     1.0000 0.26397  0.80633  0.02841  Biso   1.000  H
  H402     1.0000 0.07319  0.65268  0.75262  Biso   1.000  H
  H403     1.0000 0.73607  0.92227  0.71086  Biso   1.000  H
  H404     1.0000 0.79607  0.30222  0.56019  Biso   1.000  H
  H405     1.0000 0.00763  0.20206  0.85155  Biso   1.000  H
  H406     1.0000 0.24715  0.03326  0.85888  Biso   1.000  H
  H407     1.0000 0.31209  0.30660  0.01833  Biso   1.000  H
  H408     1.0000 0.50017  0.15077  0.75705  Biso   1.000  H
  H409     1.0000 0.29960  0.43517  0.20030  Biso   1.000  H
  H410     1.0000 0.20782  0.26092  0.48969  Biso   1.000  H
  H411     1.0000 0.50064  0.19994  0.35445  Biso   1.000  H
  H412     1.0000 0.84085  0.43479  0.31949  Biso   1.000  H
  H413     1.0000 0.69957  0.25094  0.00560  Biso   1.000  H
  H414     1.0000 0.00012  0.19985  0.19648  Biso   1.000  H
  H415     1.0000 0.21024  0.93094  0.25308  Biso   1.000  H
  H416     1.0000 0.34780  0.74950  0.49750  Biso   1.000  H
  H417     1.0000 0.97879  0.64832  0.31002  Biso   1.000  H
  H418     1.0000 0.76294  0.97174  0.36886  Biso   1.000  H
  H419     1.0000 0.85347  0.74449  0.05844  Biso   1.000  H
  H420     1.0000 0.49476  0.65481  0.24952  Biso   1.000  H
  H421     1.0000 0.75295  0.53612  0.86178  Biso   1.000  H
  H422     1.0000 0.78704  0.64126  0.56938  Biso   1.000  H
  H423     1.0000 0.54959  0.75584  0.70270  Biso   1.000  H
  H424     1.0000 0.20130  0.50539  0.75368  Biso   1.000  H
  H425     1.0000 0.35683  0.69951  0.02347  Biso   1.000  H
  H426     1.0000 0.06678  0.75027  0.85649  Biso   1.000  H
  H427     1.0000 0.79468  0.98922  0.86146  Biso   1.000  H
  H428     1.0000 0.75513  0.15037  0.55611  Biso   1.000  H
  H429     1.0000 0.06718  0.30224  0.76250  Biso   1.000  H
  H430     1.0000 0.35038  0.97532  0.76426  Biso   1.000  H
  H431     1.0000 0.20508  0.20827  0.99950  Biso   1.000  H
  H432     1.0000 0.49361  0.25630  0.85638  Biso   1.000  H
  H433     1.0000 0.28676  0.01161  0.69725  Biso   1.000  H
  H434     1.0000 0.75928  0.30199  0.05651  Biso   1.000  H
  H435     1.0000 0.04828  0.69551  0.35556  Biso   1.000  H
  H436     1.0000 0.84673  0.92980  0.81138  Biso   1.000  H
  H437     1.0000 0.25637  0.30444  0.56227  Biso   1.000  H
  H438     1.0000 0.55894  0.70493  0.19826  Biso   1.000  H
  H439     1.0000 0.25740  0.45217  0.70065  Biso   1.000  H
  H440     1.0000 0.80391  0.80042  0.99659  Biso   1.000  H
  H441     1.0000 0.56388  0.14917  0.30496  Biso   1.000  H
  H442     1.0000 0.70900  0.47100  0.80449  Biso   1.000  H
  H443     1.0000 0.29166  0.80823  0.54846  Biso   1.000  H
  H444     1.0000 0.04816  0.14562  0.26127  Biso   1.000  H
  H445     1.0000 0.70502  0.02236  0.30682  Biso   1.000  H
  H446     1.0000 0.30635  0.64987  0.08840  Biso   1.000  H
  H447     1.0000 0.01457  0.24650  0.70713  Biso   1.000  H
  H448     1.0000 0.24803  0.00593  0.20473  Biso   1.000  H
  H449     1.0000 0.84758  0.70515  0.53139  Biso   1.000  H
  H450     1.0000 0.56473  0.30080  0.81289  Biso   1.000  H
  H451     1.0000 0.79245  0.50638  0.35581  Biso   1.000  H
  H452     1.0000 0.26089  0.14620  0.05275  Biso   1.000  H
  H453     1.0000 0.47310  0.79977  0.74628  Biso   1.000  H
  H454     1.0000 0.34269  0.49789  0.25985  Biso   1.000  H
  H455     1.0000 0.69937  0.20156  0.49722  Biso   1.000  H
  H456     1.0000 0.00337  0.79966  0.80405  Biso   1.000  H
  H457     1.0000 0.69347  0.74642  0.53207  Biso   1.000  H
  H458     1.0000 0.48041  0.70434  0.85165  Biso   1.000  H
  H459     1.0000 0.85358  0.48355  0.76714  Biso   1.000  H
  H460     1.0000 0.19704  0.74826  0.06639  Biso   1.000  H
  H461     1.0000 0.99935  0.69629  0.70825  Biso   1.000  H
  H462     1.0000 0.30484  0.44894  0.85829  Biso   1.000  H
  H463     1.0000 0.85566  0.25097  0.50270  Biso   1.000  H
  H464     1.0000 0.05666  0.14020  0.79916  Biso   1.000  H
  H465     1.0000 0.69334  0.99119  0.76358  Biso   1.000  H
  H466     1.0000 0.34860  0.25155  0.08407  Biso   1.000  H
  H467     1.0000 0.55631  0.20901  0.70622  Biso   1.000  H
  H468     1.0000 0.19338  0.97543  0.80507  Biso   1.000  H
  H469     1.0000 0.36131  0.20191  0.55078  Biso   1.000  H
  H470     1.0000 0.56017  0.26338  0.20669  Biso   1.000  H
  H471     1.0000 0.19278  0.49158  0.30155  Biso   1.000  H
  H472     1.0000 0.80064  0.14796  0.99446  Biso   1.000  H
  H473     1.0000 0.05013  0.29596  0.30186  Biso   1.000  H
  H474     1.0000 0.75516  0.50361  0.20965  Biso   1.000  H
  H475     1.0000 0.24341  0.65382  0.55055  Biso   1.000  H
  H476     1.0000 0.05357  0.79624  0.25607  Biso   1.000  H
  H477     1.0000 0.35452  0.00253  0.30801  Biso   1.000  H
  H478     1.0000 0.70798  0.69435  0.97920  Biso   1.000  H
  H479     1.0000 0.49163  0.75593  0.34634  Biso   1.000  H
  H480     1.0000 0.86386  0.01199  0.25544  Biso   1.000  H
  N1       1.0000 0.70649  0.15299  0.52853  Biso   1.000  N
  N2       1.0000 0.52686  0.65504  0.20130  Biso   1.000  N
  N3       1.0000 0.20392  0.47467  0.70385  Biso   1.000  N
  N4       1.0000 0.20884  0.15183  0.02564  Biso   1.000  N
  N5       1.0000 0.01611  0.64458  0.35399  Biso   1.000  N
  N6       1.0000 0.70827  0.49925  0.85648  Biso   1.000  N
  N7       1.0000 0.83930  0.64970  0.54577  Biso   1.000  N
  N8       1.0000 0.02758  0.14835  0.20560  Biso   1.000  N
  N9       1.0000 0.33998  0.98972  0.70488  Biso   1.000  N
  N10      1.0000 0.35245  0.65013  0.05027  Biso   1.000  N
  N11      1.0000 0.53023  0.15282  0.35379  Biso   1.000  N
  N12      1.0000 0.84667  0.96119  0.85971  Biso   1.000  N
  N13      1.0000 0.34335  0.80132  0.52388  Biso   1.000  N
  N14      1.0000 0.53193  0.30118  0.86024  Biso   1.000  N
  N15      1.0000 0.84040  0.47160  0.36091  Biso   1.000  N
  N16      1.0000 0.85224  0.79729  0.03178  Biso   1.000  N
  N17      1.0000 0.03918  0.29836  0.70976  Biso   1.000  N
  N18      1.0000 0.34371  0.47229  0.20719  Biso   1.000  N
  N19      1.0000 0.20820  0.30504  0.52850  Biso   1.000  N
  N20      1.0000 0.03307  0.79922  0.85484  Biso   1.000  N
  N21      1.0000 0.70687  0.99448  0.36045  Biso   1.000  N
  N22      1.0000 0.70493  0.30146  0.03221  Biso   1.000  N
  N23      1.0000 0.50986  0.80373  0.70240  Biso   1.000  N
  N24      1.0000 0.20443  0.96966  0.20446  Biso   1.000  N
  N25      1.0000 0.85240  0.50240  0.71227  Biso   1.000  N
  N26      1.0000 0.69756  0.79951  0.55423  Biso   1.000  N
  N27      1.0000 0.51008  0.65237  0.85022  Biso   1.000  N
  N28      1.0000 0.35607  0.47606  0.85316  Biso   1.000  N
  N29      1.0000 0.20677  0.79850  0.04254  Biso   1.000  N
  N30      1.0000 0.03668  0.65241  0.70580  Biso   1.000  N
  N31      1.0000 0.69166  0.95755  0.71218  Biso   1.000  N
  N32      1.0000 0.85038  0.30186  0.53232  Biso   1.000  N
  N33      1.0000 0.03018  0.14924  0.84988  Biso   1.000  N
  N34      1.0000 0.19709  0.00452  0.85315  Biso   1.000  N
  N35      1.0000 0.35367  0.30101  0.05608  Biso   1.000  N
  N36      1.0000 0.52825  0.15535  0.70824  Biso   1.000  N
  N37      1.0000 0.19668  0.46363  0.35206  Biso   1.000  N
  N38      1.0000 0.35596  0.15314  0.52478  Biso   1.000  N
  N39      1.0000 0.52527  0.30612  0.21261  Biso   1.000  N
  N40      1.0000 0.69867  0.47744  0.20984  Biso   1.000  N
  N41      1.0000 0.85267  0.14972  0.02103  Biso   1.000  N
  N42      1.0000 0.02529  0.29475  0.35252  Biso   1.000  N
  N43      1.0000 0.35191  0.97502  0.35636  Biso   1.000  N
  N44      1.0000 0.19270  0.65389  0.51965  Biso   1.000  N
  N45      1.0000 0.01738  0.79634  0.20760  Biso   1.000  N
  N46      1.0000 0.85110  0.98044  0.21045  Biso   1.000  N
  N47      1.0000 0.70336  0.65046  0.01681  Biso   1.000  N
  N48      1.0000 0.52548  0.80138  0.34951  Biso   1.000  N
  O1       1.0000 0.37081  0.51894  0.03137  Biso   1.000  O
  O2       1.0000 0.03497  0.32027  0.56729  Biso   1.000  O
  O3       1.0000 0.57251  0.97845  0.37451  Biso   1.000  O
  O4       1.0000 0.85743  0.51965  0.54024  Biso   1.000  O
  O5       1.0000 0.53469  0.32258  0.99320  Biso   1.000  O
  O6       1.0000 0.06943  0.97226  0.18371  Biso   1.000  O
  O7       1.0000 0.18484  0.01654  0.02897  Biso   1.000  O
  O8       1.0000 0.52193  0.82348  0.56798  Biso   1.000  O
  O9       1.0000 0.97398  0.47755  0.37619  Biso   1.000  O
  O10      1.0000 0.68054  0.01784  0.53602  Biso   1.000  O
  O11      1.0000 0.03194  0.82094  0.99135  Biso   1.000  O
  O12      1.0000 0.47671  0.48203  0.18723  Biso   1.000  O
  O13      1.0000 0.69170  0.43696  0.02996  Biso   1.000  O
  O14      1.0000 0.01541  0.62398  0.49152  Biso   1.000  O
  O15      1.0000 0.47447  0.98491  0.68493  Biso   1.000  O
  O16      1.0000 0.18295  0.44052  0.53356  Biso   1.000  O
  O17      1.0000 0.53091  0.63321  0.06804  Biso   1.000  O
  O18      1.0000 0.98034  0.96485  0.87209  Biso   1.000  O
  O19      1.0000 0.87219  0.93098  0.03837  Biso   1.000  O
  O20      1.0000 0.53988  0.13637  0.49057  Biso   1.000  O
  O21      1.0000 0.06724  0.47116  0.68802  Biso   1.000  O
  O22      1.0000 0.36931  0.93588  0.52946  Biso   1.000  O
  O23      1.0000 0.03653  0.12927  0.07093  Biso   1.000  O
  O24      1.0000 0.57325  0.48142  0.87617  Biso   1.000  O
  O25      1.0000 0.98474  0.97020  0.18613  Biso   1.000  O
  O26      1.0000 0.18627  0.93325  0.02721  Biso   1.000  O
  O27      1.0000 0.03117  0.12530  0.98710  Biso   1.000  O
  O28      1.0000 0.48933  0.97549  0.37630  Biso   1.000  O
  O29      1.0000 0.67745  0.93443  0.53277  Biso   1.000  O
  O30      1.0000 0.52697  0.13689  0.57339  Biso   1.000  O
  O31      1.0000 0.56220  0.47824  0.19021  Biso   1.000  O
  O32      1.0000 0.37017  0.43350  0.02975  Biso   1.000  O
  O33      1.0000 0.52419  0.63424  0.98372  Biso   1.000  O
  O34      1.0000 0.05852  0.46894  0.37757  Biso   1.000  O
  O35      1.0000 0.86476  0.43692  0.53661  Biso   1.000  O
  O36      1.0000 0.02160  0.63062  0.57393  Biso   1.000  O
  O37      1.0000 0.06172  0.98866  0.87658  Biso   1.000  O
  O38      1.0000 0.86635  0.01282  0.03041  Biso   1.000  O
  O39      1.0000 0.02636  0.81612  0.07415  Biso   1.000  O
  O40      1.0000 0.55808  0.97448  0.68907  Biso   1.000  O
  O41      1.0000 0.36727  0.01948  0.54092  Biso   1.000  O
  O42      1.0000 0.52760  0.81680  0.48364  Biso   1.000  O
  O43      1.0000 0.49076  0.47961  0.87285  Biso   1.000  O
  O44      1.0000 0.68426  0.51687  0.02879  Biso   1.000  O
  O45      1.0000 0.52011  0.32471  0.07856  Biso   1.000  O
  O46      1.0000 0.98241  0.47824  0.68812  Biso   1.000  O
  O47      1.0000 0.17750  0.52015  0.52019  Biso   1.000  O
  O48      1.0000 0.02975  0.31285  0.48347  Biso   1.000  O
  O49      1.0000 0.02900  0.92660  0.18773  Biso   1.000  O
  O50      1.0000 0.18659  0.97778  0.98590  Biso   1.000  O
  O51      1.0000 0.98888  0.12528  0.03111  Biso   1.000  O
  O52      1.0000 0.53255  0.93402  0.37045  Biso   1.000  O
  O53      1.0000 0.67986  0.97316  0.57594  Biso   1.000  O
  O54      1.0000 0.48989  0.13098  0.52546  Biso   1.000  O
  O55      1.0000 0.51877  0.43961  0.18979  Biso   1.000  O
  O56      1.0000 0.37568  0.47517  0.98845  Biso   1.000  O
  O57      1.0000 0.56899  0.63261  0.02526  Biso   1.000  O
  O58      1.0000 0.01404  0.42813  0.37477  Biso   1.000  O
  O59      1.0000 0.86364  0.47606  0.58056  Biso   1.000  O
  O60      1.0000 0.05974  0.62865  0.52927  Biso   1.000  O
  O61      1.0000 0.00998  0.01612  0.87599  Biso   1.000  O
  O62      1.0000 0.86906  0.97697  0.07654  Biso   1.000  O
  O63      1.0000 0.07063  0.82195  0.03463  Biso   1.000  O
  O64      1.0000 0.52488  0.02116  0.68595  Biso   1.000  O
  O65      1.0000 0.37531  0.98745  0.49309  Biso   1.000  O
  O66      1.0000 0.56518  0.82058  0.52411  Biso   1.000  O
  O67      1.0000 0.53130  0.52000  0.86933  Biso   1.000  O
  O68      1.0000 0.68680  0.47443  0.07298  Biso   1.000  O
  O69      1.0000 0.48531  0.32166  0.03101  Biso   1.000  O
  O70      1.0000 0.02780  0.51562  0.68666  Biso   1.000  O
  O71      1.0000 0.18439  0.47763  0.48528  Biso   1.000  O
  O72      1.0000 0.98706  0.32300  0.52268  Biso   1.000  O
  O73      1.0000 0.02384  0.43194  0.68761  Biso   1.000  O
  O74      1.0000 0.67754  0.97464  0.49346  Biso   1.000  O
  O75      1.0000 0.48637  0.62981  0.03387  Biso   1.000  O
  O76      1.0000 0.53436  0.43454  0.87313  Biso   1.000  O
  O77      1.0000 0.18551  0.97530  0.07059  Biso   1.000  O
  O78      1.0000 0.97579  0.62492  0.53840  Biso   1.000  O
  O79      1.0000 0.51173  0.93778  0.68593  Biso   1.000  O
  O80      1.0000 0.86123  0.47996  0.49599  Biso   1.000  O
  O81      1.0000 0.07253  0.12967  0.02467  Biso   1.000  O
  O82      1.0000 0.03492  0.93583  0.87224  Biso   1.000  O
  O83      1.0000 0.36961  0.47591  0.07297  Biso   1.000  O
  O84      1.0000 0.57285  0.13537  0.54151  Biso   1.000  O
  O85      1.0000 0.01740  0.51265  0.37524  Biso   1.000  O
  O86      1.0000 0.36150  0.96927  0.57453  Biso   1.000  O
  O87      1.0000 0.57040  0.32487  0.04523  Biso   1.000  O
  O88      1.0000 0.52002  0.52284  0.18965  Biso   1.000  O
  O89      1.0000 0.86987  0.96786  0.99227  Biso   1.000  O
  O90      1.0000 0.07212  0.31918  0.52019  Biso   1.000  O
  O91      1.0000 0.53167  0.01892  0.37609  Biso   1.000  O
  O92      1.0000 0.17979  0.48331  0.56969  Biso   1.000  O
  O93      1.0000 0.98467  0.81821  0.03307  Biso   1.000  O
  O94      1.0000 0.02866  0.01268  0.18573  Biso   1.000  O
  O95      1.0000 0.69124  0.47905  0.98736  Biso   1.000  O
  O96      1.0000 0.48248  0.81808  0.52000  Biso   1.000  O
  O97      1.0000 0.49024  0.18051  0.52382  Biso   1.000  O
  O98      1.0000 0.51553  0.44016  0.23733  Biso   1.000  O
  O99      1.0000 0.23242  0.47578  0.48799  Biso   1.000  O
  O100     1.0000 0.98782  0.17382  0.03045  Biso   1.000  O
  O101     1.0000 0.01732  0.42908  0.32689  Biso   1.000  O
  O102     1.0000 0.73543  0.47862  0.07720  Biso   1.000  O
  O103     1.0000 0.05665  0.67690  0.52697  Biso   1.000  O
  O104     1.0000 0.03266  0.92951  0.23677  Biso   1.000  O
  O105     1.0000 0.32677  0.98674  0.49028  Biso   1.000  O
  O106     1.0000 0.56720  0.67950  0.02115  Biso   1.000  O
  O107     1.0000 0.53190  0.93652  0.32295  Biso   1.000  O
  O108     1.0000 0.81941  0.97559  0.07668  Biso   1.000  O
  O109     1.0000 0.56513  0.77224  0.52649  Biso   1.000  O
  O110     1.0000 0.53206  0.52188  0.82156  Biso   1.000  O
  O111     1.0000 0.81603  0.47378  0.58120  Biso   1.000  O
  O112     1.0000 0.07079  0.77447  0.03469  Biso   1.000  O
  O113     1.0000 0.03008  0.51702  0.73703  Biso   1.000  O
  O114     1.0000 0.32736  0.47678  0.98682  Biso   1.000  O
  O115     1.0000 0.98792  0.27774  0.53662  Biso   1.000  O
  O116     1.0000 0.01332  0.01698  0.82593  Biso   1.000  O
  O117     1.0000 0.72657  0.97206  0.57910  Biso   1.000  O
  O118     1.0000 0.48574  0.27294  0.03469  Biso   1.000  O
  O119     1.0000 0.52070  0.01926  0.73272  Biso   1.000  O
  O120     1.0000 0.23542  0.97888  0.98570  Biso   1.000  O
  O121     1.0000 0.06931  0.47338  0.73650  Biso   1.000  O
  O122     1.0000 0.72762  0.01684  0.53290  Biso   1.000  O
  O123     1.0000 0.53574  0.68195  0.06720  Biso   1.000  O
  O124     1.0000 0.57359  0.48042  0.82850  Biso   1.000  O
  O125     1.0000 0.23386  0.01559  0.03375  Biso   1.000  O
  O126     1.0000 0.01084  0.67306  0.48802  Biso   1.000  O
  O127     1.0000 0.47172  0.98426  0.73271  Biso   1.000  O
  O128     1.0000 0.80910  0.51579  0.53782  Biso   1.000  O
  O129     1.0000 0.03019  0.17588  0.07278  Biso   1.000  O
  O130     1.0000 0.98021  0.96961  0.82381  Biso   1.000  O
  O131     1.0000 0.32192  0.51696  0.03320  Biso   1.000  O
  O132     1.0000 0.53713  0.18448  0.48991  Biso   1.000  O
  O133     1.0000 0.97569  0.46952  0.32802  Biso   1.000  O
  O134     1.0000 0.32007  0.93615  0.52415  Biso   1.000  O
  O135     1.0000 0.53449  0.27347  0.99628  Biso   1.000  O
  O136     1.0000 0.47931  0.48267  0.23634  Biso   1.000  O
  O137     1.0000 0.82309  0.93094  0.04056  Biso   1.000  O
  O138     1.0000 0.03375  0.27455  0.57158  Biso   1.000  O
  O139     1.0000 0.57188  0.97792  0.32526  Biso   1.000  O
  O140     1.0000 0.23169  0.43973  0.53111  Biso   1.000  O
  O141     1.0000 0.03026  0.77354  0.98902  Biso   1.000  O
  O142     1.0000 0.07029  0.97126  0.23125  Biso   1.000  O
  O143     1.0000 0.74018  0.43377  0.03387  Biso   1.000  O
  O144     1.0000 0.52376  0.77397  0.56849  Biso   1.000  O
  O145     1.0000 0.56179  0.48097  0.23873  Biso   1.000  O
  O146     1.0000 0.22560  0.51859  0.52546  Biso   1.000  O
  O147     1.0000 0.52673  0.18529  0.57246  Biso   1.000  O
  O148     1.0000 0.05854  0.47277  0.32847  Biso   1.000  O
  O149     1.0000 0.73454  0.51852  0.03643  Biso   1.000  O
  O150     1.0000 0.03170  0.17240  0.98987  Biso   1.000  O
  O151     1.0000 0.98611  0.96976  0.23430  Biso   1.000  O
  O152     1.0000 0.31820  0.02206  0.53466  Biso   1.000  O
  O153     1.0000 0.02119  0.67961  0.57139  Biso   1.000  O
  O154     1.0000 0.48629  0.97812  0.32760  Biso   1.000  O
  O155     1.0000 0.81785  0.01509  0.03602  Biso   1.000  O
  O156     1.0000 0.52009  0.68210  0.98534  Biso   1.000  O
  O157     1.0000 0.49255  0.47846  0.82489  Biso   1.000  O
  O158     1.0000 0.81396  0.43366  0.53909  Biso   1.000  O
  O159     1.0000 0.51962  0.76711  0.48461  Biso   1.000  O
  O160     1.0000 0.98493  0.47813  0.73775  Biso   1.000  O
  O161     1.0000 0.32163  0.43352  0.02999  Biso   1.000  O
  O162     1.0000 0.03029  0.76859  0.07418  Biso   1.000  O
  O163     1.0000 0.06423  0.98339  0.82744  Biso   1.000  O
  O164     1.0000 0.72629  0.93397  0.53324  Biso   1.000  O
  O165     1.0000 0.02540  0.26603  0.48855  Biso   1.000  O
  O166     1.0000 0.55456  0.96936  0.73729  Biso   1.000  O
  O167     1.0000 0.23569  0.93270  0.02821  Biso   1.000  O
  O168     1.0000 0.52677  0.27640  0.08023  Biso   1.000  O
  O169     1.0000 0.02773  0.01377  0.23358  Biso   1.000  O
  O170     1.0000 0.23451  0.97635  0.07100  Biso   1.000  O
  O171     1.0000 0.07304  0.17696  0.02876  Biso   1.000  O
  O172     1.0000 0.52550  0.02038  0.32737  Biso   1.000  O
  O173     1.0000 0.72660  0.97643  0.49585  Biso   1.000  O
  O174     1.0000 0.57093  0.18350  0.53642  Biso   1.000  O
  O175     1.0000 0.52255  0.52336  0.23778  Biso   1.000  O
  O176     1.0000 0.32027  0.47394  0.06975  Biso   1.000  O
  O177     1.0000 0.48554  0.67815  0.03017  Biso   1.000  O
  O178     1.0000 0.01166  0.51094  0.32781  Biso   1.000  O
  O179     1.0000 0.81348  0.47598  0.49721  Biso   1.000  O
  O180     1.0000 0.97035  0.67308  0.53483  Biso   1.000  O
  O181     1.0000 0.02988  0.93450  0.82417  Biso   1.000  O
  O182     1.0000 0.82093  0.97159  0.99267  Biso   1.000  O
  O183     1.0000 0.98841  0.76949  0.03332  Biso   1.000  O
  O184     1.0000 0.50535  0.93561  0.73339  Biso   1.000  O
  O185     1.0000 0.31132  0.97377  0.57072  Biso   1.000  O
  O186     1.0000 0.48173  0.76983  0.52647  Biso   1.000  O
  O187     1.0000 0.53309  0.43654  0.82508  Biso   1.000  O
  O188     1.0000 0.73990  0.47937  0.99001  Biso   1.000  O
  O189     1.0000 0.57039  0.27664  0.04157  Biso   1.000  O
  O190     1.0000 0.02555  0.43218  0.73610  Biso   1.000  O
  O191     1.0000 0.22940  0.48409  0.56937  Biso   1.000  O
  O192     1.0000 0.07367  0.27070  0.52654  Biso   1.000  O
