data_image0
_cell_length_a       46.5566
_cell_length_b       46.6001
_cell_length_c       46.5958
_cell_angle_alpha    90
_cell_angle_beta     90
_cell_angle_gamma    90

_symmetry_space_group_name_H-M    "P 1"
_symmetry_int_tables_number       1

loop_
  _symmetry_equiv_pos_as_xyz
  'x, y, z'

loop_
  _atom_site_label
  _atom_site_occupancy
  _atom_site_fract_x
  _atom_site_fract_y
  _atom_site_fract_z
  _atom_site_thermal_displace_type
  _atom_site_B_iso_or_equiv
  _atom_site_type_symbol
  C1       1.0000 0.58469  0.96802  0.33489  Biso   1.000  C
  C2       1.0000 0.34654  0.54660  0.02712  Biso   1.000  C
  C3       1.0000 0.03496  0.29691  0.57383  Biso   1.000  C
  C4       1.0000 0.07845  0.98738  0.19766  Biso   1.000  C
  C5       1.0000 0.84522  0.53363  0.51231  Biso   1.000  C
  C6       1.0000 0.51506  0.30640  0.95185  Biso   1.000  C
  C7       1.0000 0.97992  0.48930  0.33467  Biso   1.000  C
  C8       1.0000 0.20763  0.04483  0.03003  Biso   1.000  C
  C9       1.0000 0.52748  0.80905  0.58574  Biso   1.000  C
  C10      1.0000 0.47696  0.47012  0.19701  Biso   1.000  C
  C11      1.0000 0.70600  0.04248  0.52543  Biso   1.000  C
  C12      1.0000 0.03858  0.79256  0.96445  Biso   1.000  C
  C13      1.0000 0.46921  0.99864  0.69686  Biso   1.000  C
  C14      1.0000 0.70382  0.41854  0.01903  Biso   1.000  C
  C15      1.0000 0.01695  0.66516  0.46146  Biso   1.000  C
  C16      1.0000 0.97790  0.96956  0.83587  Biso   1.000  C
  C17      1.0000 0.20303  0.43123  0.52657  Biso   1.000  C
  C18      1.0000 0.53622  0.66134  0.07827  Biso   1.000  C
  C19      1.0000 0.07262  0.47385  0.69787  Biso   1.000  C
  C20      1.0000 0.85608  0.92388  0.02492  Biso   1.000  C
  C21      1.0000 0.52581  0.15880  0.45016  Biso   1.000  C
  C22      1.0000 0.57659  0.49229  0.83472  Biso   1.000  C
  C23      1.0000 0.34850  0.92513  0.50989  Biso   1.000  C
  C24      1.0000 0.00435  0.16168  0.06866  Biso   1.000  C
  C25      1.0000 0.34704  0.03537  0.50755  Biso   1.000  C
  C26      1.0000 0.52605  0.30244  0.06145  Biso   1.000  C
  C27      1.0000 0.08633  0.48727  0.33867  Biso   1.000  C
  C28      1.0000 0.84448  0.02973  0.01072  Biso   1.000  C
  C29      1.0000 0.01842  0.30273  0.46536  Biso   1.000  C
  C30      1.0000 0.58727  0.48339  0.19820  Biso   1.000  C
  C31      1.0000 0.20625  0.54061  0.51705  Biso   1.000  C
  C32      1.0000 0.03816  0.79806  0.07198  Biso   1.000  C
  C33      1.0000 0.47661  0.97387  0.33065  Biso   1.000  C
  C34      1.0000 0.71244  0.53047  0.01400  Biso   1.000  C
  C35      1.0000 0.53602  0.80203  0.47789  Biso   1.000  C
  C36      1.0000 0.97114  0.97733  0.19173  Biso   1.000  C
  C37      1.0000 0.71112  0.93183  0.51732  Biso   1.000  C
  C38      1.0000 0.54183  0.66296  0.96799  Biso   1.000  C
  C39      1.0000 0.96105  0.47999  0.69830  Biso   1.000  C
  C40      1.0000 0.20783  0.93666  0.01265  Biso   1.000  C
  C41      1.0000 0.03107  0.66214  0.57061  Biso   1.000  C
  C42      1.0000 0.46655  0.48922  0.83597  Biso   1.000  C
  C43      1.0000 0.84663  0.42693  0.51507  Biso   1.000  C
  C44      1.0000 0.02647  0.15838  0.96025  Biso   1.000  C
  C45      1.0000 0.57790  0.98527  0.70252  Biso   1.000  C
  C46      1.0000 0.34611  0.43709  0.02207  Biso   1.000  C
  C47      1.0000 0.51533  0.16449  0.55736  Biso   1.000  C
  C48      1.0000 0.08501  0.97904  0.83393  Biso   1.000  C
  C49      1.0000 0.02342  0.02839  0.83364  Biso   1.000  C
  C50      1.0000 0.84242  0.98471  0.06798  Biso   1.000  C
  C51      1.0000 0.09192  0.79678  0.01648  Biso   1.000  C
  C52      1.0000 0.52802  0.04497  0.69035  Biso   1.000  C
  C53      1.0000 0.35400  0.97746  0.45839  Biso   1.000  C
  C54      1.0000 0.58563  0.80606  0.53240  Biso   1.000  C
  C55      1.0000 0.51903  0.54267  0.83477  Biso   1.000  C
  C56      1.0000 0.71022  0.47389  0.06972  Biso   1.000  C
  C57      1.0000 0.46500  0.30414  0.01303  Biso   1.000  C
  C58      1.0000 0.01816  0.53282  0.69560  Biso   1.000  C
  C59      1.0000 0.20610  0.48024  0.46680  Biso   1.000  C
  C60      1.0000 0.97146  0.30134  0.52430  Biso   1.000  C
  C61      1.0000 0.03185  0.93020  0.19382  Biso   1.000  C
  C62      1.0000 0.20897  0.99937  0.96427  Biso   1.000  C
  C63      1.0000 0.96604  0.15972  0.00267  Biso   1.000  C
  C64      1.0000 0.52942  0.91762  0.33740  Biso   1.000  C
  C65      1.0000 0.70409  0.98254  0.57212  Biso   1.000  C
  C66      1.0000 0.46736  0.16353  0.49910  Biso   1.000  C
  C67      1.0000 0.53786  0.42446  0.19256  Biso   1.000  C
  C68      1.0000 0.34536  0.49342  0.96839  Biso   1.000  C
  C69      1.0000 0.59267  0.66148  0.02830  Biso   1.000  C
  C70      1.0000 0.02838  0.43012  0.33737  Biso   1.000  C
  C71      1.0000 0.83776  0.48654  0.56529  Biso   1.000  C
  C72      1.0000 0.07959  0.66387  0.51015  Biso   1.000  C
  C73      1.0000 0.03669  0.54158  0.33522  Biso   1.000  C
  C74      1.0000 0.34503  0.98266  0.56663  Biso   1.000  C
  C75      1.0000 0.57578  0.29827  0.00471  Biso   1.000  C
  C76      1.0000 0.52495  0.53434  0.20280  Biso   1.000  C
  C77      1.0000 0.85033  0.97112  0.96072  Biso   1.000  C
  C78      1.0000 0.07972  0.30341  0.51286  Biso   1.000  C
  C79      1.0000 0.53543  0.02701  0.33000  Biso   1.000  C
  C80      1.0000 0.20303  0.49131  0.57443  Biso   1.000  C
  C81      1.0000 0.98128  0.79587  0.01971  Biso   1.000  C
  C82      1.0000 0.02064  0.03811  0.19316  Biso   1.000  C
  C83      1.0000 0.70677  0.47467  0.96352  Biso   1.000  C
  C84      1.0000 0.47649  0.80471  0.52537  Biso   1.000  C
  C85      1.0000 0.01438  0.42509  0.69592  Biso   1.000  C
  C86      1.0000 0.70681  0.99137  0.46379  Biso   1.000  C
  C87      1.0000 0.48447  0.66154  0.01777  Biso   1.000  C
  C88      1.0000 0.52328  0.43680  0.82905  Biso   1.000  C
  C89      1.0000 0.20651  0.98356  0.07462  Biso   1.000  C
  C90      1.0000 0.97252  0.65824  0.52170  Biso   1.000  C
  C91      1.0000 0.51607  0.93903  0.70443  Biso   1.000  C
  C92      1.0000 0.84967  0.47423  0.45873  Biso   1.000  C
  C93      1.0000 0.07320  0.16302  0.02620  Biso   1.000  C
  C94      1.0000 0.03594  0.91845  0.83757  Biso   1.000  C
  C95      1.0000 0.35256  0.49135  0.07749  Biso   1.000  C
  C96      1.0000 0.57520  0.16311  0.51675  Biso   1.000  C
  C97      1.0000 0.70682  0.07350  0.53071  Biso   1.000  C
  C98      1.0000 0.53597  0.66020  0.11017  Biso   1.000  C
  C99      1.0000 0.10388  0.47075  0.69668  Biso   1.000  C
  C100     1.0000 0.20406  0.07463  0.04411  Biso   1.000  C
  C101     1.0000 0.01617  0.66550  0.42950  Biso   1.000  C
  C102     1.0000 0.60830  0.48774  0.83391  Biso   1.000  C
  C103     1.0000 0.84662  0.56669  0.51464  Biso   1.000  C
  C104     1.0000 0.00119  0.16285  0.10099  Biso   1.000  C
  C105     1.0000 0.43734  0.00153  0.69466  Biso   1.000  C
  C106     1.0000 0.35257  0.57705  0.03400  Biso   1.000  C
  C107     1.0000 0.52385  0.15955  0.41812  Biso   1.000  C
  C108     1.0000 0.94496  0.97177  0.83510  Biso   1.000  C
  C109     1.0000 0.35163  0.89293  0.50642  Biso   1.000  C
  C110     1.0000 0.51454  0.30740  0.91839  Biso   1.000  C
  C111     1.0000 0.94709  0.48596  0.33536  Biso   1.000  C
  C112     1.0000 0.85512  0.89244  0.03304  Biso   1.000  C
  C113     1.0000 0.03640  0.29840  0.60538  Biso   1.000  C
  C114     1.0000 0.44642  0.46939  0.19824  Biso   1.000  C
  C115     1.0000 0.20547  0.39992  0.53123  Biso   1.000  C
  C116     1.0000 0.04940  0.79422  0.93479  Biso   1.000  C
  C117     1.0000 0.61665  0.96628  0.33721  Biso   1.000  C
  C118     1.0000 0.70421  0.38771  0.02053  Biso   1.000  C
  C119     1.0000 0.53127  0.80961  0.61709  Biso   1.000  C
  C120     1.0000 0.11066  0.98582  0.20061  Biso   1.000  C
  C121     1.0000 0.84023  0.98739  0.10063  Biso   1.000  C
  C122     1.0000 0.12384  0.80070  0.01144  Biso   1.000  C
  C123     1.0000 0.02303  0.06193  0.83403  Biso   1.000  C
  C124     1.0000 0.35435  0.97545  0.42683  Biso   1.000  C
  C125     1.0000 0.61728  0.80675  0.53128  Biso   1.000  C
  C126     1.0000 0.52936  0.07666  0.68789  Biso   1.000  C
  C127     1.0000 0.71132  0.47004  0.10185  Biso   1.000  C
  C128     1.0000 0.43403  0.30507  0.02114  Biso   1.000  C
  C129     1.0000 0.52057  0.57423  0.83570  Biso   1.000  C
  C130     1.0000 0.20826  0.47508  0.43502  Biso   1.000  C
  C131     1.0000 0.94047  0.30065  0.52622  Biso   1.000  C
  C132     1.0000 0.02005  0.56516  0.69606  Biso   1.000  C
  C133     1.0000 0.21117  0.00492  0.93150  Biso   1.000  C
  C134     1.0000 0.93408  0.15804  0.99648  Biso   1.000  C
  C135     1.0000 0.03120  0.89665  0.19151  Biso   1.000  C
  C136     1.0000 0.70348  0.98128  0.60419  Biso   1.000  C
  C137     1.0000 0.43450  0.16428  0.49739  Biso   1.000  C
  C138     1.0000 0.52638  0.88551  0.34092  Biso   1.000  C
  C139     1.0000 0.34189  0.49442  0.93630  Biso   1.000  C
  C140     1.0000 0.62484  0.66052  0.02929  Biso   1.000  C
  C141     1.0000 0.54203  0.39199  0.19187  Biso   1.000  C
  C142     1.0000 0.83563  0.48763  0.59731  Biso   1.000  C
  C143     1.0000 0.11196  0.66573  0.51025  Biso   1.000  C
  C144     1.0000 0.02600  0.39769  0.33652  Biso   1.000  C
  C145     1.0000 0.35311  0.49028  0.10902  Biso   1.000  C
  C146     1.0000 0.11217  0.30334  0.51114  Biso   1.000  C
  C147     1.0000 0.53765  0.05938  0.32843  Biso   1.000  C
  C148     1.0000 0.84990  0.46995  0.42747  Biso   1.000  C
  C149     1.0000 0.60762  0.29406  0.00553  Biso   1.000  C
  C150     1.0000 0.01733  0.07039  0.19398  Biso   1.000  C
  C151     1.0000 0.20645  0.98180  0.10731  Biso   1.000  C
  C152     1.0000 0.44541  0.80197  0.51888  Biso   1.000  C
  C153     1.0000 0.03209  0.57289  0.33436  Biso   1.000  C
  C154     1.0000 0.70812  0.99417  0.43138  Biso   1.000  C
  C155     1.0000 0.95006  0.79690  0.02323  Biso   1.000  C
  C156     1.0000 0.52180  0.56660  0.20254  Biso   1.000  C
  C157     1.0000 0.70492  0.48287  0.93188  Biso   1.000  C
  C158     1.0000 0.94030  0.65800  0.51827  Biso   1.000  C
  C159     1.0000 0.51417  0.90780  0.71011  Biso   1.000  C
  C160     1.0000 0.20198  0.49403  0.60817  Biso   1.000  C
  C161     1.0000 0.45182  0.66451  0.02078  Biso   1.000  C
  C162     1.0000 0.04169  0.88618  0.83925  Biso   1.000  C
  C163     1.0000 0.85078  0.96968  0.92940  Biso   1.000  C
  C164     1.0000 0.60728  0.16399  0.52370  Biso   1.000  C
  C165     1.0000 0.01220  0.39272  0.69675  Biso   1.000  C
  C166     1.0000 0.34321  0.98808  0.59725  Biso   1.000  C
  C167     1.0000 0.10536  0.16333  0.03082  Biso   1.000  C
  C168     1.0000 0.52048  0.40539  0.82823  Biso   1.000  C
  C169     1.0000 0.03173  0.79962  0.10232  Biso   1.000  C
  C170     1.0000 0.11807  0.98268  0.83452  Biso   1.000  C
  C171     1.0000 0.84138  0.06074  0.00676  Biso   1.000  C
  C172     1.0000 0.53105  0.79995  0.44566  Biso   1.000  C
  C173     1.0000 0.61071  0.98463  0.70213  Biso   1.000  C
  C174     1.0000 0.34635  0.06648  0.51382  Biso   1.000  C
  C175     1.0000 0.52995  0.30184  0.09278  Biso   1.000  C
  C176     1.0000 0.43449  0.48915  0.83759  Biso   1.000  C
  C177     1.0000 0.71318  0.56256  0.01129  Biso   1.000  C
  C178     1.0000 0.01782  0.30361  0.43242  Biso   1.000  C
  C179     1.0000 0.92754  0.48076  0.69780  Biso   1.000  C
  C180     1.0000 0.20601  0.57251  0.51283  Biso   1.000  C
  C181     1.0000 0.02902  0.16026  0.92648  Biso   1.000  C
  C182     1.0000 0.93881  0.97613  0.19141  Biso   1.000  C
  C183     1.0000 0.20948  0.90506  0.01097  Biso   1.000  C
  C184     1.0000 0.51093  0.16438  0.58870  Biso   1.000  C
  C185     1.0000 0.44370  0.97403  0.32886  Biso   1.000  C
  C186     1.0000 0.71300  0.89974  0.51696  Biso   1.000  C
  C187     1.0000 0.54276  0.66285  0.93659  Biso   1.000  C
  C188     1.0000 0.61860  0.47986  0.19695  Biso   1.000  C
  C189     1.0000 0.34560  0.40512  0.02489  Biso   1.000  C
  C190     1.0000 0.03054  0.66214  0.60352  Biso   1.000  C
  C191     1.0000 0.11794  0.48511  0.33704  Biso   1.000  C
  C192     1.0000 0.84645  0.39518  0.51859  Biso   1.000  C
  C193     1.0000 0.87779  0.97062  0.91341  Biso   1.000  C
  C194     1.0000 0.93517  0.82527  0.02504  Biso   1.000  C
  C195     1.0000 0.04348  0.87170  0.86698  Biso   1.000  C
  C196     1.0000 0.37044  0.99045  0.61528  Biso   1.000  C
  C197     1.0000 0.43019  0.82818  0.51169  Biso   1.000  C
  C198     1.0000 0.51531  0.88972  0.68392  Biso   1.000  C
  C199     1.0000 0.67703  0.48148  0.91623  Biso   1.000  C
  C200     1.0000 0.62401  0.32054  0.00994  Biso   1.000  C
  C201     1.0000 0.51987  0.38845  0.85392  Biso   1.000  C
  C202     1.0000 0.17441  0.48819  0.62174  Biso   1.000  C
  C203     1.0000 0.12764  0.33037  0.51837  Biso   1.000  C
  C204     1.0000 0.01684  0.37537  0.67014  Biso   1.000  C
  C205     1.0000 0.17835  0.98184  0.12135  Biso   1.000  C
  C206     1.0000 0.12346  0.13853  0.03290  Biso   1.000  C
  C207     1.0000 0.01376  0.08581  0.16711  Biso   1.000  C
  C208     1.0000 0.68225  0.98676  0.41477  Biso   1.000  C
  C209     1.0000 0.62530  0.13799  0.52498  Biso   1.000  C
  C210     1.0000 0.53377  0.07789  0.35473  Biso   1.000  C
  C211     1.0000 0.37994  0.48419  0.12536  Biso   1.000  C
  C212     1.0000 0.43333  0.63911  0.02257  Biso   1.000  C
  C213     1.0000 0.52321  0.58117  0.17444  Biso   1.000  C
  C214     1.0000 0.87738  0.47325  0.41252  Biso   1.000  C
  C215     1.0000 0.92302  0.63230  0.51470  Biso   1.000  C
  C216     1.0000 0.02690  0.58888  0.36118  Biso   1.000  C
  C217     1.0000 0.13303  0.98749  0.86281  Biso   1.000  C
  C218     1.0000 0.86916  0.07730  0.00486  Biso   1.000  C
  C219     1.0000 0.03371  0.82654  0.11882  Biso   1.000  C
  C220     1.0000 0.62718  0.98252  0.67544  Biso   1.000  C
  C221     1.0000 0.37087  0.08469  0.50821  Biso   1.000  C
  C222     1.0000 0.52982  0.82535  0.42709  Biso   1.000  C
  C223     1.0000 0.41982  0.48980  0.86635  Biso   1.000  C
  C224     1.0000 0.68715  0.58069  0.01317  Biso   1.000  C
  C225     1.0000 0.53289  0.32844  0.10896  Biso   1.000  C
  C226     1.0000 0.91132  0.47883  0.66907  Biso   1.000  C
  C227     1.0000 0.17936  0.58740  0.51246  Biso   1.000  C
  C228     1.0000 0.02128  0.33085  0.41638  Biso   1.000  C
  C229     1.0000 0.92133  0.98026  0.16560  Biso   1.000  C
  C230     1.0000 0.18405  0.88614  0.00822  Biso   1.000  C
  C231     1.0000 0.02878  0.13309  0.91133  Biso   1.000  C
  C232     1.0000 0.42945  0.97481  0.35662  Biso   1.000  C
  C233     1.0000 0.68495  0.88295  0.51670  Biso   1.000  C
  C234     1.0000 0.51668  0.13785  0.60501  Biso   1.000  C
  C235     1.0000 0.63306  0.47792  0.16993  Biso   1.000  C
  C236     1.0000 0.37217  0.38741  0.02191  Biso   1.000  C
  C237     1.0000 0.53521  0.63715  0.91829  Biso   1.000  C
  C238     1.0000 0.13402  0.48165  0.36353  Biso   1.000  C
  C239     1.0000 0.87380  0.37897  0.52326  Biso   1.000  C
  C240     1.0000 0.02778  0.63564  0.61753  Biso   1.000  C
  C241     1.0000 0.62295  0.48611  0.86189  Biso   1.000  C
  C242     1.0000 0.87178  0.58439  0.51684  Biso   1.000  C
  C243     1.0000 0.52744  0.83721  0.63309  Biso   1.000  C
  C244     1.0000 0.12035  0.47390  0.67084  Biso   1.000  C
  C245     1.0000 0.38084  0.59115  0.02964  Biso   1.000  C
  C246     1.0000 0.04494  0.82104  0.91912  Biso   1.000  C
  C247     1.0000 0.92916  0.97208  0.86157  Biso   1.000  C
  C248     1.0000 0.67809  0.08852  0.52524  Biso   1.000  C
  C249     1.0000 0.02851  0.32394  0.62108  Biso   1.000  C
  C250     1.0000 0.42008  0.99735  0.66793  Biso   1.000  C
  C251     1.0000 0.17651  0.08922  0.04185  Biso   1.000  C
  C252     1.0000 0.51830  0.33517  0.90302  Biso   1.000  C
  C253     1.0000 0.42913  0.47526  0.17296  Biso   1.000  C
  C254     1.0000 0.17813  0.38348  0.52946  Biso   1.000  C
  C255     1.0000 0.52367  0.13197  0.40193  Biso   1.000  C
  C256     1.0000 0.93054  0.48218  0.36239  Biso   1.000  C
  C257     1.0000 0.67749  0.37138  0.01865  Biso   1.000  C
  C258     1.0000 0.00314  0.13660  0.11608  Biso   1.000  C
  C259     1.0000 0.12647  0.98119  0.17428  Biso   1.000  C
  C260     1.0000 0.37904  0.87724  0.50631  Biso   1.000  C
  C261     1.0000 0.01993  0.63811  0.41332  Biso   1.000  C
  C262     1.0000 0.63172  0.97497  0.36396  Biso   1.000  C
  C263     1.0000 0.88201  0.87611  0.02954  Biso   1.000  C
  C264     1.0000 0.53221  0.63253  0.12564  Biso   1.000  C
  C265     1.0000 0.02610  0.07838  0.86196  Biso   1.000  C
  C266     1.0000 0.86751  0.98464  0.11601  Biso   1.000  C
  C267     1.0000 0.13654  0.82964  0.00909  Biso   1.000  C
  C268     1.0000 0.52395  0.09029  0.65929  Biso   1.000  C
  C269     1.0000 0.38179  0.97442  0.41113  Biso   1.000  C
  C270     1.0000 0.63250  0.83336  0.52646  Biso   1.000  C
  C271     1.0000 0.52209  0.58879  0.86397  Biso   1.000  C
  C272     1.0000 0.68520  0.47674  0.11781  Biso   1.000  C
  C273     1.0000 0.41946  0.33204  0.01878  Biso   1.000  C
  C274     1.0000 0.01940  0.57990  0.66829  Biso   1.000  C
  C275     1.0000 0.18223  0.47670  0.41657  Biso   1.000  C
  C276     1.0000 0.92472  0.32756  0.52514  Biso   1.000  C
  C277     1.0000 0.03574  0.87895  0.16515  Biso   1.000  C
  C278     1.0000 0.18374  0.00154  0.91416  Biso   1.000  C
  C279     1.0000 0.91779  0.13047  0.99768  Biso   1.000  C
  C280     1.0000 0.52927  0.87292  0.37028  Biso   1.000  C
  C281     1.0000 0.67616  0.98110  0.62069  Biso   1.000  C
  C282     1.0000 0.41869  0.13767  0.50103  Biso   1.000  C
  C283     1.0000 0.53875  0.37803  0.16424  Biso   1.000  C
  C284     1.0000 0.36945  0.49137  0.92027  Biso   1.000  C
  C285     1.0000 0.64084  0.63280  0.02092  Biso   1.000  C
  C286     1.0000 0.02509  0.38215  0.36448  Biso   1.000  C
  C287     1.0000 0.86162  0.48427  0.61426  Biso   1.000  C
  C288     1.0000 0.12952  0.63951  0.50826  Biso   1.000  C
  C289     1.0000 0.37708  0.84581  0.50698  Biso   1.000  C
  C290     1.0000 0.51790  0.33501  0.87155  Biso   1.000  C
  C291     1.0000 0.89882  0.47973  0.36014  Biso   1.000  C
  C292     1.0000 0.88318  0.84582  0.02618  Biso   1.000  C
  C293     1.0000 0.02478  0.32301  0.65189  Biso   1.000  C
  C294     1.0000 0.39748  0.47778  0.17716  Biso   1.000  C
  C295     1.0000 0.18052  0.35288  0.52324  Biso   1.000  C
  C296     1.0000 0.04877  0.81930  0.88889  Biso   1.000  C
  C297     1.0000 0.66343  0.97349  0.36410  Biso   1.000  C
  C298     1.0000 0.67678  0.33995  0.01590  Biso   1.000  C
  C299     1.0000 0.52871  0.83723  0.66438  Biso   1.000  C
  C300     1.0000 0.15721  0.98020  0.17394  Biso   1.000  C
  C301     1.0000 0.67870  0.11937  0.52610  Biso   1.000  C
  C302     1.0000 0.52920  0.63274  0.15602  Biso   1.000  C
  C303     1.0000 0.15243  0.47932  0.67420  Biso   1.000  C
  C304     1.0000 0.17584  0.12103  0.04443  Biso   1.000  C
  C305     1.0000 0.01948  0.64027  0.38219  Biso   1.000  C
  C306     1.0000 0.65535  0.48399  0.86274  Biso   1.000  C
  C307     1.0000 0.87051  0.61536  0.51439  Biso   1.000  C
  C308     1.0000 0.00256  0.13766  0.14799  Biso   1.000  C
  C309     1.0000 0.38874  0.99894  0.66802  Biso   1.000  C
  C310     1.0000 0.38015  0.62320  0.03092  Biso   1.000  C
  C311     1.0000 0.52798  0.13109  0.37092  Biso   1.000  C
  C312     1.0000 0.89772  0.97014  0.86115  Biso   1.000  C
  C313     1.0000 0.18652  0.47747  0.38506  Biso   1.000  C
  C314     1.0000 0.38828  0.13769  0.50555  Biso   1.000  C
  C315     1.0000 0.53727  0.34740  0.16322  Biso   1.000  C
  C316     1.0000 0.68605  0.47228  0.14907  Biso   1.000  C
  C317     1.0000 0.88668  0.12878  0.99329  Biso   1.000  C
  C318     1.0000 0.02273  0.35122  0.36322  Biso   1.000  C
  C319     1.0000 0.37834  0.97146  0.37991  Biso   1.000  C
  C320     1.0000 0.16099  0.64009  0.51053  Biso   1.000  C
  C321     1.0000 0.02988  0.84866  0.16917  Biso   1.000  C
  C322     1.0000 0.86874  0.98667  0.14768  Biso   1.000  C
  C323     1.0000 0.67169  0.63356  0.01997  Biso   1.000  C
  C324     1.0000 0.52719  0.84232  0.37254  Biso   1.000  C
  C325     1.0000 0.85874  0.48223  0.64567  Biso   1.000  C
  C326     1.0000 0.66435  0.83146  0.52120  Biso   1.000  C
  C327     1.0000 0.52798  0.61993  0.86558  Biso   1.000  C
  C328     1.0000 0.36746  0.49081  0.88824  Biso   1.000  C
  C329     1.0000 0.16781  0.83114  0.01023  Biso   1.000  C
  C330     1.0000 0.02406  0.61194  0.66946  Biso   1.000  C
  C331     1.0000 0.67880  0.98060  0.65098  Biso   1.000  C
  C332     1.0000 0.89387  0.32514  0.52341  Biso   1.000  C
  C333     1.0000 0.02579  0.10969  0.86047  Biso   1.000  C
  C334     1.0000 0.18530  0.00157  0.88401  Biso   1.000  C
  C335     1.0000 0.38871  0.33235  0.02272  Biso   1.000  C
  C336     1.0000 0.52070  0.12175  0.65781  Biso   1.000  C
  C337     1.0000 0.67765  0.48266  0.88480  Biso   1.000  C
  C338     1.0000 0.89298  0.63620  0.51482  Biso   1.000  C
  C339     1.0000 0.52448  0.85914  0.68514  Biso   1.000  C
  C340     1.0000 0.17508  0.48456  0.65389  Biso   1.000  C
  C341     1.0000 0.40266  0.64302  0.02715  Biso   1.000  C
  C342     1.0000 0.04552  0.84072  0.86659  Biso   1.000  C
  C343     1.0000 0.87660  0.97001  0.88271  Biso   1.000  C
  C344     1.0000 0.65636  0.13999  0.52502  Biso   1.000  C
  C345     1.0000 0.01875  0.34435  0.67295  Biso   1.000  C
  C346     1.0000 0.36771  0.99618  0.64546  Biso   1.000  C
  C347     1.0000 0.15382  0.14189  0.04080  Biso   1.000  C
  C348     1.0000 0.51919  0.35758  0.85151  Biso   1.000  C
  C349     1.0000 0.37573  0.48111  0.15668  Biso   1.000  C
  C350     1.0000 0.15878  0.33098  0.51980  Biso   1.000  C
  C351     1.0000 0.53218  0.10883  0.35091  Biso   1.000  C
  C352     1.0000 0.87658  0.47499  0.38066  Biso   1.000  C
  C353     1.0000 0.65498  0.31943  0.01126  Biso   1.000  C
  C354     1.0000 0.00629  0.11594  0.17009  Biso   1.000  C
  C355     1.0000 0.18044  0.98081  0.15345  Biso   1.000  C
  C356     1.0000 0.39917  0.82501  0.50902  Biso   1.000  C
  C357     1.0000 0.02221  0.61886  0.36079  Biso   1.000  C
  C358     1.0000 0.68531  0.97930  0.38472  Biso   1.000  C
  C359     1.0000 0.90460  0.82442  0.02441  Biso   1.000  C
  C360     1.0000 0.52373  0.61226  0.17766  Biso   1.000  C
  C361     1.0000 0.02706  0.13259  0.88001  Biso   1.000  C
  C362     1.0000 0.89131  0.98514  0.16761  Biso   1.000  C
  C363     1.0000 0.18661  0.85565  0.00936  Biso   1.000  C
  C364     1.0000 0.51628  0.14203  0.63611  Biso   1.000  C
  C365     1.0000 0.39821  0.97107  0.35658  Biso   1.000  C
  C366     1.0000 0.68671  0.85176  0.52023  Biso   1.000  C
  C367     1.0000 0.53472  0.63946  0.88768  Biso   1.000  C
  C368     1.0000 0.66505  0.47543  0.17061  Biso   1.000  C
  C369     1.0000 0.36980  0.35633  0.02289  Biso   1.000  C
  C370     1.0000 0.02799  0.63424  0.64930  Biso   1.000  C
  C371     1.0000 0.16556  0.47880  0.36329  Biso   1.000  C
  C372     1.0000 0.87248  0.34787  0.52301  Biso   1.000  C
  C373     1.0000 0.02853  0.82671  0.14911  Biso   1.000  C
  C374     1.0000 0.16420  0.99514  0.86231  Biso   1.000  C
  C375     1.0000 0.86610  0.10753  0.99624  Biso   1.000  C
  C376     1.0000 0.52644  0.82182  0.39537  Biso   1.000  C
  C377     1.0000 0.65884  0.98191  0.67451  Biso   1.000  C
  C378     1.0000 0.36728  0.11560  0.50919  Biso   1.000  C
  C379     1.0000 0.53507  0.32657  0.14027  Biso   1.000  C
  C380     1.0000 0.38868  0.48924  0.86734  Biso   1.000  C
  C381     1.0000 0.69230  0.61086  0.01585  Biso   1.000  C
  C382     1.0000 0.02153  0.32967  0.38444  Biso   1.000  C
  C383     1.0000 0.87944  0.48121  0.66810  Biso   1.000  C
  C384     1.0000 0.18231  0.61856  0.51220  Biso   1.000  C
  C385     1.0000 0.20227  0.13801  0.04911  Biso   1.000  C
  C386     1.0000 0.99728  0.16414  0.16373  Biso   1.000  C
  C387     1.0000 0.17218  0.98043  0.20100  Biso   1.000  C
  C388     1.0000 0.70416  0.13554  0.52790  Biso   1.000  C
  C389     1.0000 0.52711  0.15818  0.35361  Biso   1.000  C
  C390     1.0000 0.67971  0.96837  0.33836  Biso   1.000  C
  C391     1.0000 0.35424  0.64070  0.03466  Biso   1.000  C
  C392     1.0000 0.53120  0.65990  0.17244  Biso   1.000  C
  C393     1.0000 0.38415  0.47513  0.20435  Biso   1.000  C
  C394     1.0000 0.84409  0.63034  0.51369  Biso   1.000  C
  C395     1.0000 0.01223  0.66573  0.36644  Biso   1.000  C
  C396     1.0000 0.88412  0.47705  0.33342  Biso   1.000  C
  C397     1.0000 0.85597  0.82935  0.02581  Biso   1.000  C
  C398     1.0000 0.05526  0.79255  0.87284  Biso   1.000  C
  C399     1.0000 0.88254  0.96791  0.83471  Biso   1.000  C
  C400     1.0000 0.34984  0.82895  0.50853  Biso   1.000  C
  C401     1.0000 0.53691  0.81156  0.67977  Biso   1.000  C
  C402     1.0000 0.37227  0.00656  0.69332  Biso   1.000  C
  C403     1.0000 0.70325  0.32332  0.01730  Biso   1.000  C
  C404     1.0000 0.51544  0.30855  0.85479  Biso   1.000  C
  C405     1.0000 0.67102  0.48563  0.83691  Biso   1.000  C
  C406     1.0000 0.20804  0.33786  0.52315  Biso   1.000  C
  C407     1.0000 0.02828  0.29729  0.66816  Biso   1.000  C
  C408     1.0000 0.16621  0.47712  0.70139  Biso   1.000  C
  C409     1.0000 0.17861  0.99856  0.83601  Biso   1.000  C
  C410     1.0000 0.83853  0.12041  0.99228  Biso   1.000  C
  C411     1.0000 0.02449  0.80022  0.16547  Biso   1.000  C
  C412     1.0000 0.67467  0.98303  0.70037  Biso   1.000  C
  C413     1.0000 0.34096  0.13053  0.51518  Biso   1.000  C
  C414     1.0000 0.52540  0.79316  0.38275  Biso   1.000  C
  C415     1.0000 0.37279  0.49142  0.84024  Biso   1.000  C
  C416     1.0000 0.72029  0.62542  0.01751  Biso   1.000  C
  C417     1.0000 0.53518  0.29912  0.15578  Biso   1.000  C
  C418     1.0000 0.86403  0.48343  0.69372  Biso   1.000  C
  C419     1.0000 0.20907  0.63516  0.51375  Biso   1.000  C
  C420     1.0000 0.01808  0.30229  0.36795  Biso   1.000  C
  C421     1.0000 0.87682  0.98443  0.19542  Biso   1.000  C
  C422     1.0000 0.21448  0.84210  0.01135  Biso   1.000  C
  C423     1.0000 0.02395  0.15798  0.86343  Biso   1.000  C
  C424     1.0000 0.38183  0.96751  0.33005  Biso   1.000  C
  C425     1.0000 0.71332  0.83597  0.52075  Biso   1.000  C
  C426     1.0000 0.51152  0.16842  0.65145  Biso   1.000  C
  C427     1.0000 0.68073  0.47316  0.19832  Biso   1.000  C
  C428     1.0000 0.34319  0.34087  0.03014  Biso   1.000  C
  C429     1.0000 0.54073  0.66617  0.87398  Biso   1.000  C
  C430     1.0000 0.18207  0.48102  0.33765  Biso   1.000  C
  C431     1.0000 0.84555  0.33342  0.52148  Biso   1.000  C
  C432     1.0000 0.02998  0.66052  0.66622  Biso   1.000  C
  C433     1.0000 0.02202  0.12409  0.83323  Biso   1.000  C
  C434     1.0000 0.84313  0.98889  0.16370  Biso   1.000  C
  C435     1.0000 0.18624  0.80503  0.01129  Biso   1.000  C
  C436     1.0000 0.52002  0.13861  0.68462  Biso   1.000  C
  C437     1.0000 0.35123  0.96711  0.36565  Biso   1.000  C
  C438     1.0000 0.67951  0.80471  0.52314  Biso   1.000  C
  C439     1.0000 0.53101  0.63738  0.83960  Biso   1.000  C
  C440     1.0000 0.71213  0.46556  0.16470  Biso   1.000  C
  C441     1.0000 0.37290  0.30676  0.02883  Biso   1.000  C
  C442     1.0000 0.02644  0.62715  0.69736  Biso   1.000  C
  C443     1.0000 0.21448  0.47722  0.37266  Biso   1.000  C
  C444     1.0000 0.87768  0.29957  0.52356  Biso   1.000  C
  C445     1.0000 0.02423  0.83500  0.19624  Biso   1.000  C
  C446     1.0000 0.21164  0.00897  0.86914  Biso   1.000  C
  C447     1.0000 0.87012  0.15454  0.98956  Biso   1.000  C
  C448     1.0000 0.52532  0.82336  0.34800  Biso   1.000  C
  C449     1.0000 0.70534  0.97978  0.66661  Biso   1.000  C
  C450     1.0000 0.37209  0.16438  0.50607  Biso   1.000  C
  C451     1.0000 0.53782  0.32989  0.18858  Biso   1.000  C
  C452     1.0000 0.33957  0.49078  0.87249  Biso   1.000  C
  C453     1.0000 0.68803  0.65764  0.02582  Biso   1.000  C
  C454     1.0000 0.02119  0.33578  0.33654  Biso   1.000  C
  C455     1.0000 0.83161  0.48318  0.66023  Biso   1.000  C
  C456     1.0000 0.17671  0.66812  0.51163  Biso   1.000  C
  C457     1.0000 0.02007  0.63447  0.33308  Biso   1.000  C
  C458     1.0000 0.34048  0.00082  0.65944  Biso   1.000  C
  C459     1.0000 0.66900  0.29207  0.00818  Biso   1.000  C
  C460     1.0000 0.52430  0.62935  0.20403  Biso   1.000  C
  C461     1.0000 0.85025  0.96773  0.86591  Biso   1.000  C
  C462     1.0000 0.17535  0.30519  0.51791  Biso   1.000  C
  C463     1.0000 0.53433  0.12312  0.32330  Biso   1.000  C
  C464     1.0000 0.20158  0.48726  0.67156  Biso   1.000  C
  C465     1.0000 0.88823  0.79780  0.02231  Biso   1.000  C
  C466     1.0000 0.00377  0.13248  0.19711  Biso   1.000  C
  C467     1.0000 0.70429  0.48349  0.86913  Biso   1.000  C
  C468     1.0000 0.38397  0.79784  0.51118  Biso   1.000  C
  C469     1.0000 0.01909  0.32916  0.70036  Biso   1.000  C
  C470     1.0000 0.71183  0.98002  0.36965  Biso   1.000  C
  C471     1.0000 0.38953  0.67140  0.02988  Biso   1.000  C
  C472     1.0000 0.51644  0.34341  0.82400  Biso   1.000  C
  C473     1.0000 0.20646  0.97896  0.17017  Biso   1.000  C
  C474     1.0000 0.87794  0.66314  0.51798  Biso   1.000  C
  C475     1.0000 0.52971  0.84407  0.71188  Biso   1.000  C
  C476     1.0000 0.84997  0.47110  0.36553  Biso   1.000  C
  C477     1.0000 0.16743  0.16991  0.04299  Biso   1.000  C
  C478     1.0000 0.04663  0.82358  0.84093  Biso   1.000  C
  C479     1.0000 0.34973  0.48407  0.17278  Biso   1.000  C
  C480     1.0000 0.67021  0.16794  0.52412  Biso   1.000  C
  C481     1.0000 0.40169  0.77061  0.51885  Biso   1.000  C
  C482     1.0000 0.51284  0.36054  0.79814  Biso   1.000  C
  C483     1.0000 0.82217  0.46546  0.38012  Biso   1.000  C
  C484     1.0000 0.90256  0.77011  0.01816  Biso   1.000  C
  C485     1.0000 0.01103  0.34633  0.72726  Biso   1.000  C
  C486     1.0000 0.32312  0.49169  0.15466  Biso   1.000  C
  C487     1.0000 0.15856  0.27743  0.51285  Biso   1.000  C
  C488     1.0000 0.04992  0.83780  0.81308  Biso   1.000  C
  C489     1.0000 0.73797  0.98836  0.38612  Biso   1.000  C
  C490     1.0000 0.65376  0.26483  0.00271  Biso   1.000  C
  C491     1.0000 0.52515  0.86001  0.73856  Biso   1.000  C
  C492     1.0000 0.23358  0.97929  0.15535  Biso   1.000  C
  C493     1.0000 0.65372  0.19392  0.52277  Biso   1.000  C
  C494     1.0000 0.52308  0.61198  0.23041  Biso   1.000  C
  C495     1.0000 0.22725  0.49683  0.65773  Biso   1.000  C
  C496     1.0000 0.14905  0.19537  0.04262  Biso   1.000  C
  C497     1.0000 0.02661  0.61983  0.30647  Biso   1.000  C
  C498     1.0000 0.73246  0.48455  0.88488  Biso   1.000  C
  C499     1.0000 0.89598  0.68991  0.52066  Biso   1.000  C
  C500     1.0000 0.00518  0.11675  0.22415  Biso   1.000  C
  C501     1.0000 0.31354  0.99569  0.64312  Biso   1.000  C
  C502     1.0000 0.40738  0.69606  0.02861  Biso   1.000  C
  C503     1.0000 0.53535  0.10416  0.29665  Biso   1.000  C
  C504     1.0000 0.82309  0.96576  0.88147  Biso   1.000  C
  C505     1.0000 0.65594  0.48813  0.80884  Biso   1.000  C
  C506     1.0000 0.81670  0.61406  0.50734  Biso   1.000  C
  C507     1.0000 0.54350  0.78587  0.66318  Biso   1.000  C
  C508     1.0000 0.15075  0.47081  0.72797  Biso   1.000  C
  C509     1.0000 0.32727  0.62638  0.03999  Biso   1.000  C
  C510     1.0000 0.06051  0.76609  0.88925  Biso   1.000  C
  C511     1.0000 0.89871  0.96898  0.80762  Biso   1.000  C
  C512     1.0000 0.73354  0.12161  0.53364  Biso   1.000  C
  C513     1.0000 0.03798  0.27119  0.65229  Biso   1.000  C
  C514     1.0000 0.38877  0.01220  0.71972  Biso   1.000  C
  C515     1.0000 0.22960  0.12271  0.05340  Biso   1.000  C
  C516     1.0000 0.51762  0.28144  0.87207  Biso   1.000  C
  C517     1.0000 0.40100  0.46633  0.22991  Biso   1.000  C
  C518     1.0000 0.23500  0.35433  0.52643  Biso   1.000  C
  C519     1.0000 0.52453  0.18579  0.36808  Biso   1.000  C
  C520     1.0000 0.89982  0.48137  0.30672  Biso   1.000  C
  C521     1.0000 0.73035  0.34016  0.01979  Biso   1.000  C
  C522     1.0000 0.99679  0.19178  0.14709  Biso   1.000  C
  C523     1.0000 0.15889  0.98333  0.22865  Biso   1.000  C
  C524     1.0000 0.32182  0.84469  0.50518  Biso   1.000  C
  C525     1.0000 0.00503  0.69223  0.38135  Biso   1.000  C
  C526     1.0000 0.66479  0.95877  0.31134  Biso   1.000  C
  C527     1.0000 0.82799  0.84433  0.02883  Biso   1.000  C
  C528     1.0000 0.53347  0.68853  0.15720  Biso   1.000  C
  C529     1.0000 0.81085  0.10433  0.99507  Biso   1.000  C
  C530     1.0000 0.02154  0.77299  0.14831  Biso   1.000  C
  C531     1.0000 0.16369  0.99331  0.80801  Biso   1.000  C
  C532     1.0000 0.31542  0.11128  0.52189  Biso   1.000  C
  C533     1.0000 0.52865  0.76742  0.40155  Biso   1.000  C
  C534     1.0000 0.65919  0.98200  0.72817  Biso   1.000  C
  C535     1.0000 0.74560  0.60837  0.01328  Biso   1.000  C
  C536     1.0000 0.53381  0.27253  0.13907  Biso   1.000  C
  C537     1.0000 0.38622  0.49254  0.81162  Biso   1.000  C
  C538     1.0000 0.23545  0.61849  0.51068  Biso   1.000  C
  C539     1.0000 0.01760  0.27536  0.38410  Biso   1.000  C
  C540     1.0000 0.87876  0.48451  0.72161  Biso   1.000  C
  C541     1.0000 0.24087  0.85968  0.01521  Biso   1.000  C
  C542     1.0000 0.02740  0.18545  0.87826  Biso   1.000  C
  C543     1.0000 0.89357  0.97800  0.22004  Biso   1.000  C
  C544     1.0000 0.73986  0.85194  0.51730  Biso   1.000  C
  C545     1.0000 0.50590  0.19428  0.63458  Biso   1.000  C
  C546     1.0000 0.39616  0.96634  0.30185  Biso   1.000  C
  C547     1.0000 0.31831  0.35835  0.03691  Biso   1.000  C
  C548     1.0000 0.55215  0.69011  0.89147  Biso   1.000  C
  C549     1.0000 0.66612  0.47600  0.22675  Biso   1.000  C
  C550     1.0000 0.81946  0.34920  0.51650  Biso   1.000  C
  C551     1.0000 0.03518  0.68904  0.65077  Biso   1.000  C
  C552     1.0000 0.16618  0.48272  0.30899  Biso   1.000  C
  C553     1.0000 0.01835  0.10863  0.80653  Biso   1.000  C
  C554     1.0000 0.81620  0.99390  0.14809  Biso   1.000  C
  C555     1.0000 0.17273  0.77761  0.00832  Biso   1.000  C
  C556     1.0000 0.52952  0.12629  0.71257  Biso   1.000  C
  C557     1.0000 0.32506  0.96575  0.38280  Biso   1.000  C
  C558     1.0000 0.66491  0.77684  0.52966  Biso   1.000  C
  C559     1.0000 0.52458  0.62217  0.81226  Biso   1.000  C
  C560     1.0000 0.73958  0.46014  0.14875  Biso   1.000  C
  C561     1.0000 0.38768  0.27888  0.02668  Biso   1.000  C
  C562     1.0000 0.02366  0.61103  0.72435  Biso   1.000  C
  C563     1.0000 0.24025  0.47571  0.39116  Biso   1.000  C
  C564     1.0000 0.89378  0.27308  0.52530  Biso   1.000  C
  C565     1.0000 0.02188  0.85270  0.22148  Biso   1.000  C
  C566     1.0000 0.23825  0.01400  0.88674  Biso   1.000  C
  C567     1.0000 0.88706  0.18129  0.98412  Biso   1.000  C
  C568     1.0000 0.52040  0.83569  0.32044  Biso   1.000  C
  C569     1.0000 0.73343  0.97960  0.65101  Biso   1.000  C
  C570     1.0000 0.38717  0.19190  0.50005  Biso   1.000  C
  C571     1.0000 0.54315  0.34462  0.21757  Biso   1.000  C
  C572     1.0000 0.31292  0.49167  0.89035  Biso   1.000  C
  C573     1.0000 0.67339  0.68385  0.03636  Biso   1.000  C
  C574     1.0000 0.02329  0.35237  0.30994  Biso   1.000  C
  C575     1.0000 0.80336  0.48465  0.64472  Biso   1.000  C
  C576     1.0000 0.15934  0.69473  0.51041  Biso   1.000  C
  C577     1.0000 0.32523  0.49372  0.12287  Biso   1.000  C
  C578     1.0000 0.12697  0.27531  0.50848  Biso   1.000  C
  C579     1.0000 0.53732  0.07323  0.30032  Biso   1.000  C
  C580     1.0000 0.82184  0.46545  0.41145  Biso   1.000  C
  C581     1.0000 0.62235  0.26546  0.00248  Biso   1.000  C
  C582     1.0000 0.01470  0.08665  0.22260  Biso   1.000  C
  C583     1.0000 0.23289  0.98083  0.12473  Biso   1.000  C
  C584     1.0000 0.43232  0.77371  0.52110  Biso   1.000  C
  C585     1.0000 0.03194  0.58792  0.30660  Biso   1.000  C
  C586     1.0000 0.73601  0.99649  0.41641  Biso   1.000  C
  C587     1.0000 0.93415  0.76918  0.02005  Biso   1.000  C
  C588     1.0000 0.52101  0.58158  0.23040  Biso   1.000  C
  C589     1.0000 0.73236  0.48708  0.91695  Biso   1.000  C
  C590     1.0000 0.92757  0.68718  0.52101  Biso   1.000  C
  C591     1.0000 0.51799  0.89156  0.73749  Biso   1.000  C
  C592     1.0000 0.22723  0.49940  0.62660  Biso   1.000  C
  C593     1.0000 0.43847  0.69297  0.02476  Biso   1.000  C
  C594     1.0000 0.04713  0.86957  0.81273  Biso   1.000  C
  C595     1.0000 0.82312  0.96715  0.91345  Biso   1.000  C
  C596     1.0000 0.62240  0.19240  0.52423  Biso   1.000  C
  C597     1.0000 0.00783  0.37869  0.72627  Biso   1.000  C
  C598     1.0000 0.31378  0.98970  0.61066  Biso   1.000  C
  C599     1.0000 0.11881  0.19192  0.03427  Biso   1.000  C
  C600     1.0000 0.51767  0.39105  0.79936  Biso   1.000  C
  C601     1.0000 0.23991  0.00969  0.91908  Biso   1.000  C
  C602     1.0000 0.91846  0.18320  0.98857  Biso   1.000  C
  C603     1.0000 0.02559  0.88335  0.21993  Biso   1.000  C
  C604     1.0000 0.73127  0.98257  0.61905  Biso   1.000  C
  C605     1.0000 0.42004  0.19205  0.49618  Biso   1.000  C
  C606     1.0000 0.52179  0.86727  0.31623  Biso   1.000  C
  C607     1.0000 0.31372  0.49460  0.92092  Biso   1.000  C
  C608     1.0000 0.64299  0.68662  0.03776  Biso   1.000  C
  C609     1.0000 0.54349  0.37581  0.21794  Biso   1.000  C
  C610     1.0000 0.80719  0.48951  0.61236  Biso   1.000  C
  C611     1.0000 0.12751  0.69354  0.51207  Biso   1.000  C
  C612     1.0000 0.02820  0.38347  0.30828  Biso   1.000  C
  C613     1.0000 0.81391  0.99448  0.11584  Biso   1.000  C
  C614     1.0000 0.14087  0.77500  0.00887  Biso   1.000  C
  C615     1.0000 0.02093  0.07723  0.80735  Biso   1.000  C
  C616     1.0000 0.32632  0.97184  0.41265  Biso   1.000  C
  C617     1.0000 0.63340  0.77962  0.53335  Biso   1.000  C
  C618     1.0000 0.53441  0.09467  0.71417  Biso   1.000  C
  C619     1.0000 0.73617  0.45889  0.11692  Biso   1.000  C
  C620     1.0000 0.41828  0.27792  0.02570  Biso   1.000  C
  C621     1.0000 0.52067  0.59163  0.81010  Biso   1.000  C
  C622     1.0000 0.23619  0.47337  0.42202  Biso   1.000  C
  C623     1.0000 0.92411  0.27421  0.52912  Biso   1.000  C
  C624     1.0000 0.02155  0.57890  0.72427  Biso   1.000  C
  C625     1.0000 0.02962  0.18635  0.91000  Biso   1.000  C
  C626     1.0000 0.92511  0.97321  0.21985  Biso   1.000  C
  C627     1.0000 0.23818  0.89167  0.01408  Biso   1.000  C
  C628     1.0000 0.50519  0.19196  0.60330  Biso   1.000  C
  C629     1.0000 0.42729  0.96898  0.30065  Biso   1.000  C
  C630     1.0000 0.74049  0.88393  0.51859  Biso   1.000  C
  C631     1.0000 0.55137  0.68986  0.92219  Biso   1.000  C
  C632     1.0000 0.63583  0.48008  0.22485  Biso   1.000  C
  C633     1.0000 0.31791  0.38947  0.03219  Biso   1.000  C
  C634     1.0000 0.03421  0.68909  0.61935  Biso   1.000  C
  C635     1.0000 0.13457  0.48648  0.30944  Biso   1.000  C
  C636     1.0000 0.81999  0.38023  0.51489  Biso   1.000  C
  C637     1.0000 0.02335  0.77219  0.11799  Biso   1.000  C
  C638     1.0000 0.13404  0.98478  0.80696  Biso   1.000  C
  C639     1.0000 0.81293  0.07306  0.00166  Biso   1.000  C
  C640     1.0000 0.52963  0.77156  0.43197  Biso   1.000  C
  C641     1.0000 0.62707  0.98284  0.72797  Biso   1.000  C
  C642     1.0000 0.31824  0.07994  0.52307  Biso   1.000  C
  C643     1.0000 0.53456  0.27437  0.10759  Biso   1.000  C
  C644     1.0000 0.41725  0.49065  0.81005  Biso   1.000  C
  C645     1.0000 0.74222  0.57641  0.00972  Biso   1.000  C
  C646     1.0000 0.01609  0.27702  0.41589  Biso   1.000  C
  C647     1.0000 0.90998  0.48324  0.72331  Biso   1.000  C
  C648     1.0000 0.23457  0.58699  0.51100  Biso   1.000  C
  C649     1.0000 0.00677  0.69272  0.41313  Biso   1.000  C
  C650     1.0000 0.42154  0.00781  0.72077  Biso   1.000  C
  C651     1.0000 0.73200  0.37148  0.02224  Biso   1.000  C
  C652     1.0000 0.53711  0.68776  0.12603  Biso   1.000  C
  C653     1.0000 0.92981  0.97079  0.80768  Biso   1.000  C
  C654     1.0000 0.23464  0.38523  0.53307  Biso   1.000  C
  C655     1.0000 0.52406  0.18608  0.40012  Biso   1.000  C
  C656     1.0000 0.11933  0.46877  0.72486  Biso   1.000  C
  C657     1.0000 0.82773  0.87660  0.03250  Biso   1.000  C
  C658     1.0000 0.99904  0.19167  0.11575  Biso   1.000  C
  C659     1.0000 0.62361  0.48601  0.80725  Biso   1.000  C
  C660     1.0000 0.32337  0.87586  0.50417  Biso   1.000  C
  C661     1.0000 0.04228  0.27275  0.62232  Biso   1.000  C
  C662     1.0000 0.63347  0.95558  0.31215  Biso   1.000  C
  C663     1.0000 0.32670  0.59472  0.03945  Biso   1.000  C
  C664     1.0000 0.51517  0.28088  0.90283  Biso   1.000  C
  C665     1.0000 0.12743  0.98711  0.22925  Biso   1.000  C
  C666     1.0000 0.81944  0.58218  0.50984  Biso   1.000  C
  C667     1.0000 0.53909  0.78368  0.63273  Biso   1.000  C
  C668     1.0000 0.93129  0.48780  0.30789  Biso   1.000  C
  C669     1.0000 0.22959  0.09086  0.05038  Biso   1.000  C
  C670     1.0000 0.05770  0.76663  0.92081  Biso   1.000  C
  C671     1.0000 0.43234  0.46303  0.22595  Biso   1.000  C
  C672     1.0000 0.73320  0.08980  0.53596  Biso   1.000  C
  C673     1.0000 0.22528  0.00514  0.82299  Biso   1.000  C
  C674     1.0000 0.82417  0.16820  0.98769  Biso   1.000  C
  C675     1.0000 0.01724  0.79065  0.21313  Biso   1.000  C
  C676     1.0000 0.71974  0.97571  0.71390  Biso   1.000  C
  C677     1.0000 0.32585  0.17672  0.51625  Biso   1.000  C
  C678     1.0000 0.52869  0.77518  0.33773  Biso   1.000  C
  C679     1.0000 0.32490  0.49190  0.82526  Biso   1.000  C
  C680     1.0000 0.73463  0.67255  0.02370  Biso   1.000  C
  C681     1.0000 0.53722  0.28275  0.20160  Biso   1.000  C
  C682     1.0000 0.81807  0.48500  0.70684  Biso   1.000  C
  C683     1.0000 0.22401  0.68210  0.51258  Biso   1.000  C
  C684     1.0000 0.01619  0.28678  0.32124  Biso   1.000  C
  C685     1.0000 0.82989  0.98490  0.21203  Biso   1.000  C
  C686     1.0000 0.23378  0.79660  0.01610  Biso   1.000  C
  C687     1.0000 0.01481  0.16954  0.81592  Biso   1.000  C
  C688     1.0000 0.33379  0.96583  0.31933  Biso   1.000  C
  C689     1.0000 0.72634  0.78767  0.51947  Biso   1.000  C
  C690     1.0000 0.51152  0.18632  0.69719  Biso   1.000  C
  C691     1.0000 0.72692  0.46867  0.21012  Biso   1.000  C
  C692     1.0000 0.32543  0.29509  0.03661  Biso   1.000  C
  C693     1.0000 0.54110  0.68532  0.82979  Biso   1.000  C
  C694     1.0000 0.23154  0.47978  0.32706  Biso   1.000  C
  C695     1.0000 0.82987  0.28543  0.52386  Biso   1.000  C
  C696     1.0000 0.03214  0.67370  0.71373  Biso   1.000  C
  C697     1.0000 0.72649  0.97274  0.32380  Biso   1.000  C
  C698     1.0000 0.34254  0.68910  0.03414  Biso   1.000  C
  C699     1.0000 0.02161  0.28189  0.71364  Biso   1.000  C
  C700     1.0000 0.21834  0.97904  0.21793  Biso   1.000  C
  C701     1.0000 0.83123  0.67756  0.51531  Biso   1.000  C
  C702     1.0000 0.51448  0.29828  0.80763  Biso   1.000  C
  C703     1.0000 0.83636  0.47107  0.31921  Biso   1.000  C
  C704     1.0000 0.21278  0.18521  0.04834  Biso   1.000  C
  C705     1.0000 0.54072  0.79980  0.72735  Biso   1.000  C
  C706     1.0000 0.33646  0.47860  0.21908  Biso   1.000  C
  C707     1.0000 0.71756  0.18415  0.52699  Biso   1.000  C
  C708     1.0000 0.04896  0.77799  0.82553  Biso   1.000  C
  C709     1.0000 0.32672  0.00987  0.70691  Biso   1.000  C
  C710     1.0000 0.71430  0.27596  0.00804  Biso   1.000  C
  C711     1.0000 0.01197  0.68102  0.32024  Biso   1.000  C
  C712     1.0000 0.83495  0.96775  0.81959  Biso   1.000  C
  C713     1.0000 0.22359  0.29295  0.51957  Biso   1.000  C
  C714     1.0000 0.53078  0.67359  0.22131  Biso   1.000  C
  C715     1.0000 0.21394  0.48651  0.71784  Biso   1.000  C
  C716     1.0000 0.84234  0.78280  0.02353  Biso   1.000  C
  C717     1.0000 0.52887  0.16742  0.30450  Biso   1.000  C
  C718     1.0000 0.71540  0.48339  0.82039  Biso   1.000  C
  C719     1.0000 0.33584  0.78335  0.51280  Biso   1.000  C
  C720     1.0000 0.99795  0.17768  0.21177  Biso   1.000  C
  C721     1.0000 0.54464  0.78242  0.31042  Biso   1.000  C
  C722     1.0000 0.32822  0.50944  0.79864  Biso   1.000  C
  C723     1.0000 0.80220  0.29098  0.53734  Biso   1.000  C
  C724     1.0000 0.99582  0.76663  0.21156  Biso   1.000  C
  C725     1.0000 0.79292  0.50447  0.70798  Biso   1.000  C
  C726     1.0000 0.29636  0.29808  0.02286  Biso   1.000  C
  C727     1.0000 0.99705  0.26197  0.32446  Biso   1.000  C
  C728     1.0000 0.24585  0.02968  0.82288  Biso   1.000  C
  C729     1.0000 0.75377  0.79190  0.53496  Biso   1.000  C
  C730     1.0000 0.52162  0.28545  0.22900  Biso   1.000  C
  C731     1.0000 0.74360  0.95527  0.71162  Biso   1.000  C
  C732     1.0000 0.26267  0.80101  0.00311  Biso   1.000  C
  C733     1.0000 0.50201  0.17912  0.72655  Biso   1.000  C
  C734     1.0000 0.72431  0.45438  0.23766  Biso   1.000  C
  C735     1.0000 0.22156  0.70905  0.49616  Biso   1.000  C
  C736     1.0000 0.99743  0.19583  0.81901  Biso   1.000  C
  C737     1.0000 0.25687  0.46288  0.33044  Biso   1.000  C
  C738     1.0000 0.76394  0.66912  0.03573  Biso   1.000  C
  C739     1.0000 0.04894  0.66761  0.74068  Biso   1.000  C
  C740     1.0000 0.80238  0.96950  0.20843  Biso   1.000  C
  C741     1.0000 0.29466  0.17175  0.50904  Biso   1.000  C
  C742     1.0000 0.55514  0.68321  0.80209  Biso   1.000  C
  C743     1.0000 0.33307  0.95041  0.29218  Biso   1.000  C
  C744     1.0000 0.82957  0.19797  0.00079  Biso   1.000  C
  C745     1.0000 0.02408  0.70956  0.32619  Biso   1.000  C
  C746     1.0000 0.29782  0.02409  0.70233  Biso   1.000  C
  C747     1.0000 0.74204  0.27490  0.02531  Biso   1.000  C
  C748     1.0000 0.55366  0.69574  0.22030  Biso   1.000  C
  C749     1.0000 0.83635  0.95125  0.79220  Biso   1.000  C
  C750     1.0000 0.24964  0.29302  0.53882  Biso   1.000  C
  C751     1.0000 0.54780  0.16557  0.27978  Biso   1.000  C
  C752     1.0000 0.24333  0.47319  0.71409  Biso   1.000  C
  C753     1.0000 0.81592  0.78520  0.00618  Biso   1.000  C
  C754     1.0000 0.01729  0.17488  0.23778  Biso   1.000  C
  C755     1.0000 0.71040  0.46297  0.79694  Biso   1.000  C
  C756     1.0000 0.31098  0.78692  0.53012  Biso   1.000  C
  C757     1.0000 0.01106  0.25295  0.70523  Biso   1.000  C
  C758     1.0000 0.71841  0.98418  0.29569  Biso   1.000  C
  C759     1.0000 0.31690  0.68887  0.05110  Biso   1.000  C
  C760     1.0000 0.53223  0.30056  0.78165  Biso   1.000  C
  C761     1.0000 0.24430  0.99669  0.21622  Biso   1.000  C
  C762     1.0000 0.83805  0.70716  0.50202  Biso   1.000  C
  C763     1.0000 0.51937  0.79639  0.75188  Biso   1.000  C
  C764     1.0000 0.80756  0.48365  0.32258  Biso   1.000  C
  C765     1.0000 0.23979  0.18630  0.06537  Biso   1.000  C
  C766     1.0000 0.02652  0.78126  0.80164  Biso   1.000  C
  C767     1.0000 0.34345  0.49115  0.24751  Biso   1.000  C
  C768     1.0000 0.71715  0.20711  0.50462  Biso   1.000  C
  C769     1.0000 0.53233  0.71452  0.83854  Biso   1.000  C
  C770     1.0000 0.82000  0.46480  0.73119  Biso   1.000  C
  C771     1.0000 0.72163  0.76081  0.50491  Biso   1.000  C
  C772     1.0000 0.02096  0.70246  0.71028  Biso   1.000  C
  C773     1.0000 0.29725  0.47703  0.83014  Biso   1.000  C
  C774     1.0000 0.23042  0.77143  0.03252  Biso   1.000  C
  C775     1.0000 0.03244  0.16698  0.78968  Biso   1.000  C
  C776     1.0000 0.72095  0.99287  0.73960  Biso   1.000  C
  C777     1.0000 0.83293  0.25674  0.51054  Biso   1.000  C
  C778     1.0000 0.52057  0.21565  0.69027  Biso   1.000  C
  C779     1.0000 0.22660  0.98475  0.79785  Biso   1.000  C
  C780     1.0000 0.32939  0.27048  0.05418  Biso   1.000  C
  C781     1.0000 0.55239  0.25431  0.19712  Biso   1.000  C
  C782     1.0000 0.22921  0.49858  0.30067  Biso   1.000  C
  C783     1.0000 0.33140  0.20500  0.52962  Biso   1.000  C
  C784     1.0000 0.03442  0.28756  0.29455  Biso   1.000  C
  C785     1.0000 0.75412  0.48328  0.20647  Biso   1.000  C
  C786     1.0000 0.79413  0.16500  0.97556  Biso   1.000  C
  C787     1.0000 0.03526  0.79130  0.23994  Biso   1.000  C
  C788     1.0000 0.30824  0.98460  0.32699  Biso   1.000  C
  C789     1.0000 0.24982  0.67697  0.53015  Biso   1.000  C
  C790     1.0000 0.51652  0.74443  0.33930  Biso   1.000  C
  C791     1.0000 0.83412  0.00011  0.24007  Biso   1.000  C
  C792     1.0000 0.72840  0.70085  0.01255  Biso   1.000  C
  C793     1.0000 0.50834  0.19290  0.30564  Biso   1.000  C
  C794     1.0000 0.30857  0.46529  0.21481  Biso   1.000  C
  C795     1.0000 0.21970  0.26816  0.49901  Biso   1.000  C
  C796     1.0000 0.98479  0.20635  0.20972  Biso   1.000  C
  C797     1.0000 0.84299  0.45624  0.29312  Biso   1.000  C
  C798     1.0000 0.71227  0.25521  0.98398  Biso   1.000  C
  C799     1.0000 0.99935  0.67438  0.29167  Biso   1.000  C
  C800     1.0000 0.21633  0.95673  0.24075  Biso   1.000  C
  C801     1.0000 0.33743  0.75702  0.49518  Biso   1.000  C
  C802     1.0000 0.50941  0.67416  0.24356  Biso   1.000  C
  C803     1.0000 0.75768  0.96843  0.32831  Biso   1.000  C
  C804     1.0000 0.84399  0.75839  0.04332  Biso   1.000  C
  C805     1.0000 0.56527  0.77929  0.72864  Biso   1.000  C
  C806     1.0000 0.73916  0.50390  0.81975  Biso   1.000  C
  C807     1.0000 0.80206  0.67468  0.52811  Biso   1.000  C
  C808     1.0000 0.07031  0.75449  0.82436  Biso   1.000  C
  C809     1.0000 0.20657  0.50132  0.74634  Biso   1.000  C
  C810     1.0000 0.34763  0.71331  0.01479  Biso   1.000  C
  C811     1.0000 0.02838  0.28513  0.74347  Biso   1.000  C
  C812     1.0000 0.80869  0.98466  0.82413  Biso   1.000  C
  C813     1.0000 0.74101  0.18159  0.54802  Biso   1.000  C
  C814     1.0000 0.49874  0.27127  0.80948  Biso   1.000  C
  C815     1.0000 0.33324  0.99656  0.73553  Biso   1.000  C
  C816     1.0000 0.21236  0.20889  0.02807  Biso   1.000  C
  C817     1.0000 0.99781  0.21773  0.79878  Biso   1.000  C
  C818     1.0000 0.78108  0.96941  0.22913  Biso   1.000  C
  C819     1.0000 0.28490  0.78166  0.01012  Biso   1.000  C
  C820     1.0000 0.50392  0.20060  0.74831  Biso   1.000  C
  C821     1.0000 0.30947  0.95281  0.27415  Biso   1.000  C
  C822     1.0000 0.77530  0.77276  0.53531  Biso   1.000  C
  C823     1.0000 0.55724  0.70625  0.78370  Biso   1.000  C
  C824     1.0000 0.74599  0.45394  0.26042  Biso   1.000  C
  C825     1.0000 0.27528  0.27614  0.02375  Biso   1.000  C
  C826     1.0000 0.05499  0.68936  0.76073  Biso   1.000  C
  C827     1.0000 0.27780  0.46381  0.30928  Biso   1.000  C
  C828     1.0000 0.78047  0.27044  0.53963  Biso   1.000  C
  C829     1.0000 0.99223  0.74601  0.23330  Biso   1.000  C
  C830     1.0000 0.26594  0.03384  0.80113  Biso   1.000  C
  C831     1.0000 0.80904  0.22030  0.00155  Biso   1.000  C
  C832     1.0000 0.54612  0.76243  0.28909  Biso   1.000  C
  C833     1.0000 0.76633  0.95367  0.73142  Biso   1.000  C
  C834     1.0000 0.27416  0.19297  0.51435  Biso   1.000  C
  C835     1.0000 0.51679  0.26151  0.24583  Biso   1.000  C
  C836     1.0000 0.30441  0.50999  0.77893  Biso   1.000  C
  C837     1.0000 0.78355  0.69200  0.03552  Biso   1.000  C
  C838     1.0000 0.99311  0.24189  0.30233  Biso   1.000  C
  C839     1.0000 0.77397  0.50365  0.73150  Biso   1.000  C
  C840     1.0000 0.24514  0.72910  0.49659  Biso   1.000  C
  C841     1.0000 0.24700  0.99146  0.77559  Biso   1.000  C
  C842     1.0000 0.77365  0.18660  0.97948  Biso   1.000  C
  C843     1.0000 0.03338  0.76868  0.25981  Biso   1.000  C
  C844     1.0000 0.74243  0.99140  0.76030  Biso   1.000  C
  C845     1.0000 0.30995  0.22636  0.53195  Biso   1.000  C
  C846     1.0000 0.51997  0.72536  0.31661  Biso   1.000  C
  C847     1.0000 0.27494  0.47753  0.80952  Biso   1.000  C
  C848     1.0000 0.74720  0.72397  0.01451  Biso   1.000  C
  C849     1.0000 0.54595  0.23051  0.21535  Biso   1.000  C
  C850     1.0000 0.79992  0.46299  0.75291  Biso   1.000  C
  C851     1.0000 0.27201  0.69681  0.53035  Biso   1.000  C
  C852     1.0000 0.03009  0.26638  0.27424  Biso   1.000  C
  C853     1.0000 0.81177  0.00015  0.26068  Biso   1.000  C
  C854     1.0000 0.25214  0.75204  0.03882  Biso   1.000  C
  C855     1.0000 0.03035  0.18842  0.77056  Biso   1.000  C
  C856     1.0000 0.28591  0.98612  0.30640  Biso   1.000  C
  C857     1.0000 0.74314  0.74096  0.50178  Biso   1.000  C
  C858     1.0000 0.51885  0.23514  0.71225  Biso   1.000  C
  C859     1.0000 0.77586  0.48155  0.22801  Biso   1.000  C
  C860     1.0000 0.30861  0.24870  0.05427  Biso   1.000  C
  C861     1.0000 0.53595  0.73758  0.81925  Biso   1.000  C
  C862     1.0000 0.24995  0.49711  0.27917  Biso   1.000  C
  C863     1.0000 0.80951  0.23753  0.51247  Biso   1.000  C
  C864     1.0000 0.02533  0.72267  0.73225  Biso   1.000  C
  C865     1.0000 0.73147  0.46313  0.77408  Biso   1.000  C
  C866     1.0000 0.81885  0.72946  0.50477  Biso   1.000  C
  C867     1.0000 0.52407  0.77527  0.77268  Biso   1.000  C
  C868     1.0000 0.26344  0.47808  0.73582  Biso   1.000  C
  C869     1.0000 0.29781  0.71172  0.04850  Biso   1.000  C
  C870     1.0000 0.02512  0.76125  0.77936  Biso   1.000  C
  C871     1.0000 0.81493  0.95261  0.77070  Biso   1.000  C
  C872     1.0000 0.73918  0.22799  0.50633  Biso   1.000  C
  C873     1.0000 0.00908  0.23072  0.72532  Biso   1.000  C
  C874     1.0000 0.27962  0.02744  0.72622  Biso   1.000  C
  C875     1.0000 0.26016  0.20830  0.06341  Biso   1.000  C
  C876     1.0000 0.53067  0.28052  0.75837  Biso   1.000  C
  C877     1.0000 0.32348  0.49067  0.27032  Biso   1.000  C
  C878     1.0000 0.26796  0.26907  0.53754  Biso   1.000  C
  C879     1.0000 0.54762  0.18679  0.25923  Biso   1.000  C
  C880     1.0000 0.78690  0.48105  0.30126  Biso   1.000  C
  C881     1.0000 0.76146  0.25299  0.02076  Biso   1.000  C
  C882     1.0000 0.01926  0.19649  0.25938  Biso   1.000  C
  C883     1.0000 0.26510  0.99397  0.23851  Biso   1.000  C
  C884     1.0000 0.29020  0.76566  0.52997  Biso   1.000  C
  C885     1.0000 0.02153  0.73213  0.30628  Biso   1.000  C
  C886     1.0000 0.73661  0.98932  0.27356  Biso   1.000  C
  C887     1.0000 0.79439  0.76536  0.00713  Biso   1.000  C
  C888     1.0000 0.55511  0.71480  0.24354  Biso   1.000  C
  C889     1.0000 0.77557  0.97232  0.30462  Biso   1.000  C
  C890     1.0000 0.32562  0.73378  0.01009  Biso   1.000  C
  C891     1.0000 0.02596  0.26267  0.76185  Biso   1.000  C
  C892     1.0000 0.23973  0.95404  0.26060  Biso   1.000  C
  C893     1.0000 0.78295  0.69781  0.52772  Biso   1.000  C
  C894     1.0000 0.49763  0.25049  0.78590  Biso   1.000  C
  C895     1.0000 0.82192  0.45375  0.27095  Biso   1.000  C
  C896     1.0000 0.23284  0.23025  0.02569  Biso   1.000  C
  C897     1.0000 0.56720  0.75879  0.75074  Biso   1.000  C
  C898     1.0000 0.28882  0.46901  0.23596  Biso   1.000  C
  C899     1.0000 0.76281  0.20191  0.54792  Biso   1.000  C
  C900     1.0000 0.06919  0.73558  0.80051  Biso   1.000  C
  C901     1.0000 0.31382  0.00074  0.75904  Biso   1.000  C
  C902     1.0000 0.73346  0.23576  0.97799  Biso   1.000  C
  C903     1.0000 0.99732  0.69781  0.27306  Biso   1.000  C
  C904     1.0000 0.78747  0.98383  0.80176  Biso   1.000  C
  C905     1.0000 0.23759  0.24516  0.50280  Biso   1.000  C
  C906     1.0000 0.51260  0.69387  0.26564  Biso   1.000  C
  C907     1.0000 0.22755  0.50120  0.76875  Biso   1.000  C
  C908     1.0000 0.82209  0.73812  0.04324  Biso   1.000  C
  C909     1.0000 0.50846  0.21383  0.28369  Biso   1.000  C
  C910     1.0000 0.75930  0.50204  0.79892  Biso   1.000  C
  C911     1.0000 0.31565  0.73609  0.49473  Biso   1.000  C
  C912     1.0000 0.99074  0.22860  0.22900  Biso   1.000  C
  C913     1.0000 0.77787  0.48300  0.75246  Biso   1.000  C
  C914     1.0000 0.76948  0.74688  0.51817  Biso   1.000  C
  C915     1.0000 0.54824  0.73235  0.79287  Biso   1.000  C
  C916     1.0000 0.27809  0.49506  0.78429  Biso   1.000  C
  C917     1.0000 0.27979  0.75797  0.02717  Biso   1.000  C
  C918     1.0000 0.04092  0.71574  0.75826  Biso   1.000  C
  C919     1.0000 0.76500  0.97107  0.75663  Biso   1.000  C
  C920     1.0000 0.78447  0.24412  0.52838  Biso   1.000  C
  C921     1.0000 0.01397  0.21317  0.77415  Biso   1.000  C
  C922     1.0000 0.26639  0.01473  0.77670  Biso   1.000  C
  C923     1.0000 0.28141  0.25142  0.04094  Biso   1.000  C
  C924     1.0000 0.51069  0.22913  0.74037  Biso   1.000  C
  C925     1.0000 0.27380  0.47864  0.28335  Biso   1.000  C
  C926     1.0000 0.28187  0.22127  0.52184  Biso   1.000  C
  C927     1.0000 0.52908  0.23449  0.23968  Biso   1.000  C
  C928     1.0000 0.77241  0.46604  0.25324  Biso   1.000  C
  C929     1.0000 0.78046  0.21315  0.99234  Biso   1.000  C
  C930     1.0000 0.00949  0.24474  0.27652  Biso   1.000  C
  C931     1.0000 0.28648  0.97014  0.28098  Biso   1.000  C
  C932     1.0000 0.26866  0.72210  0.51495  Biso   1.000  C
  C933     1.0000 0.01159  0.74695  0.25726  Biso   1.000  C
  C934     1.0000 0.78631  0.98462  0.25441  Biso   1.000  C
  C935     1.0000 0.77455  0.71863  0.02591  Biso   1.000  C
  C936     1.0000 0.53294  0.73526  0.29013  Biso   1.000  C
  C937     1.0000 0.75734  0.23351  0.99695  Biso   1.000  C
  C938     1.0000 0.00982  0.72478  0.27975  Biso   1.000  C
  C939     1.0000 0.28767  0.01637  0.75371  Biso   1.000  C
  C940     1.0000 0.26112  0.24414  0.52293  Biso   1.000  C
  C941     1.0000 0.53412  0.71475  0.26488  Biso   1.000  C
  C942     1.0000 0.78950  0.96928  0.77604  Biso   1.000  C
  C943     1.0000 0.79654  0.74129  0.02482  Biso   1.000  C
  C944     1.0000 0.52784  0.20987  0.26198  Biso   1.000  C
  C945     1.0000 0.25576  0.49334  0.76130  Biso   1.000  C
  C946     1.0000 0.29339  0.74072  0.51250  Biso   1.000  C
  C947     1.0000 0.00572  0.22271  0.25526  Biso   1.000  C
  C948     1.0000 0.75492  0.48209  0.77472  Biso   1.000  C
  C949     1.0000 0.30245  0.73490  0.02908  Biso   1.000  C
  C950     1.0000 0.01531  0.23624  0.75300  Biso   1.000  C
  C951     1.0000 0.76562  0.98403  0.27831  Biso   1.000  C
  C952     1.0000 0.79103  0.72401  0.51595  Biso   1.000  C
  C953     1.0000 0.51434  0.25422  0.76199  Biso   1.000  C
  C954     1.0000 0.26367  0.97245  0.25824  Biso   1.000  C
  C955     1.0000 0.25756  0.22933  0.04244  Biso   1.000  C
  C956     1.0000 0.54630  0.75644  0.77142  Biso   1.000  C
  C957     1.0000 0.79457  0.46697  0.27573  Biso   1.000  C
  C958     1.0000 0.76057  0.22454  0.52792  Biso   1.000  C
  C959     1.0000 0.04585  0.73902  0.78077  Biso   1.000  C
  C960     1.0000 0.29620  0.47929  0.26316  Biso   1.000  C
  Cu1      1.0000 0.01646  0.47900  0.66748  Biso   1.000  Cu
  Cu2      1.0000 0.67877  0.98714  0.51646  Biso   1.000  Cu
  Cu3      1.0000 0.53555  0.63169  0.02281  Biso   1.000  Cu
  Cu4      1.0000 0.52403  0.49016  0.86215  Biso   1.000  Cu
  Cu5      1.0000 0.18340  0.99085  0.01730  Biso   1.000  Cu
  Cu6      1.0000 0.02715  0.63676  0.51502  Biso   1.000  Cu
  Cu7      1.0000 0.52345  0.98730  0.67036  Biso   1.000  Cu
  Cu8      1.0000 0.87178  0.48140  0.51644  Biso   1.000  Cu
  Cu9      1.0000 0.01767  0.13219  0.01537  Biso   1.000  Cu
  Cu10     1.0000 0.03254  0.97584  0.86246  Biso   1.000  Cu
  Cu11     1.0000 0.37508  0.49162  0.02133  Biso   1.000  Cu
  Cu12     1.0000 0.52222  0.13546  0.50549  Biso   1.000  Cu
  Cu13     1.0000 0.03401  0.48850  0.36344  Biso   1.000  Cu
  Cu14     1.0000 0.37592  0.98089  0.51327  Biso   1.000  Cu
  Cu15     1.0000 0.52202  0.33069  0.00800  Biso   1.000  Cu
  Cu16     1.0000 0.53118  0.48042  0.17196  Biso   1.000  Cu
  Cu17     1.0000 0.87385  0.97957  0.01587  Biso   1.000  Cu
  Cu18     1.0000 0.02551  0.32865  0.52046  Biso   1.000  Cu
  Cu19     1.0000 0.53105  0.97572  0.35909  Biso   1.000  Cu
  Cu20     1.0000 0.17645  0.48582  0.52012  Biso   1.000  Cu
  Cu21     1.0000 0.03576  0.82248  0.01799  Biso   1.000  Cu
  Cu22     1.0000 0.02406  0.98442  0.16583  Biso   1.000  Cu
  Cu23     1.0000 0.67955  0.47635  0.01529  Biso   1.000  Cu
  Cu24     1.0000 0.53118  0.83346  0.53063  Biso   1.000  Cu
  Cu25     1.0000 0.23714  0.99236  0.02153  Biso   1.000  Cu
  Cu26     1.0000 0.01847  0.18690  0.01471  Biso   1.000  Cu
  Cu27     1.0000 0.02482  0.98410  0.22034  Biso   1.000  Cu
  Cu28     1.0000 0.73279  0.98786  0.52012  Biso   1.000  Cu
  Cu29     1.0000 0.52247  0.18912  0.50378  Biso   1.000  Cu
  Cu30     1.0000 0.53084  0.96900  0.30557  Biso   1.000  Cu
  Cu31     1.0000 0.32071  0.49332  0.02530  Biso   1.000  Cu
  Cu32     1.0000 0.53978  0.68820  0.02414  Biso   1.000  Cu
  Cu33     1.0000 0.53033  0.47744  0.22586  Biso   1.000  Cu
  Cu34     1.0000 0.81778  0.48082  0.50824  Biso   1.000  Cu
  Cu35     1.0000 0.02519  0.68980  0.51747  Biso   1.000  Cu
  Cu36     1.0000 0.03428  0.48631  0.30959  Biso   1.000  Cu
  Cu37     1.0000 0.82005  0.97315  0.01461  Biso   1.000  Cu
  Cu38     1.0000 0.03760  0.76980  0.01804  Biso   1.000  Cu
  Cu39     1.0000 0.03052  0.97423  0.80789  Biso   1.000  Cu
  Cu40     1.0000 0.32079  0.97947  0.50921  Biso   1.000  Cu
  Cu41     1.0000 0.53261  0.77868  0.53376  Biso   1.000  Cu
  Cu42     1.0000 0.52186  0.99533  0.72404  Biso   1.000  Cu
  Cu43     1.0000 0.73488  0.47526  0.01723  Biso   1.000  Cu
  Cu44     1.0000 0.51878  0.27613  0.00633  Biso   1.000  Cu
  Cu45     1.0000 0.52052  0.49075  0.80714  Biso   1.000  Cu
  Cu46     1.0000 0.23027  0.48564  0.52092  Biso   1.000  Cu
  Cu47     1.0000 0.02583  0.27497  0.51919  Biso   1.000  Cu
  Cu48     1.0000 0.01688  0.47911  0.72195  Biso   1.000  Cu
  H1       1.0000 0.27027  0.76735  0.54236  Biso   1.000  H
  H2       1.0000 0.54172  0.28526  0.73814  Biso   1.000  H
  H3       1.0000 0.76698  0.49403  0.30201  Biso   1.000  H
  H4       1.0000 0.77547  0.76762  0.99263  Biso   1.000  H
  H5       1.0000 0.00293  0.20884  0.71632  Biso   1.000  H
  H6       1.0000 0.32809  0.49799  0.29201  Biso   1.000  H
  H7       1.0000 0.28772  0.26964  0.54997  Biso   1.000  H
  H8       1.0000 0.00803  0.76219  0.76440  Biso   1.000  H
  H9       1.0000 0.72835  0.99787  0.25193  Biso   1.000  H
  H10      1.0000 0.77660  0.25158  0.03943  Biso   1.000  H
  H11      1.0000 0.50787  0.77486  0.78972  Biso   1.000  H
  H12      1.0000 0.28378  0.00711  0.23383  Biso   1.000  H
  H13      1.0000 0.73814  0.24626  0.49080  Biso   1.000  H
  H14      1.0000 0.57175  0.73034  0.24320  Biso   1.000  H
  H15      1.0000 0.28721  0.47465  0.73113  Biso   1.000  H
  H16      1.0000 0.27962  0.20453  0.07540  Biso   1.000  H
  H17      1.0000 0.02858  0.75332  0.31484  Biso   1.000  H
  H18      1.0000 0.72650  0.44948  0.75604  Biso   1.000  H
  H19      1.0000 0.82609  0.75089  0.49930  Biso   1.000  H
  H20      1.0000 0.03124  0.19042  0.27815  Biso   1.000  H
  H21      1.0000 0.25964  0.03943  0.72282  Biso   1.000  H
  H22      1.0000 0.27890  0.71077  0.06096  Biso   1.000  H
  H23      1.0000 0.56361  0.18585  0.24373  Biso   1.000  H
  H24      1.0000 0.81636  0.94143  0.74980  Biso   1.000  H
  H25      1.0000 0.27976  0.05227  0.80071  Biso   1.000  H
  H26      1.0000 0.81553  0.24060  0.01228  Biso   1.000  H
  H27      1.0000 0.97407  0.73232  0.23197  Biso   1.000  H
  H28      1.0000 0.78350  0.93791  0.73101  Biso   1.000  H
  H29      1.0000 0.25163  0.18787  0.50920  Biso   1.000  H
  H30      1.0000 0.55683  0.76896  0.26842  Biso   1.000  H
  H31      1.0000 0.30773  0.52186  0.75830  Biso   1.000  H
  H32      1.0000 0.80626  0.68822  0.03965  Biso   1.000  H
  H33      1.0000 0.50447  0.26693  0.26454  Biso   1.000  H
  H34      1.0000 0.75561  0.52006  0.73330  Biso   1.000  H
  H35      1.0000 0.24397  0.74903  0.48517  Biso   1.000  H
  H36      1.0000 0.97748  0.22438  0.30373  Biso   1.000  H
  H37      1.0000 0.76010  0.95737  0.22564  Biso   1.000  H
  H38      1.0000 0.30802  0.78504  0.00009  Biso   1.000  H
  H39      1.0000 0.98955  0.23972  0.80347  Biso   1.000  H
  H40      1.0000 0.30971  0.94108  0.25203  Biso   1.000  H
  H41      1.0000 0.79568  0.77726  0.54733  Biso   1.000  H
  H42      1.0000 0.49814  0.19598  0.77067  Biso   1.000  H
  H43      1.0000 0.74276  0.44402  0.28103  Biso   1.000  H
  H44      1.0000 0.25496  0.28132  0.01356  Biso   1.000  H
  H45      1.0000 0.56843  0.70280  0.76359  Biso   1.000  H
  H46      1.0000 0.29711  0.45141  0.30947  Biso   1.000  H
  H47      1.0000 0.76230  0.27581  0.55436  Biso   1.000  H
  H48      1.0000 0.06891  0.68210  0.77913  Biso   1.000  H
  H49      1.0000 0.24707  0.51130  0.26111  Biso   1.000  H
  H50      1.0000 0.31780  0.24847  0.54266  Biso   1.000  H
  H51      1.0000 0.54953  0.20822  0.20767  Biso   1.000  H
  H52      1.0000 0.79563  0.49473  0.22523  Biso   1.000  H
  H53      1.0000 0.75146  0.18388  0.97210  Biso   1.000  H
  H54      1.0000 0.04643  0.26527  0.25725  Biso   1.000  H
  H55      1.0000 0.26640  0.99911  0.31084  Biso   1.000  H
  H56      1.0000 0.29347  0.69493  0.54250  Biso   1.000  H
  H57      1.0000 0.04803  0.76605  0.27862  Biso   1.000  H
  H58      1.0000 0.81593  0.01296  0.27989  Biso   1.000  H
  H59      1.0000 0.74055  0.74574  0.00913  Biso   1.000  H
  H60      1.0000 0.50819  0.70515  0.31780  Biso   1.000  H
  H61      1.0000 0.80159  0.44638  0.76941  Biso   1.000  H
  H62      1.0000 0.74074  0.72157  0.48758  Biso   1.000  H
  H63      1.0000 0.52926  0.75979  0.82348  Biso   1.000  H
  H64      1.0000 0.25411  0.46639  0.81535  Biso   1.000  H
  H65      1.0000 0.24650  0.73097  0.04866  Biso   1.000  H
  H66      1.0000 0.01651  0.74354  0.72682  Biso   1.000  H
  H67      1.0000 0.74111  0.00762  0.77706  Biso   1.000  H
  H68      1.0000 0.81131  0.21587  0.50419  Biso   1.000  H
  H69      1.0000 0.04152  0.18669  0.74982  Biso   1.000  H
  H70      1.0000 0.24550  0.97543  0.75623  Biso   1.000  H
  H71      1.0000 0.31450  0.22941  0.06761  Biso   1.000  H
  H72      1.0000 0.52289  0.25894  0.70764  Biso   1.000  H
  H73      1.0000 0.77851  0.51542  0.79911  Biso   1.000  H
  H74      1.0000 0.76078  0.69344  0.53557  Biso   1.000  H
  H75      1.0000 0.58615  0.74548  0.75108  Biso   1.000  H
  H76      1.0000 0.22172  0.51128  0.78954  Biso   1.000  H
  H77      1.0000 0.32751  0.74765  0.99227  Biso   1.000  H
  H78      1.0000 0.08696  0.71928  0.79750  Biso   1.000  H
  H79      1.0000 0.76880  0.99629  0.80573  Biso   1.000  H
  H80      1.0000 0.78040  0.19678  0.56436  Biso   1.000  H
  H81      1.0000 0.02979  0.26593  0.78481  Biso   1.000  H
  H82      1.0000 0.31874  0.99053  0.78036  Biso   1.000  H
  H83      1.0000 0.23293  0.24515  0.00739  Biso   1.000  H
  H84      1.0000 0.48270  0.23150  0.78710  Biso   1.000  H
  H85      1.0000 0.26671  0.46401  0.23007  Biso   1.000  H
  H86      1.0000 0.23245  0.22699  0.48854  Biso   1.000  H
  H87      1.0000 0.49330  0.23055  0.28194  Biso   1.000  H
  H88      1.0000 0.82553  0.44038  0.25084  Biso   1.000  H
  H89      1.0000 0.73084  0.22057  0.96075  Biso   1.000  H
  H90      1.0000 0.98314  0.24905  0.22317  Biso   1.000  H
  H91      1.0000 0.23848  0.93579  0.27552  Biso   1.000  H
  H92      1.0000 0.31801  0.71667  0.48271  Biso   1.000  H
  H93      1.0000 0.98637  0.69597  0.25276  Biso   1.000  H
  H94      1.0000 0.79673  0.96404  0.30885  Biso   1.000  H
  H95      1.0000 0.82528  0.72196  0.05891  Biso   1.000  H
  H96      1.0000 0.49690  0.69463  0.28275  Biso   1.000  H
  H97      1.0000 0.90017  0.97096  0.92279  Biso   1.000  H
  H98      1.0000 0.94541  0.84657  0.02594  Biso   1.000  H
  H99      1.0000 0.04278  0.88460  0.88648  Biso   1.000  H
  H100     1.0000 0.39133  0.98585  0.60717  Biso   1.000  H
  H101     1.0000 0.44223  0.84781  0.50777  Biso   1.000  H
  H102     1.0000 0.51035  0.89827  0.66294  Biso   1.000  H
  H103     1.0000 0.65658  0.48181  0.92653  Biso   1.000  H
  H104     1.0000 0.61590  0.34335  0.01042  Biso   1.000  H
  H105     1.0000 0.51864  0.39853  0.87528  Biso   1.000  H
  H106     1.0000 0.15417  0.48498  0.60937  Biso   1.000  H
  H107     1.0000 0.11288  0.34976  0.51892  Biso   1.000  H
  H108     1.0000 0.02194  0.38648  0.64938  Biso   1.000  H
  H109     1.0000 0.15812  0.98144  0.11027  Biso   1.000  H
  H110     1.0000 0.11445  0.11730  0.02736  Biso   1.000  H
  H111     1.0000 0.01612  0.07617  0.14528  Biso   1.000  H
  H112     1.0000 0.66152  0.98677  0.42639  Biso   1.000  H
  H113     1.0000 0.61421  0.11794  0.53105  Biso   1.000  H
  H114     1.0000 0.53304  0.06817  0.37543  Biso   1.000  H
  H115     1.0000 0.39986  0.48168  0.11484  Biso   1.000  H
  H116     1.0000 0.44483  0.61893  0.02486  Biso   1.000  H
  H117     1.0000 0.52652  0.57164  0.15176  Biso   1.000  H
  H118     1.0000 0.89973  0.47546  0.42223  Biso   1.000  H
  H119     1.0000 0.93258  0.61169  0.51022  Biso   1.000  H
  H120     1.0000 0.03086  0.57957  0.38244  Biso   1.000  H
  H121     1.0000 0.12068  0.98624  0.88282  Biso   1.000  H
  H122     1.0000 0.89098  0.06871  0.01147  Biso   1.000  H
  H123     1.0000 0.03675  0.84752  0.10783  Biso   1.000  H
  H124     1.0000 0.61652  0.98143  0.65399  Biso   1.000  H
  H125     1.0000 0.39154  0.07468  0.50502  Biso   1.000  H
  H126     1.0000 0.53322  0.84647  0.43496  Biso   1.000  H
  H127     1.0000 0.43127  0.49077  0.88726  Biso   1.000  H
  H128     1.0000 0.66538  0.57032  0.01417  Biso   1.000  H
  H129     1.0000 0.53186  0.34957  0.09720  Biso   1.000  H
  H130     1.0000 0.92196  0.47722  0.64908  Biso   1.000  H
  H131     1.0000 0.15830  0.57629  0.51443  Biso   1.000  H
  H132     1.0000 0.01886  0.35212  0.42927  Biso   1.000  H
  H133     1.0000 0.93193  0.98058  0.14406  Biso   1.000  H
  H134     1.0000 0.16254  0.89496  0.00234  Biso   1.000  H
  H135     1.0000 0.02875  0.11226  0.92351  Biso   1.000  H
  H136     1.0000 0.44207  0.97600  0.37687  Biso   1.000  H
  H137     1.0000 0.66335  0.89180  0.51508  Biso   1.000  H
  H138     1.0000 0.52279  0.11866  0.59428  Biso   1.000  H
  H139     1.0000 0.62231  0.47900  0.14884  Biso   1.000  H
  H140     1.0000 0.39372  0.39850  0.02105  Biso   1.000  H
  H141     1.0000 0.53058  0.61468  0.92730  Biso   1.000  H
  H142     1.0000 0.12355  0.48520  0.38351  Biso   1.000  H
  H143     1.0000 0.89561  0.38874  0.52401  Biso   1.000  H
  H144     1.0000 0.02499  0.61663  0.60278  Biso   1.000  H
  H145     1.0000 0.61070  0.48804  0.88187  Biso   1.000  H
  H146     1.0000 0.89371  0.57576  0.52099  Biso   1.000  H
  H147     1.0000 0.52181  0.85754  0.62174  Biso   1.000  H
  H148     1.0000 0.11045  0.47359  0.64960  Biso   1.000  H
  H149     1.0000 0.40110  0.57985  0.02694  Biso   1.000  H
  H150     1.0000 0.03865  0.84241  0.92902  Biso   1.000  H
  H151     1.0000 0.93967  0.97373  0.88256  Biso   1.000  H
  H152     1.0000 0.65721  0.07822  0.52430  Biso   1.000  H
  H153     1.0000 0.02577  0.34543  0.60938  Biso   1.000  H
  H154     1.0000 0.43166  0.99593  0.64700  Biso   1.000  H
  H155     1.0000 0.15658  0.07698  0.03718  Biso   1.000  H
  H156     1.0000 0.51681  0.35721  0.91166  Biso   1.000  H
  H157     1.0000 0.43942  0.47950  0.15083  Biso   1.000  H
  H158     1.0000 0.15750  0.39399  0.53217  Biso   1.000  H
  H159     1.0000 0.52583  0.11170  0.41355  Biso   1.000  H
  H160     1.0000 0.94152  0.48105  0.38420  Biso   1.000  H
  H161     1.0000 0.65671  0.38369  0.01617  Biso   1.000  H
  H162     1.0000 0.00809  0.11452  0.10722  Biso   1.000  H
  H163     1.0000 0.11487  0.98195  0.15283  Biso   1.000  H
  H164     1.0000 0.39941  0.88634  0.51074  Biso   1.000  H
  H165     1.0000 0.01991  0.61661  0.42393  Biso   1.000  H
  H166     1.0000 0.62127  0.98180  0.38317  Biso   1.000  H
  H167     1.0000 0.90365  0.88728  0.03017  Biso   1.000  H
  H168     1.0000 0.53015  0.61130  0.11504  Biso   1.000  H
  H169     1.0000 0.02887  0.06943  0.88287  Biso   1.000  H
  H170     1.0000 0.88685  0.98423  0.10198  Biso   1.000  H
  H171     1.0000 0.12098  0.84807  0.00680  Biso   1.000  H
  H172     1.0000 0.52229  0.07701  0.63873  Biso   1.000  H
  H173     1.0000 0.40334  0.97822  0.42123  Biso   1.000  H
  H174     1.0000 0.62320  0.85516  0.52473  Biso   1.000  H
  H175     1.0000 0.52129  0.57598  0.88387  Biso   1.000  H
  H176     1.0000 0.66775  0.48531  0.10445  Biso   1.000  H
  H177     1.0000 0.42961  0.35347  0.01433  Biso   1.000  H
  H178     1.0000 0.01713  0.56937  0.64789  Biso   1.000  H
  H179     1.0000 0.15946  0.47726  0.42334  Biso   1.000  H
  H180     1.0000 0.93787  0.34791  0.52504  Biso   1.000  H
  H181     1.0000 0.04371  0.88993  0.14574  Biso   1.000  H
  H182     1.0000 0.16370  0.99908  0.92353  Biso   1.000  H
  H183     1.0000 0.92809  0.10956  0.00150  Biso   1.000  H
  H184     1.0000 0.52999  0.88760  0.38948  Biso   1.000  H
  H185     1.0000 0.65601  0.98168  0.60836  Biso   1.000  H
  H186     1.0000 0.42911  0.11687  0.49860  Biso   1.000  H
  H187     1.0000 0.53694  0.38890  0.14259  Biso   1.000  H
  H188     1.0000 0.39137  0.49060  0.92962  Biso   1.000  H
  H189     1.0000 0.62761  0.61363  0.01510  Biso   1.000  H
  H190     1.0000 0.02327  0.39347  0.38536  Biso   1.000  H
  H191     1.0000 0.88296  0.48322  0.60413  Biso   1.000  H
  H192     1.0000 0.11864  0.61722  0.50869  Biso   1.000  H
  H193     1.0000 0.30160  0.83301  0.50727  Biso   1.000  H
  H194     1.0000 0.51736  0.26161  0.85862  Biso   1.000  H
  H195     1.0000 0.88750  0.47751  0.28608  Biso   1.000  H
  H196     1.0000 0.80687  0.83391  0.03012  Biso   1.000  H
  H197     1.0000 0.04352  0.25097  0.66398  Biso   1.000  H
  H198     1.0000 0.39064  0.46266  0.24952  Biso   1.000  H
  H199     1.0000 0.25577  0.34513  0.52340  Biso   1.000  H
  H200     1.0000 0.06595  0.74602  0.87912  Biso   1.000  H
  H201     1.0000 0.67613  0.95190  0.29255  Biso   1.000  H
  H202     1.0000 0.75062  0.32766  0.01778  Biso   1.000  H
  H203     1.0000 0.55177  0.76699  0.67299  Biso   1.000  H
  H204     1.0000 0.17130  0.98345  0.24906  Biso   1.000  H
  H205     1.0000 0.75517  0.13187  0.53476  Biso   1.000  H
  H206     1.0000 0.53060  0.70994  0.16720  Biso   1.000  H
  H207     1.0000 0.15945  0.46978  0.75044  Biso   1.000  H
  H208     1.0000 0.24908  0.13322  0.06179  Biso   1.000  H
  H209     1.0000 0.99786  0.71108  0.37093  Biso   1.000  H
  H210     1.0000 0.66858  0.49615  0.79001  Biso   1.000  H
  H211     1.0000 0.79704  0.62559  0.50053  Biso   1.000  H
  H212     1.0000 0.99635  0.21201  0.15813  Biso   1.000  H
  H213     1.0000 0.37870  0.01825  0.73947  Biso   1.000  H
  H214     1.0000 0.30302  0.63741  0.04162  Biso   1.000  H
  H215     1.0000 0.52157  0.20425  0.35504  Biso   1.000  H
  H216     1.0000 0.88824  0.96848  0.78566  Biso   1.000  H
  H217     1.0000 0.26227  0.47353  0.38167  Biso   1.000  H
  H218     1.0000 0.37400  0.21063  0.49676  Biso   1.000  H
  H219     1.0000 0.54486  0.33157  0.23658  Biso   1.000  H
  H220     1.0000 0.75941  0.45467  0.15959  Biso   1.000  H
  H221     1.0000 0.87364  0.19858  0.97693  Biso   1.000  H
  H222     1.0000 0.02129  0.33960  0.29084  Biso   1.000  H
  H223     1.0000 0.30463  0.96288  0.37120  Biso   1.000  H
  H224     1.0000 0.16869  0.71513  0.51081  Biso   1.000  H
  H225     1.0000 0.01509  0.84422  0.24261  Biso   1.000  H
  H226     1.0000 0.79635  0.99787  0.16138  Biso   1.000  H
  H227     1.0000 0.68530  0.70270  0.04486  Biso   1.000  H
  H228     1.0000 0.51589  0.82233  0.30013  Biso   1.000  H
  H229     1.0000 0.78321  0.48419  0.65821  Biso   1.000  H
  H230     1.0000 0.67674  0.75644  0.53417  Biso   1.000  H
  H231     1.0000 0.52597  0.63653  0.79314  Biso   1.000  H
  H232     1.0000 0.29176  0.48783  0.88137  Biso   1.000  H
  H233     1.0000 0.18614  0.75824  0.00696  Biso   1.000  H
  H234     1.0000 0.02281  0.62405  0.74494  Biso   1.000  H
  H235     1.0000 0.75423  0.97875  0.66169  Biso   1.000  H
  H236     1.0000 0.88322  0.25336  0.52739  Biso   1.000  H
  H237     1.0000 0.01331  0.11873  0.78363  Biso   1.000  H
  H238     1.0000 0.25701  0.01830  0.87344  Biso   1.000  H
  H239     1.0000 0.37709  0.25708  0.02699  Biso   1.000  H
  H240     1.0000 0.53275  0.14056  0.73374  Biso   1.000  H
  H241     1.0000 0.75289  0.48390  0.87334  Biso   1.000  H
  H242     1.0000 0.88811  0.71226  0.52187  Biso   1.000  H
  H243     1.0000 0.53240  0.85116  0.75941  Biso   1.000  H
  H244     1.0000 0.24748  0.49988  0.66990  Biso   1.000  H
  H245     1.0000 0.39794  0.71869  0.02975  Biso   1.000  H
  H246     1.0000 0.05434  0.82514  0.79331  Biso   1.000  H
  H247     1.0000 0.80350  0.96243  0.86865  Biso   1.000  H
  H248     1.0000 0.66276  0.21557  0.52187  Biso   1.000  H
  H249     1.0000 0.00454  0.33549  0.74794  Biso   1.000  H
  H250     1.0000 0.29174  0.99410  0.65297  Biso   1.000  H
  H251     1.0000 0.15870  0.21672  0.04660  Biso   1.000  H
  H252     1.0000 0.50579  0.34966  0.77640  Biso   1.000  H
  H253     1.0000 0.30314  0.49900  0.16499  Biso   1.000  H
  H254     1.0000 0.16971  0.25707  0.50864  Biso   1.000  H
  H255     1.0000 0.53425  0.11485  0.27538  Biso   1.000  H
  H256     1.0000 0.80159  0.46126  0.36870  Biso   1.000  H
  H257     1.0000 0.66485  0.24566  0.99871  Biso   1.000  H
  H258     1.0000 0.00382  0.12744  0.24523  Biso   1.000  H
  H259     1.0000 0.25376  0.98030  0.16811  Biso   1.000  H
  H260     1.0000 0.39180  0.74961  0.52317  Biso   1.000  H
  H261     1.0000 0.02589  0.63082  0.28596  Biso   1.000  H
  H262     1.0000 0.76035  0.98884  0.37812  Biso   1.000  H
  H263     1.0000 0.88879  0.75079  0.01434  Biso   1.000  H
  H264     1.0000 0.52515  0.62125  0.25312  Biso   1.000  H
  H265     1.0000 0.02626  0.20631  0.86589  Biso   1.000  H
  H266     1.0000 0.88432  0.97576  0.24200  Biso   1.000  H
  H267     1.0000 0.26213  0.85090  0.01890  Biso   1.000  H
  H268     1.0000 0.50037  0.21606  0.64237  Biso   1.000  H
  H269     1.0000 0.38423  0.96349  0.28111  Biso   1.000  H
  H270     1.0000 0.76043  0.84158  0.51421  Biso   1.000  H
  H271     1.0000 0.55906  0.70984  0.87999  Biso   1.000  H
  H272     1.0000 0.67775  0.47623  0.24811  Biso   1.000  H
  H273     1.0000 0.29900  0.34795  0.04430  Biso   1.000  H
  H274     1.0000 0.03978  0.70893  0.66149  Biso   1.000  H
  H275     1.0000 0.17505  0.48238  0.28792  Biso   1.000  H
  H276     1.0000 0.79857  0.33840  0.51324  Biso   1.000  H
  H277     1.0000 0.01630  0.75234  0.15950  Biso   1.000  H
  H278     1.0000 0.17547  0.99466  0.78836  Biso   1.000  H
  H279     1.0000 0.78955  0.11353  0.99319  Biso   1.000  H
  H280     1.0000 0.52802  0.74574  0.39369  Biso   1.000  H
  H281     1.0000 0.67037  0.98026  0.74802  Biso   1.000  H
  H282     1.0000 0.29591  0.12330  0.52826  Biso   1.000  H
  H283     1.0000 0.53101  0.25073  0.14810  Biso   1.000  H
  H284     1.0000 0.37422  0.49329  0.79152  Biso   1.000  H
  H285     1.0000 0.76699  0.61871  0.01312  Biso   1.000  H
  H286     1.0000 0.01567  0.25446  0.37474  Biso   1.000  H
  H287     1.0000 0.86760  0.48553  0.74229  Biso   1.000  H
  H288     1.0000 0.25739  0.62807  0.50905  Biso   1.000  H
  H289     1.0000 0.10359  0.21092  0.03321  Biso   1.000  H
  H290     1.0000 0.01732  0.07616  0.24480  Biso   1.000  H
  H291     1.0000 0.25351  0.98009  0.11222  Biso   1.000  H
  H292     1.0000 0.60653  0.21113  0.52480  Biso   1.000  H
  H293     1.0000 0.53916  0.06123  0.28053  Biso   1.000  H
  H294     1.0000 0.75594  0.00382  0.43002  Biso   1.000  H
  H295     1.0000 0.44933  0.71269  0.02091  Biso   1.000  H
  H296     1.0000 0.52128  0.56890  0.25039  Biso   1.000  H
  H297     1.0000 0.30475  0.49868  0.11183  Biso   1.000  H
  H298     1.0000 0.93907  0.70721  0.52524  Biso   1.000  H
  H299     1.0000 0.03518  0.57517  0.28680  Biso   1.000  H
  H300     1.0000 0.80283  0.46164  0.42450  Biso   1.000  H
  H301     1.0000 0.94626  0.74878  0.01877  Biso   1.000  H
  H302     1.0000 0.04938  0.88352  0.79422  Biso   1.000  H
  H303     1.0000 0.80385  0.96276  0.92621  Biso   1.000  H
  H304     1.0000 0.44390  0.75359  0.52420  Biso   1.000  H
  H305     1.0000 0.51489  0.90060  0.75889  Biso   1.000  H
  H306     1.0000 0.29346  0.98703  0.59720  Biso   1.000  H
  H307     1.0000 0.60878  0.24461  0.99835  Biso   1.000  H
  H308     1.0000 0.51868  0.40401  0.77726  Biso   1.000  H
  H309     1.0000 0.75463  0.48811  0.92832  Biso   1.000  H
  H310     1.0000 0.11766  0.25466  0.50202  Biso   1.000  H
  H311     1.0000 0.00539  0.38994  0.74826  Biso   1.000  H
  H312     1.0000 0.24711  0.50715  0.61625  Biso   1.000  H
  H313     1.0000 0.25949  0.01111  0.93336  Biso   1.000  H
  H314     1.0000 0.92815  0.20328  0.98571  Biso   1.000  H
  H315     1.0000 0.02384  0.89770  0.23884  Biso   1.000  H
  H316     1.0000 0.75227  0.98267  0.60573  Biso   1.000  H
  H317     1.0000 0.43265  0.21232  0.49066  Biso   1.000  H
  H318     1.0000 0.51777  0.87806  0.29508  Biso   1.000  H
  H319     1.0000 0.29181  0.49457  0.93251  Biso   1.000  H
  H320     1.0000 0.63336  0.70798  0.04201  Biso   1.000  H
  H321     1.0000 0.54721  0.38793  0.23958  Biso   1.000  H
  H322     1.0000 0.78796  0.49455  0.59905  Biso   1.000  H
  H323     1.0000 0.11733  0.71496  0.51148  Biso   1.000  H
  H324     1.0000 0.03398  0.39372  0.28870  Biso   1.000  H
  H325     1.0000 0.79419  0.00280  0.10439  Biso   1.000  H
  H326     1.0000 0.12999  0.75381  0.00622  Biso   1.000  H
  H327     1.0000 0.01935  0.06349  0.78716  Biso   1.000  H
  H328     1.0000 0.30505  0.97100  0.42387  Biso   1.000  H
  H329     1.0000 0.61943  0.76149  0.53828  Biso   1.000  H
  H330     1.0000 0.54390  0.08480  0.73451  Biso   1.000  H
  H331     1.0000 0.75461  0.45157  0.10532  Biso   1.000  H
  H332     1.0000 0.43140  0.25896  0.02421  Biso   1.000  H
  H333     1.0000 0.52036  0.58183  0.78901  Biso   1.000  H
  H334     1.0000 0.25370  0.46598  0.43634  Biso   1.000  H
  H335     1.0000 0.93439  0.25349  0.53458  Biso   1.000  H
  H336     1.0000 0.01574  0.56607  0.74387  Biso   1.000  H
  H337     1.0000 0.02857  0.20651  0.92231  Biso   1.000  H
  H338     1.0000 0.93558  0.96621  0.24030  Biso   1.000  H
  H339     1.0000 0.25791  0.90613  0.01548  Biso   1.000  H
  H340     1.0000 0.50003  0.21159  0.58970  Biso   1.000  H
  H341     1.0000 0.43795  0.96870  0.28047  Biso   1.000  H
  H342     1.0000 0.76018  0.89737  0.52025  Biso   1.000  H
  H343     1.0000 0.55618  0.70986  0.93498  Biso   1.000  H
  H344     1.0000 0.62329  0.48323  0.24488  Biso   1.000  H
  H345     1.0000 0.29903  0.40071  0.03787  Biso   1.000  H
  H346     1.0000 0.03481  0.70980  0.60865  Biso   1.000  H
  H347     1.0000 0.12165  0.48856  0.28959  Biso   1.000  H
  H348     1.0000 0.80080  0.39355  0.51147  Biso   1.000  H
  H349     1.0000 0.02403  0.75149  0.10706  Biso   1.000  H
  H350     1.0000 0.12440  0.98057  0.78530  Biso   1.000  H
  H351     1.0000 0.79197  0.06215  0.00284  Biso   1.000  H
  H352     1.0000 0.52814  0.75147  0.44584  Biso   1.000  H
  H353     1.0000 0.61633  0.98436  0.74836  Biso   1.000  H
  H354     1.0000 0.30099  0.06679  0.53319  Biso   1.000  H
  H355     1.0000 0.53578  0.25404  0.09409  Biso   1.000  H
  H356     1.0000 0.42817  0.48983  0.78887  Biso   1.000  H
  H357     1.0000 0.76158  0.56394  0.00439  Biso   1.000  H
  H358     1.0000 0.01195  0.25709  0.42837  Biso   1.000  H
  H359     1.0000 0.91974  0.48348  0.74549  Biso   1.000  H
  H360     1.0000 0.25521  0.57266  0.51038  Biso   1.000  H
  H361     1.0000 0.00138  0.71236  0.42519  Biso   1.000  H
  H362     1.0000 0.43400  0.01304  0.74111  Biso   1.000  H
  H363     1.0000 0.75290  0.38301  0.02508  Biso   1.000  H
  H364     1.0000 0.54081  0.70822  0.11430  Biso   1.000  H
  H365     1.0000 0.94154  0.96921  0.78802  Biso   1.000  H
  H366     1.0000 0.25519  0.39592  0.53503  Biso   1.000  H
  H367     1.0000 0.52588  0.20741  0.41157  Biso   1.000  H
  H368     1.0000 0.10785  0.46889  0.74409  Biso   1.000  H
  H369     1.0000 0.80836  0.88870  0.03855  Biso   1.000  H
  H370     1.0000 0.99865  0.21252  0.10310  Biso   1.000  H
  H371     1.0000 0.61230  0.48604  0.78783  Biso   1.000  H
  H372     1.0000 0.30320  0.88742  0.50411  Biso   1.000  H
  H373     1.0000 0.04950  0.25272  0.61287  Biso   1.000  H
  H374     1.0000 0.62455  0.94655  0.29202  Biso   1.000  H
  H375     1.0000 0.30673  0.58247  0.04154  Biso   1.000  H
  H376     1.0000 0.51539  0.26138  0.91344  Biso   1.000  H
  H377     1.0000 0.11568  0.98865  0.24943  Biso   1.000  H
  H378     1.0000 0.79812  0.57146  0.50856  Biso   1.000  H
  H379     1.0000 0.54674  0.76405  0.62316  Biso   1.000  H
  H380     1.0000 0.94295  0.49111  0.28713  Biso   1.000  H
  H381     1.0000 0.25014  0.07804  0.05459  Biso   1.000  H
  H382     1.0000 0.06246  0.74844  0.93471  Biso   1.000  H
  H383     1.0000 0.44484  0.45141  0.24305  Biso   1.000  H
  H384     1.0000 0.75318  0.07689  0.53844  Biso   1.000  H
  H385     1.0000 0.26103  0.44816  0.34868  Biso   1.000  H
  H386     1.0000 0.28864  0.15060  0.49732  Biso   1.000  H
  H387     1.0000 0.50824  0.30604  0.23452  Biso   1.000  H
  H388     1.0000 0.70620  0.44188  0.24135  Biso   1.000  H
  H389     1.0000 0.84951  0.20256  0.01103  Biso   1.000  H
  H390     1.0000 0.98627  0.25753  0.34503  Biso   1.000  H
  H391     1.0000 0.35298  0.93788  0.28902  Biso   1.000  H
  H392     1.0000 0.20386  0.71232  0.48145  Biso   1.000  H
  H393     1.0000 0.98034  0.76670  0.19289  Biso   1.000  H
  H394     1.0000 0.79776  0.95889  0.18763  Biso   1.000  H
  H395     1.0000 0.77060  0.64714  0.04415  Biso   1.000  H
  H396     1.0000 0.55828  0.80322  0.30821  Biso   1.000  H
  H397     1.0000 0.78716  0.52081  0.69128  Biso   1.000  H
  H398     1.0000 0.75491  0.81109  0.55142  Biso   1.000  H
  H399     1.0000 0.56305  0.66229  0.79631  Biso   1.000  H
  H400     1.0000 0.34556  0.52468  0.79434  Biso   1.000  H
  H401     1.0000 0.26521  0.82032  0.98992  Biso   1.000  H
  H402     1.0000 0.05902  0.64572  0.74356  Biso   1.000  H
  H403     1.0000 0.74219  0.93961  0.69313  Biso   1.000  H
  H404     1.0000 0.79783  0.31278  0.54635  Biso   1.000  H
  H405     1.0000 0.98579  0.19715  0.83808  Biso   1.000  H
  H406     1.0000 0.24436  0.04588  0.84011  Biso   1.000  H
  H407     1.0000 0.29000  0.31697  0.00990  Biso   1.000  H
  H408     1.0000 0.49278  0.15853  0.73151  Biso   1.000  H
  H409     1.0000 0.30012  0.45201  0.19624  Biso   1.000  H
  H410     1.0000 0.20245  0.26700  0.48114  Biso   1.000  H
  H411     1.0000 0.49211  0.19396  0.32223  Biso   1.000  H
  H412     1.0000 0.86290  0.44607  0.28793  Biso   1.000  H
  H413     1.0000 0.69318  0.25723  0.96959  Biso   1.000  H
  H414     1.0000 0.97047  0.21149  0.19166  Biso   1.000  H
  H415     1.0000 0.19758  0.94358  0.24307  Biso   1.000  H
  H416     1.0000 0.35581  0.75636  0.48037  Biso   1.000  H
  H417     1.0000 0.98893  0.65228  0.28823  Biso   1.000  H
  H418     1.0000 0.76723  0.95947  0.34773  Biso   1.000  H
  H419     1.0000 0.86321  0.75360  0.05725  Biso   1.000  H
  H420     1.0000 0.49209  0.65836  0.24391  Biso   1.000  H
  H421     1.0000 0.74155  0.52060  0.83608  Biso   1.000  H
  H422     1.0000 0.79486  0.65589  0.54101  Biso   1.000  H
  H423     1.0000 0.58076  0.78014  0.71100  Biso   1.000  H
  H424     1.0000 0.18553  0.51077  0.74776  Biso   1.000  H
  H425     1.0000 0.36506  0.71194  0.99946  Biso   1.000  H
  H426     1.0000 0.08720  0.75426  0.84104  Biso   1.000  H
  H427     1.0000 0.80561  0.99795  0.84342  Biso   1.000  H
  H428     1.0000 0.74499  0.16445  0.56448  Biso   1.000  H
  H429     1.0000 0.03595  0.30505  0.75079  Biso   1.000  H
  H430     1.0000 0.35107  0.98242  0.73808  Biso   1.000  H
  H431     1.0000 0.19638  0.20980  0.01133  Biso   1.000  H
  H432     1.0000 0.48557  0.26591  0.82724  Biso   1.000  H
  H433     1.0000 0.28953  0.03129  0.68105  Biso   1.000  H
  H434     1.0000 0.74664  0.28966  0.04338  Biso   1.000  H
  H435     1.0000 0.03572  0.71325  0.34615  Biso   1.000  H
  H436     1.0000 0.85630  0.93889  0.78740  Biso   1.000  H
  H437     1.0000 0.25400  0.31110  0.55328  Biso   1.000  H
  H438     1.0000 0.56903  0.69772  0.20370  Biso   1.000  H
  H439     1.0000 0.24885  0.45902  0.69581  Biso   1.000  H
  H440     1.0000 0.81372  0.80236  0.99013  Biso   1.000  H
  H441     1.0000 0.56522  0.15023  0.28280  Biso   1.000  H
  H442     1.0000 0.69184  0.44873  0.79859  Biso   1.000  H
  H443     1.0000 0.30722  0.80527  0.54498  Biso   1.000  H
  H444     1.0000 0.03187  0.15662  0.23982  Biso   1.000  H
  H445     1.0000 0.69557  0.99234  0.29164  Biso   1.000  H
  H446     1.0000 0.31361  0.67137  0.06794  Biso   1.000  H
  H447     1.0000 0.00339  0.24623  0.68460  Biso   1.000  H
  H448     1.0000 0.24688  0.01292  0.19936  Biso   1.000  H
  H449     1.0000 0.85616  0.71270  0.48830  Biso   1.000  H
  H450     1.0000 0.54498  0.32038  0.77632  Biso   1.000  H
  H451     1.0000 0.80108  0.49685  0.34141  Biso   1.000  H
  H452     1.0000 0.24531  0.17037  0.08223  Biso   1.000  H
  H453     1.0000 0.49891  0.81046  0.75127  Biso   1.000  H
  H454     1.0000 0.36282  0.50324  0.25102  Biso   1.000  H
  H455     1.0000 0.69946  0.21027  0.48775  Biso   1.000  H
  H456     1.0000 0.01090  0.79900  0.80308  Biso   1.000  H
  H457     1.0000 0.70181  0.75544  0.49300  Biso   1.000  H
  H458     1.0000 0.52217  0.71916  0.86033  Biso   1.000  H
  H459     1.0000 0.83774  0.44859  0.73055  Biso   1.000  H
  H460     1.0000 0.21023  0.76874  0.04452  Biso   1.000  H
  H461     1.0000 0.00798  0.70848  0.69164  Biso   1.000  H
  H462     1.0000 0.29665  0.46247  0.84824  Biso   1.000  H
  H463     1.0000 0.85265  0.24985  0.49961  Biso   1.000  H
  H464     1.0000 0.04693  0.14784  0.78927  Biso   1.000  H
  H465     1.0000 0.70437  0.00972  0.74321  Biso   1.000  H
  H466     1.0000 0.34882  0.26789  0.06683  Biso   1.000  H
  H467     1.0000 0.52831  0.22279  0.66940  Biso   1.000  H
  H468     1.0000 0.21403  0.96576  0.79522  Biso   1.000  H
  H469     1.0000 0.35320  0.21067  0.53709  Biso   1.000  H
  H470     1.0000 0.56422  0.25131  0.17803  Biso   1.000  H
  H471     1.0000 0.20935  0.51022  0.29652  Biso   1.000  H
  H472     1.0000 0.78727  0.14440  0.96509  Biso   1.000  H
  H473     1.0000 0.05164  0.30342  0.28956  Biso   1.000  H
  H474     1.0000 0.75860  0.49763  0.18783  Biso   1.000  H
  H475     1.0000 0.25244  0.65744  0.54340  Biso   1.000  H
  H476     1.0000 0.05219  0.80680  0.24022  Biso   1.000  H
  H477     1.0000 0.30709  0.00123  0.34498  Biso   1.000  H
  H478     1.0000 0.70775  0.70294  0.00321  Biso   1.000  H
  H479     1.0000 0.50246  0.73792  0.35707  Biso   1.000  H
  H480     1.0000 0.85356  0.01342  0.24472  Biso   1.000  H
  N1       1.0000 0.69783  0.16324  0.52624  Biso   1.000  N
  N2       1.0000 0.52728  0.65671  0.19964  Biso   1.000  N
  N3       1.0000 0.19432  0.48239  0.69792  Biso   1.000  N
  N4       1.0000 0.19466  0.16528  0.04834  Biso   1.000  N
  N5       1.0000 0.01559  0.66064  0.33978  Biso   1.000  N
  N6       1.0000 0.69842  0.48308  0.84204  Biso   1.000  N
  N7       1.0000 0.85022  0.65802  0.51637  Biso   1.000  N
  N8       1.0000 0.99760  0.15903  0.19174  Biso   1.000  N
  N9       1.0000 0.34468  0.00515  0.68734  Biso   1.000  N
  N10      1.0000 0.36128  0.66774  0.03323  Biso   1.000  N
  N11      1.0000 0.53053  0.15070  0.32621  Biso   1.000  N
  N12      1.0000 0.85485  0.96756  0.83847  Biso   1.000  N
  N13      1.0000 0.35611  0.80243  0.51194  Biso   1.000  N
  N14      1.0000 0.51612  0.31620  0.82822  Biso   1.000  N
  N15      1.0000 0.85633  0.47215  0.33837  Biso   1.000  N
  N16      1.0000 0.86092  0.80296  0.02413  Biso   1.000  N
  N17      1.0000 0.02261  0.30215  0.69486  Biso   1.000  N
  N18      1.0000 0.35588  0.47827  0.19979  Biso   1.000  N
  N19      1.0000 0.20323  0.31048  0.52046  Biso   1.000  N
  N20      1.0000 0.05084  0.79687  0.84593  Biso   1.000  N
  N21      1.0000 0.70682  0.97312  0.34292  Biso   1.000  N
  N22      1.0000 0.69546  0.29672  0.01272  Biso   1.000  N
  N23      1.0000 0.53707  0.81778  0.70669  Biso   1.000  N
  N24      1.0000 0.19995  0.97991  0.19686  Biso   1.000  N
  N25      1.0000 0.83709  0.48409  0.68745  Biso   1.000  N
  N26      1.0000 0.70749  0.80817  0.52190  Biso   1.000  N
  N27      1.0000 0.53800  0.66347  0.84609  Biso   1.000  N
  N28      1.0000 0.34527  0.49120  0.84531  Biso   1.000  N
  N29      1.0000 0.21233  0.81411  0.01197  Biso   1.000  N
  N30      1.0000 0.03079  0.65402  0.69366  Biso   1.000  N
  N31      1.0000 0.70106  0.97993  0.69390  Biso   1.000  N
  N32      1.0000 0.84960  0.30538  0.52306  Biso   1.000  N
  N33      1.0000 0.01970  0.15107  0.83702  Biso   1.000  N
  N34      1.0000 0.20565  0.00420  0.84185  Biso   1.000  N
  N35      1.0000 0.34663  0.31310  0.03269  Biso   1.000  N
  N36      1.0000 0.51396  0.16533  0.67875  Biso   1.000  N
  N37      1.0000 0.21045  0.47880  0.34503  Biso   1.000  N
  N38      1.0000 0.34580  0.15814  0.51333  Biso   1.000  N
  N39      1.0000 0.53695  0.30294  0.18250  Biso   1.000  N
  N40      1.0000 0.70640  0.46783  0.19193  Biso   1.000  N
  N41      1.0000 0.84271  0.14858  0.98933  Biso   1.000  N
  N42      1.0000 0.01827  0.30776  0.33988  Biso   1.000  N
  N43      1.0000 0.35485  0.96440  0.33805  Biso   1.000  N
  N44      1.0000 0.20400  0.66273  0.51306  Biso   1.000  N
  N45      1.0000 0.02055  0.80789  0.19197  Biso   1.000  N
  N46      1.0000 0.84882  0.98595  0.19135  Biso   1.000  N
  N47      1.0000 0.71539  0.65229  0.02219  Biso   1.000  N
  N48      1.0000 0.52595  0.79668  0.35527  Biso   1.000  N
  O1       1.0000 0.36965  0.53360  0.02082  Biso   1.000  O
  O2       1.0000 0.02986  0.32054  0.56237  Biso   1.000  O
  O3       1.0000 0.57081  0.97308  0.35860  Biso   1.000  O
  O4       1.0000 0.86994  0.52229  0.51703  Biso   1.000  O
  O5       1.0000 0.51896  0.32949  0.96573  Biso   1.000  O
  O6       1.0000 0.06787  0.98685  0.17250  Biso   1.000  O
  O7       1.0000 0.18463  0.03182  0.02171  Biso   1.000  O
  O8       1.0000 0.52908  0.83369  0.57259  Biso   1.000  O
  O9       1.0000 0.99266  0.49092  0.35841  Biso   1.000  O
  O10      1.0000 0.68154  0.02882  0.52215  Biso   1.000  O
  O11      1.0000 0.03331  0.81699  0.97561  Biso   1.000  O
  O12      1.0000 0.48734  0.47422  0.17228  Biso   1.000  O
  O13      1.0000 0.68035  0.43234  0.01705  Biso   1.000  O
  O14      1.0000 0.02092  0.64017  0.47342  Biso   1.000  O
  O15      1.0000 0.48300  0.99768  0.67342  Biso   1.000  O
  O16      1.0000 0.18011  0.44504  0.52754  Biso   1.000  O
  O17      1.0000 0.53646  0.63663  0.06566  Biso   1.000  O
  O18      1.0000 0.99120  0.97106  0.85980  Biso   1.000  O
  O19      1.0000 0.87912  0.93904  0.02521  Biso   1.000  O
  O20      1.0000 0.52585  0.13474  0.46451  Biso   1.000  O
  O21      1.0000 0.05888  0.47891  0.67439  Biso   1.000  O
  O22      1.0000 0.37142  0.94044  0.51278  Biso   1.000  O
  O23      1.0000 0.00605  0.13771  0.05645  Biso   1.000  O
  O24      1.0000 0.56711  0.49142  0.85911  Biso   1.000  O
  O25      1.0000 0.98311  0.97764  0.16595  Biso   1.000  O
  O26      1.0000 0.18321  0.94861  0.01483  Biso   1.000  O
  O27      1.0000 0.02404  0.13454  0.97273  Biso   1.000  O
  O28      1.0000 0.48889  0.97455  0.35465  Biso   1.000  O
  O29      1.0000 0.68659  0.94407  0.51521  Biso   1.000  O
  O30      1.0000 0.51887  0.13950  0.54563  Biso   1.000  O
  O31      1.0000 0.57471  0.48864  0.17421  Biso   1.000  O
  O32      1.0000 0.37128  0.44936  0.02390  Biso   1.000  O
  O33      1.0000 0.53739  0.63904  0.98033  Biso   1.000  O
  O34      1.0000 0.07397  0.48584  0.36260  Biso   1.000  O
  O35      1.0000 0.87070  0.43895  0.51652  Biso   1.000  O
  O36      1.0000 0.03128  0.63711  0.55928  Biso   1.000  O
  O37      1.0000 0.07333  0.97856  0.85784  Biso   1.000  O
  O38      1.0000 0.86939  0.01891  0.00975  Biso   1.000  O
  O39      1.0000 0.04098  0.82192  0.05948  Biso   1.000  O
  O40      1.0000 0.56467  0.97988  0.67880  Biso   1.000  O
  O41      1.0000 0.37250  0.02439  0.50815  Biso   1.000  O
  O42      1.0000 0.53497  0.82749  0.48886  Biso   1.000  O
  O43      1.0000 0.48128  0.48938  0.85926  Biso   1.000  O
  O44      1.0000 0.68653  0.51859  0.01505  Biso   1.000  O
  O45      1.0000 0.52707  0.32751  0.04906  Biso   1.000  O
  O46      1.0000 0.97213  0.47743  0.67354  Biso   1.000  O
  O47      1.0000 0.18078  0.52811  0.51548  Biso   1.000  O
  O48      1.0000 0.02280  0.32645  0.47713  Biso   1.000  O
  O49      1.0000 0.03143  0.94263  0.16986  Biso   1.000  O
  O50      1.0000 0.18453  0.99573  0.97564  Biso   1.000  O
  O51      1.0000 0.97784  0.13450  0.00363  Biso   1.000  O
  O52      1.0000 0.52774  0.93267  0.36034  Biso   1.000  O
  O53      1.0000 0.68036  0.98261  0.55722  Biso   1.000  O
  O54      1.0000 0.48085  0.13930  0.49822  Biso   1.000  O
  O55      1.0000 0.53604  0.43597  0.16766  Biso   1.000  O
  O56      1.0000 0.37088  0.49016  0.97940  Biso   1.000  O
  O57      1.0000 0.57752  0.63853  0.02641  Biso   1.000  O
  O58      1.0000 0.02662  0.44432  0.36079  Biso   1.000  O
  O59      1.0000 0.86469  0.48340  0.55672  Biso   1.000  O
  O60      1.0000 0.06881  0.63947  0.51138  Biso   1.000  O
  O61      1.0000 0.02549  0.01724  0.85891  Biso   1.000  O
  O62      1.0000 0.86714  0.98694  0.05686  Biso   1.000  O
  O63      1.0000 0.07802  0.81949  0.01861  Biso   1.000  O
  O64      1.0000 0.52767  0.03007  0.66737  Biso   1.000  O
  O65      1.0000 0.37842  0.98101  0.47131  Biso   1.000  O
  O66      1.0000 0.57338  0.82984  0.52895  Biso   1.000  O
  O67      1.0000 0.52243  0.52954  0.85834  Biso   1.000  O
  O68      1.0000 0.68614  0.47805  0.05597  Biso   1.000  O
  O69      1.0000 0.47862  0.32917  0.01216  Biso   1.000  O
  O70      1.0000 0.01744  0.52142  0.67131  Biso   1.000  O
  O71      1.0000 0.18081  0.48154  0.47883  Biso   1.000  O
  O72      1.0000 0.98210  0.32614  0.52172  Biso   1.000  O
  O73      1.0000 0.01889  0.43807  0.67163  Biso   1.000  O
  O74      1.0000 0.68017  0.98862  0.47438  Biso   1.000  O
  O75      1.0000 0.49416  0.63658  0.01985  Biso   1.000  O
  O76      1.0000 0.52592  0.44997  0.85364  Biso   1.000  O
  O77      1.0000 0.18290  0.98780  0.06010  Biso   1.000  O
  O78      1.0000 0.98710  0.63581  0.52323  Biso   1.000  O
  O79      1.0000 0.51919  0.94890  0.67891  Biso   1.000  O
  O80      1.0000 0.87334  0.47780  0.47327  Biso   1.000  O
  O81      1.0000 0.05976  0.13951  0.02756  Biso   1.000  O
  O82      1.0000 0.03933  0.93238  0.86118  Biso   1.000  O
  O83      1.0000 0.37548  0.49271  0.06398  Biso   1.000  O
  O84      1.0000 0.56294  0.13758  0.51557  Biso   1.000  O
  O85      1.0000 0.03701  0.53039  0.36055  Biso   1.000  O
  O86      1.0000 0.36945  0.98200  0.55481  Biso   1.000  O
  O87      1.0000 0.56601  0.32328  0.00784  Biso   1.000  O
  O88      1.0000 0.52775  0.52270  0.17763  Biso   1.000  O
  O89      1.0000 0.87505  0.97166  0.97389  Biso   1.000  O
  O90      1.0000 0.06699  0.32660  0.51767  Biso   1.000  O
  O91      1.0000 0.53318  0.01636  0.35618  Biso   1.000  O
  O92      1.0000 0.17869  0.49267  0.56079  Biso   1.000  O
  O93      1.0000 0.99328  0.82080  0.01923  Biso   1.000  O
  O94      1.0000 0.01933  0.02612  0.16823  Biso   1.000  O
  O95      1.0000 0.68161  0.47330  0.97480  Biso   1.000  O
  O96      1.0000 0.48665  0.82973  0.53083  Biso   1.000  O
  O97      1.0000 0.47921  0.18806  0.49971  Biso   1.000  O
  O98      1.0000 0.53650  0.43704  0.21738  Biso   1.000  O
  O99      1.0000 0.23068  0.48220  0.47906  Biso   1.000  O
  O100     1.0000 0.97857  0.18306  0.00535  Biso   1.000  O
  O101     1.0000 0.03295  0.44259  0.31318  Biso   1.000  O
  O102     1.0000 0.73536  0.47671  0.05846  Biso   1.000  O
  O103     1.0000 0.06559  0.68708  0.51202  Biso   1.000  O
  O104     1.0000 0.02663  0.94231  0.21738  Biso   1.000  O
  O105     1.0000 0.32968  0.97400  0.46979  Biso   1.000  O
  O106     1.0000 0.58136  0.68559  0.03210  Biso   1.000  O
  O107     1.0000 0.53034  0.92817  0.31204  Biso   1.000  O
  O108     1.0000 0.81986  0.97874  0.05480  Biso   1.000  O
  O109     1.0000 0.57419  0.78125  0.53653  Biso   1.000  O
  O110     1.0000 0.51470  0.53139  0.80987  Biso   1.000  O
  O111     1.0000 0.81563  0.49020  0.55011  Biso   1.000  O
  O112     1.0000 0.08062  0.77250  0.01573  Biso   1.000  O
  O113     1.0000 0.01693  0.51978  0.71912  Biso   1.000  O
  O114     1.0000 0.32201  0.49536  0.98294  Biso   1.000  O
  O115     1.0000 0.98369  0.27656  0.52823  Biso   1.000  O
  O116     1.0000 0.02512  0.01617  0.80907  Biso   1.000  O
  O117     1.0000 0.72856  0.98470  0.56104  Biso   1.000  O
  O118     1.0000 0.47693  0.27976  0.00935  Biso   1.000  O
  O119     1.0000 0.52476  0.03551  0.71588  Biso   1.000  O
  O120     1.0000 0.23239  0.99908  0.97873  Biso   1.000  O
  O121     1.0000 0.05998  0.47248  0.72095  Biso   1.000  O
  O122     1.0000 0.73072  0.03043  0.52365  Biso   1.000  O
  O123     1.0000 0.53620  0.68595  0.06588  Biso   1.000  O
  O124     1.0000 0.56195  0.49410  0.81088  Biso   1.000  O
  O125     1.0000 0.23289  0.03433  0.03000  Biso   1.000  O
  O126     1.0000 0.01767  0.69002  0.47524  Biso   1.000  O
  O127     1.0000 0.48104  0.99744  0.72175  Biso   1.000  O
  O128     1.0000 0.82182  0.52304  0.50365  Biso   1.000  O
  O129     1.0000 0.00412  0.18540  0.05502  Biso   1.000  O
  O130     1.0000 0.98972  0.96828  0.81198  Biso   1.000  O
  O131     1.0000 0.32156  0.53466  0.02760  Biso   1.000  O
  O132     1.0000 0.52941  0.18305  0.46206  Biso   1.000  O
  O133     1.0000 0.99146  0.48830  0.30997  Biso   1.000  O
  O134     1.0000 0.32394  0.93557  0.51089  Biso   1.000  O
  O135     1.0000 0.51326  0.28166  0.96423  Biso   1.000  O
  O136     1.0000 0.49089  0.46814  0.22123  Biso   1.000  O
  O137     1.0000 0.82999  0.93229  0.01889  Biso   1.000  O
  O138     1.0000 0.03827  0.27264  0.56101  Biso   1.000  O
  O139     1.0000 0.57313  0.96376  0.30931  Biso   1.000  O
  O140     1.0000 0.22821  0.44269  0.52236  Biso   1.000  O
  O141     1.0000 0.04013  0.76900  0.97740  Biso   1.000  O
  O142     1.0000 0.06440  0.98884  0.22072  Biso   1.000  O
  O143     1.0000 0.72807  0.43182  0.01769  Biso   1.000  O
  O144     1.0000 0.52541  0.78491  0.57280  Biso   1.000  O
  O145     1.0000 0.57358  0.48081  0.22099  Biso   1.000  O
  O146     1.0000 0.23131  0.52832  0.51855  Biso   1.000  O
  O147     1.0000 0.51523  0.18895  0.54397  Biso   1.000  O
  O148     1.0000 0.07380  0.48798  0.31410  Biso   1.000  O
  O149     1.0000 0.73644  0.51646  0.01361  Biso   1.000  O
  O150     1.0000 0.02769  0.18228  0.97351  Biso   1.000  O
  O151     1.0000 0.98381  0.97872  0.21675  Biso   1.000  O
  O152     1.0000 0.32332  0.02185  0.50598  Biso   1.000  O
  O153     1.0000 0.03038  0.68762  0.55725  Biso   1.000  O
  O154     1.0000 0.48982  0.97104  0.30655  Biso   1.000  O
  O155     1.0000 0.82057  0.01504  0.01011  Biso   1.000  O
  O156     1.0000 0.54530  0.68772  0.98172  Biso   1.000  O
  O157     1.0000 0.47713  0.48633  0.81100  Biso   1.000  O
  O158     1.0000 0.82170  0.43783  0.51563  Biso   1.000  O
  O159     1.0000 0.53751  0.77832  0.49137  Biso   1.000  O
  O160     1.0000 0.97414  0.48230  0.72217  Biso   1.000  O
  O161     1.0000 0.32155  0.44975  0.02055  Biso   1.000  O
  O162     1.0000 0.03772  0.77328  0.06005  Biso   1.000  O
  O163     1.0000 0.07350  0.97651  0.80885  Biso   1.000  O
  O164     1.0000 0.73389  0.94616  0.51895  Biso   1.000  O
  O165     1.0000 0.01740  0.27906  0.47855  Biso   1.000  O
  O166     1.0000 0.56467  0.99142  0.72587  Biso   1.000  O
  O167     1.0000 0.23222  0.95041  0.01381  Biso   1.000  O
  O168     1.0000 0.51944  0.27890  0.04883  Biso   1.000  O
  O169     1.0000 0.02437  0.02453  0.21666  Biso   1.000  O
  O170     1.0000 0.22952  0.98036  0.06168  Biso   1.000  O
  O171     1.0000 0.06143  0.18653  0.02247  Biso   1.000  O
  O172     1.0000 0.53365  0.01270  0.30654  Biso   1.000  O
  O173     1.0000 0.72958  0.99116  0.47876  Biso   1.000  O
  O174     1.0000 0.56262  0.18747  0.51351  Biso   1.000  O
  O175     1.0000 0.52390  0.52054  0.22612  Biso   1.000  O
  O176     1.0000 0.32822  0.49083  0.06576  Biso   1.000  O
  O177     1.0000 0.49830  0.68578  0.01549  Biso   1.000  O
  O178     1.0000 0.03707  0.52770  0.31101  Biso   1.000  O
  O179     1.0000 0.82493  0.47530  0.46916  Biso   1.000  O
  O180     1.0000 0.98328  0.68307  0.52119  Biso   1.000  O
  O181     1.0000 0.03228  0.92996  0.81283  Biso   1.000  O
  O182     1.0000 0.82520  0.97019  0.97262  Biso   1.000  O
  O183     1.0000 0.99429  0.77167  0.02046  Biso   1.000  O
  O184     1.0000 0.51610  0.95397  0.72749  Biso   1.000  O
  O185     1.0000 0.32156  0.98094  0.55193  Biso   1.000  O
  O186     1.0000 0.49150  0.78138  0.52465  Biso   1.000  O
  O187     1.0000 0.52254  0.44937  0.80513  Biso   1.000  O
  O188     1.0000 0.73126  0.47205  0.97627  Biso   1.000  O
  O189     1.0000 0.56105  0.27466  0.00086  Biso   1.000  O
  O190     1.0000 0.01185  0.43790  0.72012  Biso   1.000  O
  O191     1.0000 0.22751  0.49073  0.56332  Biso   1.000  O
  O192     1.0000 0.06731  0.27890  0.51127  Biso   1.000  O
