data_image0
_cell_length_a       47.1604
_cell_length_b       46.7819
_cell_length_c       46.437
_cell_angle_alpha    90
_cell_angle_beta     90
_cell_angle_gamma    90

_symmetry_space_group_name_H-M    "P 1"
_symmetry_int_tables_number       1

loop_
  _symmetry_equiv_pos_as_xyz
  'x, y, z'

loop_
  _atom_site_label
  _atom_site_occupancy
  _atom_site_fract_x
  _atom_site_fract_y
  _atom_site_fract_z
  _atom_site_thermal_displace_type
  _atom_site_B_iso_or_equiv
  _atom_site_type_symbol
  C1       1.0000 0.54609  0.99551  0.33539  Biso   1.000  C
  C2       1.0000 0.32979  0.56856  0.03523  Biso   1.000  C
  C3       1.0000 0.99248  0.31798  0.57717  Biso   1.000  C
  C4       1.0000 0.04927  0.00934  0.20427  Biso   1.000  C
  C5       1.0000 0.81433  0.55591  0.51787  Biso   1.000  C
  C6       1.0000 0.50012  0.32339  0.96107  Biso   1.000  C
  C7       1.0000 0.96545  0.49367  0.34078  Biso   1.000  C
  C8       1.0000 0.18258  0.06122  0.02416  Biso   1.000  C
  C9       1.0000 0.49744  0.82689  0.58060  Biso   1.000  C
  C10      1.0000 0.46414  0.49010  0.20479  Biso   1.000  C
  C11      1.0000 0.68704  0.05808  0.49800  Biso   1.000  C
  C12      1.0000 0.00371  0.82495  0.97451  Biso   1.000  C
  C13      1.0000 0.46126  0.02394  0.70880  Biso   1.000  C
  C14      1.0000 0.68150  0.43216  0.00902  Biso   1.000  C
  C15      1.0000 0.99305  0.67367  0.46889  Biso   1.000  C
  C16      1.0000 0.95584  0.99669  0.83612  Biso   1.000  C
  C17      1.0000 0.18605  0.44740  0.54048  Biso   1.000  C
  C18      1.0000 0.52467  0.68283  0.07695  Biso   1.000  C
  C19      1.0000 0.03486  0.50208  0.71069  Biso   1.000  C
  C20      1.0000 0.83253  0.92915  0.00828  Biso   1.000  C
  C21      1.0000 0.50727  0.18077  0.46272  Biso   1.000  C
  C22      1.0000 0.54095  0.51296  0.84008  Biso   1.000  C
  C23      1.0000 0.32135  0.95241  0.52797  Biso   1.000  C
  C24      1.0000 0.00073  0.17155  0.07423  Biso   1.000  C
  C25      1.0000 0.32545  0.06209  0.53516  Biso   1.000  C
  C26      1.0000 0.48835  0.32716  0.07146  Biso   1.000  C
  C27      1.0000 0.07425  0.48675  0.34615  Biso   1.000  C
  C28      1.0000 0.81721  0.03815  0.01517  Biso   1.000  C
  C29      1.0000 0.00865  0.31117  0.46824  Biso   1.000  C
  C30      1.0000 0.57515  0.50552  0.19987  Biso   1.000  C
  C31      1.0000 0.18204  0.55589  0.54176  Biso   1.000  C
  C32      1.0000 0.02363  0.81292  0.07934  Biso   1.000  C
  C33      1.0000 0.43750  0.99502  0.34281  Biso   1.000  C
  C34      1.0000 0.69024  0.53900  0.00988  Biso   1.000  C
  C35      1.0000 0.50983  0.82391  0.46976  Biso   1.000  C
  C36      1.0000 0.94475  0.97550  0.19438  Biso   1.000  C
  C37      1.0000 0.68311  0.94819  0.50831  Biso   1.000  C
  C38      1.0000 0.51104  0.68358  0.96982  Biso   1.000  C
  C39      1.0000 0.92829  0.50378  0.69756  Biso   1.000  C
  C40      1.0000 0.18959  0.95250  0.03013  Biso   1.000  C
  C41      1.0000 0.00571  0.67910  0.57877  Biso   1.000  C
  C42      1.0000 0.43063  0.50446  0.84161  Biso   1.000  C
  C43      1.0000 0.82025  0.44760  0.50036  Biso   1.000  C
  C44      1.0000 0.98046  0.17097  0.96562  Biso   1.000  C
  C45      1.0000 0.56361  0.99081  0.69381  Biso   1.000  C
  C46      1.0000 0.31157  0.46031  0.02730  Biso   1.000  C
  C47      1.0000 0.50171  0.18254  0.57177  Biso   1.000  C
  C48      1.0000 0.06117  0.01278  0.84399  Biso   1.000  C
  C49      1.0000 0.00232  0.05600  0.83859  Biso   1.000  C
  C50      1.0000 0.82531  0.97702  0.06373  Biso   1.000  C
  C51      1.0000 0.06950  0.82281  0.01410  Biso   1.000  C
  C52      1.0000 0.52912  0.05944  0.70053  Biso   1.000  C
  C53      1.0000 0.31675  0.01237  0.47736  Biso   1.000  C
  C54      1.0000 0.55752  0.82477  0.53292  Biso   1.000  C
  C55      1.0000 0.47906  0.56313  0.84511  Biso   1.000  C
  C56      1.0000 0.69271  0.48321  0.06185  Biso   1.000  C
  C57      1.0000 0.43807  0.33269  0.01437  Biso   1.000  C
  C58      1.0000 0.98962  0.55591  0.70658  Biso   1.000  C
  C59      1.0000 0.18677  0.49904  0.48776  Biso   1.000  C
  C60      1.0000 0.94582  0.31834  0.51462  Biso   1.000  C
  C61      1.0000 0.01157  0.93686  0.20519  Biso   1.000  C
  C62      1.0000 0.18541  0.00491  0.97364  Biso   1.000  C
  C63      1.0000 0.93725  0.17106  0.02498  Biso   1.000  C
  C64      1.0000 0.49357  0.94145  0.33771  Biso   1.000  C
  C65      1.0000 0.68917  0.00220  0.55981  Biso   1.000  C
  C66      1.0000 0.45299  0.18470  0.52120  Biso   1.000  C
  C67      1.0000 0.52712  0.44659  0.20238  Biso   1.000  C
  C68      1.0000 0.31589  0.51826  0.97891  Biso   1.000  C
  C69      1.0000 0.57388  0.67446  0.01586  Biso   1.000  C
  C70      1.0000 0.01572  0.43686  0.34194  Biso   1.000  C
  C71      1.0000 0.80927  0.49303  0.56042  Biso   1.000  C
  C72      1.0000 0.05378  0.67671  0.51821  Biso   1.000  C
  C73      1.0000 0.02681  0.54411  0.34520  Biso   1.000  C
  C74      1.0000 0.32455  0.00602  0.58614  Biso   1.000  C
  C75      1.0000 0.54943  0.31717  0.02199  Biso   1.000  C
  C76      1.0000 0.50973  0.55120  0.20120  Biso   1.000  C
  C77      1.0000 0.82291  0.99156  0.95468  Biso   1.000  C
  C78      1.0000 0.05160  0.31753  0.53048  Biso   1.000  C
  C79      1.0000 0.49368  0.04988  0.33972  Biso   1.000  C
  C80      1.0000 0.17841  0.50470  0.59599  Biso   1.000  C
  C81      1.0000 0.96176  0.81512  0.03748  Biso   1.000  C
  C82      1.0000 0.98443  0.04184  0.19986  Biso   1.000  C
  C83      1.0000 0.67881  0.48959  0.95552  Biso   1.000  C
  C84      1.0000 0.44850  0.82790  0.52116  Biso   1.000  C
  C85      1.0000 0.98450  0.44873  0.70283  Biso   1.000  C
  C86      1.0000 0.68051  0.00112  0.45127  Biso   1.000  C
  C87      1.0000 0.46611  0.68943  0.03133  Biso   1.000  C
  C88      1.0000 0.49381  0.45470  0.83686  Biso   1.000  C
  C89      1.0000 0.18090  0.01034  0.08245  Biso   1.000  C
  C90      1.0000 0.94583  0.67818  0.52970  Biso   1.000  C
  C91      1.0000 0.49668  0.95591  0.70026  Biso   1.000  C
  C92      1.0000 0.82255  0.50956  0.45347  Biso   1.000  C
  C93      1.0000 0.04496  0.17368  0.01037  Biso   1.000  C
  C94      1.0000 0.01944  0.94996  0.83857  Biso   1.000  C
  C95      1.0000 0.32739  0.51311  0.08862  Biso   1.000  C
  C96      1.0000 0.56031  0.17913  0.51437  Biso   1.000  C
  C97      1.0000 0.68694  0.08844  0.49200  Biso   1.000  C
  C98      1.0000 0.52546  0.68156  0.11027  Biso   1.000  C
  C99      1.0000 0.06717  0.49979  0.71514  Biso   1.000  C
  C100     1.0000 0.18228  0.09271  0.02132  Biso   1.000  C
  C101     1.0000 0.99576  0.67252  0.43721  Biso   1.000  C
  C102     1.0000 0.57368  0.51790  0.83873  Biso   1.000  C
  C103     1.0000 0.81564  0.58816  0.52018  Biso   1.000  C
  C104     1.0000 0.00622  0.17170  0.10611  Biso   1.000  C
  C105     1.0000 0.42893  0.02551  0.71166  Biso   1.000  C
  C106     1.0000 0.33272  0.60088  0.03795  Biso   1.000  C
  C107     1.0000 0.50796  0.17965  0.42977  Biso   1.000  C
  C108     1.0000 0.92429  0.99564  0.83082  Biso   1.000  C
  C109     1.0000 0.31985  0.92006  0.52977  Biso   1.000  C
  C110     1.0000 0.50563  0.32391  0.92908  Biso   1.000  C
  C111     1.0000 0.93312  0.49668  0.33684  Biso   1.000  C
  C112     1.0000 0.83247  0.89751  0.01161  Biso   1.000  C
  C113     1.0000 0.98834  0.31785  0.60935  Biso   1.000  C
  C114     1.0000 0.43294  0.48924  0.20792  Biso   1.000  C
  C115     1.0000 0.18402  0.41506  0.54024  Biso   1.000  C
  C116     1.0000 0.99985  0.82547  0.94055  Biso   1.000  C
  C117     1.0000 0.57835  0.99712  0.33162  Biso   1.000  C
  C118     1.0000 0.68064  0.40089  0.00654  Biso   1.000  C
  C119     1.0000 0.49880  0.82602  0.61330  Biso   1.000  C
  C120     1.0000 0.08111  0.01686  0.20529  Biso   1.000  C
  C121     1.0000 0.82180  0.97678  0.09647  Biso   1.000  C
  C122     1.0000 0.10134  0.82493  0.00895  Biso   1.000  C
  C123     1.0000 0.99490  0.08665  0.83955  Biso   1.000  C
  C124     1.0000 0.31426  0.01191  0.44413  Biso   1.000  C
  C125     1.0000 0.58883  0.82213  0.53203  Biso   1.000  C
  C126     1.0000 0.53141  0.09131  0.69940  Biso   1.000  C
  C127     1.0000 0.69558  0.48008  0.09322  Biso   1.000  C
  C128     1.0000 0.40384  0.33320  0.00874  Biso   1.000  C
  C129     1.0000 0.47498  0.59439  0.84473  Biso   1.000  C
  C130     1.0000 0.19303  0.50173  0.45452  Biso   1.000  C
  C131     1.0000 0.91382  0.31891  0.50910  Biso   1.000  C
  C132     1.0000 0.99894  0.58679  0.70689  Biso   1.000  C
  C133     1.0000 0.18538  0.00141  0.94154  Biso   1.000  C
  C134     1.0000 0.90567  0.17128  0.02395  Biso   1.000  C
  C135     1.0000 0.01511  0.90435  0.20717  Biso   1.000  C
  C136     1.0000 0.69023  0.00112  0.59257  Biso   1.000  C
  C137     1.0000 0.41941  0.18819  0.52523  Biso   1.000  C
  C138     1.0000 0.49551  0.90952  0.33739  Biso   1.000  C
  C139     1.0000 0.31314  0.51854  0.94632  Biso   1.000  C
  C140     1.0000 0.60591  0.67251  0.01167  Biso   1.000  C
  C141     1.0000 0.52900  0.41402  0.20079  Biso   1.000  C
  C142     1.0000 0.80693  0.48501  0.59184  Biso   1.000  C
  C143     1.0000 0.08745  0.67727  0.51812  Biso   1.000  C
  C144     1.0000 0.01543  0.40390  0.34062  Biso   1.000  C
  C145     1.0000 0.32755  0.50867  0.12147  Biso   1.000  C
  C146     1.0000 0.08364  0.31886  0.53359  Biso   1.000  C
  C147     1.0000 0.49481  0.08141  0.33919  Biso   1.000  C
  C148     1.0000 0.82757  0.50580  0.42104  Biso   1.000  C
  C149     1.0000 0.58100  0.31421  0.02149  Biso   1.000  C
  C150     1.0000 0.98472  0.07418  0.19995  Biso   1.000  C
  C151     1.0000 0.18047  0.01283  0.11519  Biso   1.000  C
  C152     1.0000 0.41543  0.82715  0.51720  Biso   1.000  C
  C153     1.0000 0.03143  0.57749  0.34583  Biso   1.000  C
  C154     1.0000 0.67990  0.00272  0.41938  Biso   1.000  C
  C155     1.0000 0.92906  0.81186  0.03693  Biso   1.000  C
  C156     1.0000 0.51025  0.58347  0.20231  Biso   1.000  C
  C157     1.0000 0.67609  0.49327  0.92255  Biso   1.000  C
  C158     1.0000 0.91352  0.67886  0.53283  Biso   1.000  C
  C159     1.0000 0.49211  0.92444  0.70215  Biso   1.000  C
  C160     1.0000 0.17373  0.50623  0.62863  Biso   1.000  C
  C161     1.0000 0.43410  0.69133  0.02827  Biso   1.000  C
  C162     1.0000 0.02048  0.91792  0.83967  Biso   1.000  C
  C163     1.0000 0.82444  0.99001  0.92223  Biso   1.000  C
  C164     1.0000 0.59201  0.18062  0.50811  Biso   1.000  C
  C165     1.0000 0.98743  0.41655  0.70511  Biso   1.000  C
  C166     1.0000 0.32848  0.00682  0.61906  Biso   1.000  C
  C167     1.0000 0.07685  0.17633  0.00797  Biso   1.000  C
  C168     1.0000 0.50112  0.42382  0.83524  Biso   1.000  C
  C169     1.0000 0.02238  0.81156  0.11223  Biso   1.000  C
  C170     1.0000 0.09379  0.01899  0.84395  Biso   1.000  C
  C171     1.0000 0.81576  0.06998  0.01345  Biso   1.000  C
  C172     1.0000 0.50963  0.82211  0.43847  Biso   1.000  C
  C173     1.0000 0.59605  0.98540  0.69162  Biso   1.000  C
  C174     1.0000 0.32634  0.09459  0.54158  Biso   1.000  C
  C175     1.0000 0.49675  0.32698  0.10272  Biso   1.000  C
  C176     1.0000 0.39808  0.50040  0.84218  Biso   1.000  C
  C177     1.0000 0.69457  0.57112  0.00432  Biso   1.000  C
  C178     1.0000 0.01465  0.31041  0.43625  Biso   1.000  C
  C179     1.0000 0.89551  0.50349  0.69622  Biso   1.000  C
  C180     1.0000 0.18143  0.58755  0.54149  Biso   1.000  C
  C181     1.0000 0.97114  0.17218  0.93517  Biso   1.000  C
  C182     1.0000 0.91140  0.97124  0.19444  Biso   1.000  C
  C183     1.0000 0.19115  0.92035  0.03265  Biso   1.000  C
  C184     1.0000 0.50162  0.18260  0.60419  Biso   1.000  C
  C185     1.0000 0.40639  0.99786  0.34345  Biso   1.000  C
  C186     1.0000 0.68282  0.91544  0.50663  Biso   1.000  C
  C187     1.0000 0.50348  0.68599  0.93963  Biso   1.000  C
  C188     1.0000 0.60574  0.50284  0.19688  Biso   1.000  C
  C189     1.0000 0.30909  0.42750  0.02419  Biso   1.000  C
  C190     1.0000 0.00954  0.68003  0.60986  Biso   1.000  C
  C191     1.0000 0.10577  0.48530  0.34888  Biso   1.000  C
  C192     1.0000 0.81899  0.41470  0.50154  Biso   1.000  C
  C193     1.0000 0.85054  0.99588  0.90550  Biso   1.000  C
  C194     1.0000 0.91302  0.83920  0.03240  Biso   1.000  C
  C195     1.0000 0.01591  0.90311  0.86772  Biso   1.000  C
  C196     1.0000 0.35691  0.01171  0.63249  Biso   1.000  C
  C197     1.0000 0.39953  0.85356  0.51810  Biso   1.000  C
  C198     1.0000 0.49285  0.90604  0.67498  Biso   1.000  C
  C199     1.0000 0.64614  0.49708  0.91246  Biso   1.000  C
  C200     1.0000 0.59926  0.33898  0.01842  Biso   1.000  C
  C201     1.0000 0.50204  0.40700  0.86366  Biso   1.000  C
  C202     1.0000 0.14495  0.50488  0.64114  Biso   1.000  C
  C203     1.0000 0.09894  0.34757  0.53768  Biso   1.000  C
  C204     1.0000 0.99005  0.40025  0.67804  Biso   1.000  C
  C205     1.0000 0.15336  0.00964  0.13082  Biso   1.000  C
  C206     1.0000 0.09721  0.15264  0.01087  Biso   1.000  C
  C207     1.0000 0.99094  0.09029  0.17344  Biso   1.000  C
  C208     1.0000 0.65177  0.00166  0.40427  Biso   1.000  C
  C209     1.0000 0.60725  0.15267  0.50573  Biso   1.000  C
  C210     1.0000 0.49381  0.09837  0.36631  Biso   1.000  C
  C211     1.0000 0.35621  0.50467  0.13538  Biso   1.000  C
  C212     1.0000 0.41622  0.66593  0.02822  Biso   1.000  C
  C213     1.0000 0.51029  0.59932  0.17471  Biso   1.000  C
  C214     1.0000 0.85656  0.50499  0.40861  Biso   1.000  C
  C215     1.0000 0.89542  0.65287  0.52887  Biso   1.000  C
  C216     1.0000 0.02570  0.59364  0.37352  Biso   1.000  C
  C217     1.0000 0.10815  0.01284  0.87157  Biso   1.000  C
  C218     1.0000 0.84185  0.08876  0.01753  Biso   1.000  C
  C219     1.0000 0.02010  0.83798  0.13057  Biso   1.000  C
  C220     1.0000 0.61303  0.98823  0.66366  Biso   1.000  C
  C221     1.0000 0.35218  0.11120  0.53323  Biso   1.000  C
  C222     1.0000 0.50694  0.84825  0.42113  Biso   1.000  C
  C223     1.0000 0.38350  0.50690  0.86901  Biso   1.000  C
  C224     1.0000 0.66801  0.58851  0.00756  Biso   1.000  C
  C225     1.0000 0.50443  0.35385  0.11965  Biso   1.000  C
  C226     1.0000 0.88224  0.49897  0.66724  Biso   1.000  C
  C227     1.0000 0.15440  0.60290  0.53724  Biso   1.000  C
  C228     1.0000 0.01804  0.33890  0.41992  Biso   1.000  C
  C229     1.0000 0.89629  0.97383  0.16610  Biso   1.000  C
  C230     1.0000 0.16523  0.90415  0.02532  Biso   1.000  C
  C231     1.0000 0.97500  0.14636  0.91666  Biso   1.000  C
  C232     1.0000 0.39288  0.00378  0.37205  Biso   1.000  C
  C233     1.0000 0.65655  0.89713  0.51116  Biso   1.000  C
  C234     1.0000 0.50875  0.15636  0.61844  Biso   1.000  C
  C235     1.0000 0.61916  0.49607  0.16775  Biso   1.000  C
  C236     1.0000 0.33631  0.41073  0.02000  Biso   1.000  C
  C237     1.0000 0.49802  0.65874  0.92420  Biso   1.000  C
  C238     1.0000 0.11828  0.49008  0.37838  Biso   1.000  C
  C239     1.0000 0.84594  0.39992  0.50294  Biso   1.000  C
  C240     1.0000 0.00772  0.65377  0.62759  Biso   1.000  C
  C241     1.0000 0.59025  0.50992  0.86442  Biso   1.000  C
  C242     1.0000 0.84311  0.60366  0.52389  Biso   1.000  C
  C243     1.0000 0.49191  0.85321  0.62689  Biso   1.000  C
  C244     1.0000 0.08510  0.50123  0.68878  Biso   1.000  C
  C245     1.0000 0.36168  0.61413  0.03271  Biso   1.000  C
  C246     1.0000 0.00532  0.85148  0.92252  Biso   1.000  C
  C247     1.0000 0.90498  0.99942  0.85613  Biso   1.000  C
  C248     1.0000 0.66112  0.10271  0.49635  Biso   1.000  C
  C249     1.0000 0.98663  0.34641  0.62362  Biso   1.000  C
  C250     1.0000 0.41309  0.02060  0.68557  Biso   1.000  C
  C251     1.0000 0.15405  0.10691  0.02122  Biso   1.000  C
  C252     1.0000 0.50309  0.35159  0.91471  Biso   1.000  C
  C253     1.0000 0.41422  0.49409  0.18249  Biso   1.000  C
  C254     1.0000 0.15517  0.40010  0.53851  Biso   1.000  C
  C255     1.0000 0.50452  0.15284  0.41451  Biso   1.000  C
  C256     1.0000 0.91421  0.49975  0.36302  Biso   1.000  C
  C257     1.0000 0.65284  0.38596  0.00693  Biso   1.000  C
  C258     1.0000 0.00334  0.14282  0.12200  Biso   1.000  C
  C259     1.0000 0.09964  0.01626  0.17934  Biso   1.000  C
  C260     1.0000 0.34572  0.90458  0.52688  Biso   1.000  C
  C261     1.0000 0.00416  0.64482  0.42349  Biso   1.000  C
  C262     1.0000 0.59655  0.00141  0.35719  Biso   1.000  C
  C263     1.0000 0.85987  0.88465  0.02018  Biso   1.000  C
  C264     1.0000 0.51946  0.65520  0.12584  Biso   1.000  C
  C265     1.0000 0.98698  0.10164  0.86621  Biso   1.000  C
  C266     1.0000 0.84900  0.97851  0.11297  Biso   1.000  C
  C267     1.0000 0.11674  0.85218  0.01282  Biso   1.000  C
  C268     1.0000 0.52730  0.10745  0.67175  Biso   1.000  C
  C269     1.0000 0.34222  0.01080  0.42829  Biso   1.000  C
  C270     1.0000 0.60514  0.84734  0.52267  Biso   1.000  C
  C271     1.0000 0.47903  0.61097  0.87061  Biso   1.000  C
  C272     1.0000 0.66945  0.48454  0.11076  Biso   1.000  C
  C273     1.0000 0.38835  0.35992  0.01274  Biso   1.000  C
  C274     1.0000 0.00482  0.60201  0.67953  Biso   1.000  C
  C275     1.0000 0.16767  0.49855  0.43525  Biso   1.000  C
  C276     1.0000 0.89830  0.34638  0.50434  Biso   1.000  C
  C277     1.0000 0.01685  0.88863  0.18084  Biso   1.000  C
  C278     1.0000 0.15860  0.00429  0.92596  Biso   1.000  C
  C279     1.0000 0.89177  0.14303  0.02468  Biso   1.000  C
  C280     1.0000 0.49706  0.89463  0.36416  Biso   1.000  C
  C281     1.0000 0.66367  0.99999  0.61002  Biso   1.000  C
  C282     1.0000 0.40163  0.16238  0.52753  Biso   1.000  C
  C283     1.0000 0.52226  0.40013  0.17332  Biso   1.000  C
  C284     1.0000 0.33836  0.51407  0.92717  Biso   1.000  C
  C285     1.0000 0.61907  0.64394  0.00827  Biso   1.000  C
  C286     1.0000 0.01677  0.38695  0.36762  Biso   1.000  C
  C287     1.0000 0.83347  0.48769  0.61027  Biso   1.000  C
  C288     1.0000 0.10324  0.65132  0.52468  Biso   1.000  C
  C289     1.0000 0.34580  0.87223  0.52749  Biso   1.000  C
  C290     1.0000 0.50525  0.35236  0.88278  Biso   1.000  C
  C291     1.0000 0.88226  0.49876  0.35685  Biso   1.000  C
  C292     1.0000 0.86031  0.85314  0.02363  Biso   1.000  C
  C293     1.0000 0.98429  0.34851  0.65489  Biso   1.000  C
  C294     1.0000 0.38196  0.49440  0.18648  Biso   1.000  C
  C295     1.0000 0.15382  0.36929  0.53491  Biso   1.000  C
  C296     1.0000 0.00803  0.85020  0.89098  Biso   1.000  C
  C297     1.0000 0.62674  0.99770  0.35323  Biso   1.000  C
  C298     1.0000 0.65211  0.35464  0.00905  Biso   1.000  C
  C299     1.0000 0.49328  0.85349  0.65883  Biso   1.000  C
  C300     1.0000 0.13088  0.01760  0.18264  Biso   1.000  C
  C301     1.0000 0.66107  0.13462  0.49568  Biso   1.000  C
  C302     1.0000 0.51696  0.65357  0.15752  Biso   1.000  C
  C303     1.0000 0.11602  0.50420  0.69186  Biso   1.000  C
  C304     1.0000 0.15165  0.13854  0.01932  Biso   1.000  C
  C305     1.0000 0.01004  0.64626  0.39206  Biso   1.000  C
  C306     1.0000 0.62187  0.50758  0.86072  Biso   1.000  C
  C307     1.0000 0.84216  0.63402  0.52665  Biso   1.000  C
  C308     1.0000 0.00114  0.14317  0.15376  Biso   1.000  C
  C309     1.0000 0.38226  0.01816  0.68590  Biso   1.000  C
  C310     1.0000 0.36307  0.64559  0.03098  Biso   1.000  C
  C311     1.0000 0.50328  0.15149  0.38377  Biso   1.000  C
  C312     1.0000 0.87423  0.99317  0.85338  Biso   1.000  C
  C313     1.0000 0.17011  0.49728  0.40398  Biso   1.000  C
  C314     1.0000 0.37159  0.16447  0.53221  Biso   1.000  C
  C315     1.0000 0.51726  0.36904  0.17268  Biso   1.000  C
  C316     1.0000 0.67166  0.48922  0.14216  Biso   1.000  C
  C317     1.0000 0.86027  0.14174  0.02178  Biso   1.000  C
  C318     1.0000 0.01778  0.35558  0.36517  Biso   1.000  C
  C319     1.0000 0.33980  0.00983  0.39647  Biso   1.000  C
  C320     1.0000 0.13432  0.65330  0.52428  Biso   1.000  C
  C321     1.0000 0.01826  0.85751  0.18351  Biso   1.000  C
  C322     1.0000 0.84447  0.97661  0.14486  Biso   1.000  C
  C323     1.0000 0.65199  0.64261  0.00632  Biso   1.000  C
  C324     1.0000 0.50209  0.86462  0.36421  Biso   1.000  C
  C325     1.0000 0.83142  0.49147  0.64119  Biso   1.000  C
  C326     1.0000 0.63669  0.84574  0.52172  Biso   1.000  C
  C327     1.0000 0.48494  0.64163  0.87095  Biso   1.000  C
  C328     1.0000 0.33319  0.50795  0.89659  Biso   1.000  C
  C329     1.0000 0.14900  0.85135  0.01469  Biso   1.000  C
  C330     1.0000 0.01020  0.63376  0.68110  Biso   1.000  C
  C331     1.0000 0.66544  0.99350  0.64092  Biso   1.000  C
  C332     1.0000 0.86755  0.34603  0.50513  Biso   1.000  C
  C333     1.0000 0.98269  0.13274  0.86436  Biso   1.000  C
  C334     1.0000 0.15957  0.00311  0.89420  Biso   1.000  C
  C335     1.0000 0.35721  0.35874  0.01281  Biso   1.000  C
  C336     1.0000 0.52018  0.13754  0.67282  Biso   1.000  C
  C337     1.0000 0.64426  0.50323  0.88101  Biso   1.000  C
  C338     1.0000 0.86388  0.65574  0.52872  Biso   1.000  C
  C339     1.0000 0.49336  0.87582  0.67974  Biso   1.000  C
  C340     1.0000 0.13996  0.50584  0.67189  Biso   1.000  C
  C341     1.0000 0.38479  0.66659  0.02863  Biso   1.000  C
  C342     1.0000 0.01176  0.87159  0.86810  Biso   1.000  C
  C343     1.0000 0.85070  0.99275  0.87339  Biso   1.000  C
  C344     1.0000 0.63870  0.15488  0.49891  Biso   1.000  C
  C345     1.0000 0.98729  0.36902  0.67710  Biso   1.000  C
  C346     1.0000 0.35990  0.01346  0.66491  Biso   1.000  C
  C347     1.0000 0.12826  0.15793  0.01499  Biso   1.000  C
  C348     1.0000 0.50464  0.37529  0.86212  Biso   1.000  C
  C349     1.0000 0.35803  0.49792  0.16670  Biso   1.000  C
  C350     1.0000 0.13081  0.34808  0.53457  Biso   1.000  C
  C351     1.0000 0.49986  0.12907  0.36304  Biso   1.000  C
  C352     1.0000 0.85893  0.50172  0.37745  Biso   1.000  C
  C353     1.0000 0.62981  0.33370  0.01212  Biso   1.000  C
  C354     1.0000 0.99642  0.12120  0.17553  Biso   1.000  C
  C355     1.0000 0.15397  0.01398  0.16182  Biso   1.000  C
  C356     1.0000 0.36731  0.85170  0.52342  Biso   1.000  C
  C357     1.0000 0.01976  0.62514  0.37117  Biso   1.000  C
  C358     1.0000 0.64980  0.99886  0.37308  Biso   1.000  C
  C359     1.0000 0.88259  0.83383  0.02962  Biso   1.000  C
  C360     1.0000 0.51267  0.63037  0.17613  Biso   1.000  C
  C361     1.0000 0.97668  0.15249  0.88598  Biso   1.000  C
  C362     1.0000 0.86551  0.97424  0.16725  Biso   1.000  C
  C363     1.0000 0.16842  0.87377  0.02087  Biso   1.000  C
  C364     1.0000 0.51208  0.15833  0.65138  Biso   1.000  C
  C365     1.0000 0.36068  0.00648  0.37360  Biso   1.000  C
  C366     1.0000 0.65832  0.86687  0.51640  Biso   1.000  C
  C367     1.0000 0.49114  0.66151  0.89341  Biso   1.000  C
  C368     1.0000 0.65136  0.49373  0.16587  Biso   1.000  C
  C369     1.0000 0.33544  0.38006  0.01577  Biso   1.000  C
  C370     1.0000 0.01066  0.65481  0.65959  Biso   1.000  C
  C371     1.0000 0.14952  0.49280  0.38152  Biso   1.000  C
  C372     1.0000 0.84661  0.36792  0.50422  Biso   1.000  C
  C373     1.0000 0.01940  0.83618  0.16243  Biso   1.000  C
  C374     1.0000 0.13906  0.00828  0.87173  Biso   1.000  C
  C375     1.0000 0.83957  0.12035  0.01876  Biso   1.000  C
  C376     1.0000 0.50494  0.84471  0.38787  Biso   1.000  C
  C377     1.0000 0.64504  0.98745  0.66277  Biso   1.000  C
  C378     1.0000 0.35053  0.14219  0.53452  Biso   1.000  C
  C379     1.0000 0.50928  0.35008  0.14977  Biso   1.000  C
  C380     1.0000 0.35217  0.50357  0.87288  Biso   1.000  C
  C381     1.0000 0.67205  0.62043  0.00510  Biso   1.000  C
  C382     1.0000 0.01817  0.33582  0.38791  Biso   1.000  C
  C383     1.0000 0.85090  0.49489  0.66535  Biso   1.000  C
  C384     1.0000 0.15600  0.63259  0.52986  Biso   1.000  C
  C385     1.0000 0.17758  0.15709  0.01659  Biso   1.000  C
  C386     1.0000 0.00252  0.16983  0.16995  Biso   1.000  C
  C387     1.0000 0.14518  0.01966  0.21077  Biso   1.000  C
  C388     1.0000 0.68712  0.15087  0.49141  Biso   1.000  C
  C389     1.0000 0.50476  0.17737  0.36554  Biso   1.000  C
  C390     1.0000 0.64018  0.98938  0.32735  Biso   1.000  C
  C391     1.0000 0.33565  0.66356  0.03201  Biso   1.000  C
  C392     1.0000 0.51839  0.67986  0.17369  Biso   1.000  C
  C393     1.0000 0.36805  0.48927  0.21442  Biso   1.000  C
  C394     1.0000 0.81667  0.65155  0.52629  Biso   1.000  C
  C395     1.0000 0.00693  0.67153  0.37508  Biso   1.000  C
  C396     1.0000 0.87044  0.49567  0.32840  Biso   1.000  C
  C397     1.0000 0.83543  0.83537  0.02011  Biso   1.000  C
  C398     1.0000 0.00417  0.82393  0.87611  Biso   1.000  C
  C399     1.0000 0.86176  0.98674  0.82552  Biso   1.000  C
  C400     1.0000 0.31936  0.85498  0.53173  Biso   1.000  C
  C401     1.0000 0.49632  0.82827  0.67680  Biso   1.000  C
  C402     1.0000 0.36705  0.01763  0.71445  Biso   1.000  C
  C403     1.0000 0.67762  0.33703  0.00886  Biso   1.000  C
  C404     1.0000 0.50626  0.32636  0.86580  Biso   1.000  C
  C405     1.0000 0.63542  0.51286  0.83370  Biso   1.000  C
  C406     1.0000 0.18030  0.35301  0.53077  Biso   1.000  C
  C407     1.0000 0.98079  0.32138  0.67162  Biso   1.000  C
  C408     1.0000 0.12810  0.50342  0.72048  Biso   1.000  C
  C409     1.0000 0.15549  0.00694  0.84613  Biso   1.000  C
  C410     1.0000 0.81233  0.13334  0.01599  Biso   1.000  C
  C411     1.0000 0.01885  0.80938  0.17798  Biso   1.000  C
  C412     1.0000 0.66117  0.98034  0.68816  Biso   1.000  C
  C413     1.0000 0.32389  0.15648  0.54116  Biso   1.000  C
  C414     1.0000 0.50705  0.81757  0.37447  Biso   1.000  C
  C415     1.0000 0.33337  0.49715  0.84886  Biso   1.000  C
  C416     1.0000 0.70040  0.63393  0.00194  Biso   1.000  C
  C417     1.0000 0.50968  0.32203  0.16417  Biso   1.000  C
  C418     1.0000 0.83292  0.49928  0.69047  Biso   1.000  C
  C419     1.0000 0.18271  0.64964  0.52658  Biso   1.000  C
  C420     1.0000 0.01856  0.30878  0.37274  Biso   1.000  C
  C421     1.0000 0.84798  0.97194  0.19429  Biso   1.000  C
  C422     1.0000 0.19535  0.85957  0.02415  Biso   1.000  C
  C423     1.0000 0.97113  0.17888  0.87135  Biso   1.000  C
  C424     1.0000 0.34308  0.00387  0.34742  Biso   1.000  C
  C425     1.0000 0.68538  0.85256  0.51496  Biso   1.000  C
  C426     1.0000 0.50753  0.18458  0.66686  Biso   1.000  C
  C427     1.0000 0.66959  0.49457  0.19100  Biso   1.000  C
  C428     1.0000 0.30771  0.36458  0.01513  Biso   1.000  C
  C429     1.0000 0.49488  0.68836  0.87890  Biso   1.000  C
  C430     1.0000 0.16900  0.49058  0.35582  Biso   1.000  C
  C431     1.0000 0.81991  0.35228  0.50475  Biso   1.000  C
  C432     1.0000 0.01392  0.68164  0.67384  Biso   1.000  C
  C433     1.0000 0.98224  0.14997  0.83782  Biso   1.000  C
  C434     1.0000 0.81711  0.97674  0.16017  Biso   1.000  C
  C435     1.0000 0.16499  0.82481  0.01522  Biso   1.000  C
  C436     1.0000 0.51882  0.15291  0.69978  Biso   1.000  C
  C437     1.0000 0.31239  0.01020  0.38150  Biso   1.000  C
  C438     1.0000 0.65137  0.81976  0.52558  Biso   1.000  C
  C439     1.0000 0.48450  0.65753  0.84389  Biso   1.000  C
  C440     1.0000 0.69858  0.48833  0.15586  Biso   1.000  C
  C441     1.0000 0.34052  0.33267  0.00821  Biso   1.000  C
  C442     1.0000 0.01263  0.64864  0.70764  Biso   1.000  C
  C443     1.0000 0.19876  0.49867  0.39131  Biso   1.000  C
  C444     1.0000 0.85205  0.31951  0.50748  Biso   1.000  C
  C445     1.0000 0.01665  0.84286  0.21096  Biso   1.000  C
  C446     1.0000 0.18713  0.99975  0.87916  Biso   1.000  C
  C447     1.0000 0.84304  0.16774  0.02161  Biso   1.000  C
  C448     1.0000 0.50008  0.84696  0.33831  Biso   1.000  C
  C449     1.0000 0.69250  0.98851  0.65531  Biso   1.000  C
  C450     1.0000 0.35614  0.19034  0.53616  Biso   1.000  C
  C451     1.0000 0.52107  0.35169  0.19843  Biso   1.000  C
  C452     1.0000 0.30427  0.50668  0.88472  Biso   1.000  C
  C453     1.0000 0.66911  0.66848  0.00408  Biso   1.000  C
  C454     1.0000 0.02120  0.33978  0.33782  Biso   1.000  C
  C455     1.0000 0.80266  0.49181  0.65495  Biso   1.000  C
  C456     1.0000 0.15028  0.68057  0.51747  Biso   1.000  C
  C457     1.0000 0.02084  0.64065  0.34374  Biso   1.000  C
  C458     1.0000 0.33400  0.01090  0.68328  Biso   1.000  C
  C459     1.0000 0.64291  0.30564  0.01211  Biso   1.000  C
  C460     1.0000 0.51211  0.64543  0.20271  Biso   1.000  C
  C461     1.0000 0.82591  0.98580  0.85648  Biso   1.000  C
  C462     1.0000 0.14678  0.32086  0.53110  Biso   1.000  C
  C463     1.0000 0.49948  0.14484  0.33538  Biso   1.000  C
  C464     1.0000 0.16516  0.50794  0.69040  Biso   1.000  C
  C465     1.0000 0.86916  0.80508  0.03192  Biso   1.000  C
  C466     1.0000 0.99556  0.13621  0.20230  Biso   1.000  C
  C467     1.0000 0.67015  0.50445  0.86234  Biso   1.000  C
  C468     1.0000 0.35222  0.82443  0.52624  Biso   1.000  C
  C469     1.0000 0.98490  0.35321  0.70434  Biso   1.000  C
  C470     1.0000 0.67641  0.99212  0.35699  Biso   1.000  C
  C471     1.0000 0.36967  0.69463  0.02467  Biso   1.000  C
  C472     1.0000 0.50423  0.35969  0.83329  Biso   1.000  C
  C473     1.0000 0.18031  0.01733  0.17800  Biso   1.000  C
  C474     1.0000 0.84905  0.68204  0.53175  Biso   1.000  C
  C475     1.0000 0.49401  0.86279  0.70745  Biso   1.000  C
  C476     1.0000 0.83357  0.49917  0.35878  Biso   1.000  C
  C477     1.0000 0.14195  0.18655  0.01008  Biso   1.000  C
  C478     1.0000 0.01159  0.85564  0.84107  Biso   1.000  C
  C479     1.0000 0.33312  0.49658  0.18524  Biso   1.000  C
  C480     1.0000 0.65418  0.18185  0.49579  Biso   1.000  C
  C481     1.0000 0.36803  0.79866  0.52277  Biso   1.000  C
  C482     1.0000 0.50194  0.37790  0.80663  Biso   1.000  C
  C483     1.0000 0.80468  0.49798  0.37195  Biso   1.000  C
  C484     1.0000 0.88633  0.77934  0.03512  Biso   1.000  C
  C485     1.0000 0.98240  0.36867  0.73188  Biso   1.000  C
  C486     1.0000 0.30475  0.50535  0.17268  Biso   1.000  C
  C487     1.0000 0.13009  0.29337  0.53127  Biso   1.000  C
  C488     1.0000 0.02057  0.87096  0.81354  Biso   1.000  C
  C489     1.0000 0.70522  0.99422  0.37082  Biso   1.000  C
  C490     1.0000 0.62448  0.28024  0.01590  Biso   1.000  C
  C491     1.0000 0.49119  0.87951  0.73220  Biso   1.000  C
  C492     1.0000 0.20834  0.02160  0.16199  Biso   1.000  C
  C493     1.0000 0.63809  0.20901  0.50064  Biso   1.000  C
  C494     1.0000 0.50872  0.62933  0.22931  Biso   1.000  C
  C495     1.0000 0.19494  0.50800  0.67789  Biso   1.000  C
  C496     1.0000 0.12200  0.21128  0.00602  Biso   1.000  C
  C497     1.0000 0.02910  0.62630  0.31660  Biso   1.000  C
  C498     1.0000 0.70044  0.49893  0.87358  Biso   1.000  C
  C499     1.0000 0.86613  0.70691  0.53907  Biso   1.000  C
  C500     1.0000 0.98975  0.11940  0.23016  Biso   1.000  C
  C501     1.0000 0.30711  0.00427  0.66861  Biso   1.000  C
  C502     1.0000 0.38806  0.72116  0.02283  Biso   1.000  C
  C503     1.0000 0.49726  0.12878  0.30809  Biso   1.000  C
  C504     1.0000 0.79882  0.98220  0.87199  Biso   1.000  C
  C505     1.0000 0.61871  0.52287  0.80932  Biso   1.000  C
  C506     1.0000 0.78873  0.63801  0.52049  Biso   1.000  C
  C507     1.0000 0.50243  0.80210  0.66184  Biso   1.000  C
  C508     1.0000 0.11021  0.50038  0.74736  Biso   1.000  C
  C509     1.0000 0.30714  0.64960  0.03768  Biso   1.000  C
  C510     1.0000 0.99653  0.79724  0.89366  Biso   1.000  C
  C511     1.0000 0.88088  0.98210  0.80011  Biso   1.000  C
  C512     1.0000 0.71379  0.13552  0.48600  Biso   1.000  C
  C513     1.0000 0.97918  0.29195  0.65772  Biso   1.000  C
  C514     1.0000 0.38231  0.02235  0.74191  Biso   1.000  C
  C515     1.0000 0.20549  0.14244  0.01811  Biso   1.000  C
  C516     1.0000 0.50732  0.29884  0.88101  Biso   1.000  C
  C517     1.0000 0.38660  0.48124  0.23958  Biso   1.000  C
  C518     1.0000 0.20754  0.36926  0.52638  Biso   1.000  C
  C519     1.0000 0.50782  0.20591  0.38086  Biso   1.000  C
  C520     1.0000 0.89047  0.49013  0.30276  Biso   1.000  C
  C521     1.0000 0.70521  0.35147  0.00368  Biso   1.000  C
  C522     1.0000 0.00558  0.19816  0.15363  Biso   1.000  C
  C523     1.0000 0.12665  0.02279  0.23607  Biso   1.000  C
  C524     1.0000 0.29260  0.87139  0.53835  Biso   1.000  C
  C525     1.0000 0.99626  0.69726  0.39007  Biso   1.000  C
  C526     1.0000 0.62197  0.98272  0.30203  Biso   1.000  C
  C527     1.0000 0.80863  0.84835  0.01241  Biso   1.000  C
  C528     1.0000 0.52185  0.70821  0.15769  Biso   1.000  C
  C529     1.0000 0.78528  0.11639  0.01412  Biso   1.000  C
  C530     1.0000 0.01887  0.78290  0.16040  Biso   1.000  C
  C531     1.0000 0.14128  0.01301  0.81702  Biso   1.000  C
  C532     1.0000 0.29947  0.13903  0.55339  Biso   1.000  C
  C533     1.0000 0.51101  0.79136  0.39249  Biso   1.000  C
  C534     1.0000 0.64449  0.97419  0.71572  Biso   1.000  C
  C535     1.0000 0.72469  0.61585  0.99610  Biso   1.000  C
  C536     1.0000 0.50323  0.29527  0.14798  Biso   1.000  C
  C537     1.0000 0.34665  0.48926  0.81957  Biso   1.000  C
  C538     1.0000 0.21139  0.63510  0.53019  Biso   1.000  C
  C539     1.0000 0.01853  0.28234  0.38924  Biso   1.000  C
  C540     1.0000 0.84650  0.50623  0.71910  Biso   1.000  C
  C541     1.0000 0.22144  0.87476  0.03241  Biso   1.000  C
  C542     1.0000 0.96356  0.20363  0.89037  Biso   1.000  C
  C543     1.0000 0.86159  0.96457  0.22293  Biso   1.000  C
  C544     1.0000 0.71120  0.87041  0.50855  Biso   1.000  C
  C545     1.0000 0.49826  0.21028  0.65158  Biso   1.000  C
  C546     1.0000 0.35754  0.99622  0.31975  Biso   1.000  C
  C547     1.0000 0.28107  0.37974  0.02054  Biso   1.000  C
  C548     1.0000 0.49998  0.71568  0.89452  Biso   1.000  C
  C549     1.0000 0.65673  0.49907  0.21990  Biso   1.000  C
  C550     1.0000 0.79222  0.36798  0.50517  Biso   1.000  C
  C551     1.0000 0.01466  0.70832  0.65728  Biso   1.000  C
  C552     1.0000 0.15769  0.48711  0.32623  Biso   1.000  C
  C553     1.0000 0.98905  0.13486  0.81127  Biso   1.000  C
  C554     1.0000 0.79095  0.98044  0.14153  Biso   1.000  C
  C555     1.0000 0.14903  0.79757  0.01082  Biso   1.000  C
  C556     1.0000 0.52573  0.13704  0.72606  Biso   1.000  C
  C557     1.0000 0.28537  0.01464  0.39821  Biso   1.000  C
  C558     1.0000 0.63486  0.79452  0.53608  Biso   1.000  C
  C559     1.0000 0.47639  0.64206  0.81693  Biso   1.000  C
  C560     1.0000 0.72498  0.48250  0.13923  Biso   1.000  C
  C561     1.0000 0.35644  0.30625  0.00150  Biso   1.000  C
  C562     1.0000 0.00685  0.63339  0.73405  Biso   1.000  C
  C563     1.0000 0.22499  0.50573  0.40900  Biso   1.000  C
  C564     1.0000 0.86594  0.29158  0.51228  Biso   1.000  C
  C565     1.0000 0.01431  0.85961  0.23876  Biso   1.000  C
  C566     1.0000 0.21299  0.99232  0.89578  Biso   1.000  C
  C567     1.0000 0.85809  0.19540  0.02321  Biso   1.000  C
  C568     1.0000 0.49888  0.86366  0.31041  Biso   1.000  C
  C569     1.0000 0.72005  0.99317  0.63985  Biso   1.000  C
  C570     1.0000 0.37457  0.21787  0.53224  Biso   1.000  C
  C571     1.0000 0.52808  0.36563  0.22598  Biso   1.000  C
  C572     1.0000 0.27899  0.51363  0.90222  Biso   1.000  C
  C573     1.0000 0.65545  0.69722  0.00618  Biso   1.000  C
  C574     1.0000 0.02257  0.35745  0.31149  Biso   1.000  C
  C575     1.0000 0.77681  0.48312  0.63761  Biso   1.000  C
  C576     1.0000 0.13622  0.70593  0.50735  Biso   1.000  C
  C577     1.0000 0.30175  0.51168  0.14073  Biso   1.000  C
  C578     1.0000 0.09858  0.29221  0.53265  Biso   1.000  C
  C579     1.0000 0.49472  0.09677  0.31096  Biso   1.000  C
  C580     1.0000 0.80131  0.50101  0.40420  Biso   1.000  C
  C581     1.0000 0.59366  0.28502  0.02164  Biso   1.000  C
  C582     1.0000 0.98429  0.08814  0.22857  Biso   1.000  C
  C583     1.0000 0.20657  0.01963  0.13079  Biso   1.000  C
  C584     1.0000 0.39892  0.79957  0.51671  Biso   1.000  C
  C585     1.0000 0.03448  0.59485  0.31887  Biso   1.000  C
  C586     1.0000 0.70715  0.99973  0.40214  Biso   1.000  C
  C587     1.0000 0.91670  0.78266  0.03855  Biso   1.000  C
  C588     1.0000 0.50657  0.59752  0.22917  Biso   1.000  C
  C589     1.0000 0.70333  0.49396  0.90534  Biso   1.000  C
  C590     1.0000 0.89899  0.70610  0.53837  Biso   1.000  C
  C591     1.0000 0.49242  0.91123  0.73020  Biso   1.000  C
  C592     1.0000 0.19857  0.50662  0.64653  Biso   1.000  C
  C593     1.0000 0.42042  0.71891  0.02530  Biso   1.000  C
  C594     1.0000 0.02422  0.90204  0.81294  Biso   1.000  C
  C595     1.0000 0.79955  0.98102  0.90528  Biso   1.000  C
  C596     1.0000 0.60697  0.20805  0.50508  Biso   1.000  C
  C597     1.0000 0.98634  0.40121  0.73185  Biso   1.000  C
  C598     1.0000 0.30215  0.00470  0.63826  Biso   1.000  C
  C599     1.0000 0.09041  0.20661  0.00617  Biso   1.000  C
  C600     1.0000 0.50116  0.40893  0.80817  Biso   1.000  C
  C601     1.0000 0.21197  0.99421  0.92634  Biso   1.000  C
  C602     1.0000 0.88942  0.19777  0.02472  Biso   1.000  C
  C603     1.0000 0.01151  0.88940  0.23608  Biso   1.000  C
  C604     1.0000 0.71902  0.99959  0.60860  Biso   1.000  C
  C605     1.0000 0.40637  0.21684  0.52792  Biso   1.000  C
  C606     1.0000 0.49853  0.89482  0.31013  Biso   1.000  C
  C607     1.0000 0.28307  0.51776  0.93421  Biso   1.000  C
  C608     1.0000 0.62463  0.69943  0.01055  Biso   1.000  C
  C609     1.0000 0.53396  0.39696  0.22629  Biso   1.000  C
  C610     1.0000 0.77921  0.48141  0.60637  Biso   1.000  C
  C611     1.0000 0.10395  0.70511  0.50760  Biso   1.000  C
  C612     1.0000 0.02099  0.38771  0.31220  Biso   1.000  C
  C613     1.0000 0.79258  0.97850  0.11006  Biso   1.000  C
  C614     1.0000 0.11809  0.79810  0.00655  Biso   1.000  C
  C615     1.0000 0.99614  0.10367  0.81275  Biso   1.000  C
  C616     1.0000 0.28747  0.01434  0.43014  Biso   1.000  C
  C617     1.0000 0.60390  0.79499  0.54054  Biso   1.000  C
  C618     1.0000 0.53224  0.10695  0.72640  Biso   1.000  C
  C619     1.0000 0.72328  0.47780  0.10750  Biso   1.000  C
  C620     1.0000 0.38772  0.30714  0.00295  Biso   1.000  C
  C621     1.0000 0.47076  0.61014  0.81747  Biso   1.000  C
  C622     1.0000 0.22102  0.50515  0.44083  Biso   1.000  C
  C623     1.0000 0.89760  0.29196  0.51175  Biso   1.000  C
  C624     1.0000 0.00093  0.60268  0.73404  Biso   1.000  C
  C625     1.0000 0.96420  0.19974  0.92297  Biso   1.000  C
  C626     1.0000 0.89466  0.96720  0.22242  Biso   1.000  C
  C627     1.0000 0.21846  0.90555  0.03757  Biso   1.000  C
  C628     1.0000 0.49500  0.20806  0.62031  Biso   1.000  C
  C629     1.0000 0.38840  0.99176  0.31877  Biso   1.000  C
  C630     1.0000 0.70967  0.90155  0.50222  Biso   1.000  C
  C631     1.0000 0.50431  0.71360  0.92501  Biso   1.000  C
  C632     1.0000 0.62452  0.50264  0.22366  Biso   1.000  C
  C633     1.0000 0.28149  0.41144  0.02515  Biso   1.000  C
  C634     1.0000 0.01475  0.70683  0.62498  Biso   1.000  C
  C635     1.0000 0.12560  0.48480  0.32284  Biso   1.000  C
  C636     1.0000 0.79174  0.39919  0.50176  Biso   1.000  C
  C637     1.0000 0.01909  0.78289  0.12783  Biso   1.000  C
  C638     1.0000 0.11015  0.01879  0.81704  Biso   1.000  C
  C639     1.0000 0.78694  0.08420  0.01196  Biso   1.000  C
  C640     1.0000 0.51179  0.79396  0.42493  Biso   1.000  C
  C641     1.0000 0.61252  0.97779  0.71753  Biso   1.000  C
  C642     1.0000 0.30124  0.10767  0.55281  Biso   1.000  C
  C643     1.0000 0.49709  0.29846  0.11652  Biso   1.000  C
  C644     1.0000 0.37896  0.49005  0.81855  Biso   1.000  C
  C645     1.0000 0.72215  0.58524  0.99637  Biso   1.000  C
  C646     1.0000 0.01534  0.28268  0.42083  Biso   1.000  C
  C647     1.0000 0.87776  0.50638  0.72164  Biso   1.000  C
  C648     1.0000 0.21038  0.60360  0.53751  Biso   1.000  C
  C649     1.0000 0.98888  0.69910  0.42035  Biso   1.000  C
  C650     1.0000 0.41346  0.02633  0.74074  Biso   1.000  C
  C651     1.0000 0.70694  0.38371  0.00254  Biso   1.000  C
  C652     1.0000 0.52580  0.70857  0.12614  Biso   1.000  C
  C653     1.0000 0.91172  0.98774  0.80243  Biso   1.000  C
  C654     1.0000 0.21026  0.39916  0.53600  Biso   1.000  C
  C655     1.0000 0.50966  0.20638  0.41216  Biso   1.000  C
  C656     1.0000 0.07857  0.49926  0.74463  Biso   1.000  C
  C657     1.0000 0.80550  0.87966  0.00886  Biso   1.000  C
  C658     1.0000 0.00904  0.19757  0.12216  Biso   1.000  C
  C659     1.0000 0.58781  0.52724  0.81320  Biso   1.000  C
  C660     1.0000 0.29326  0.90250  0.53872  Biso   1.000  C
  C661     1.0000 0.98297  0.29116  0.62639  Biso   1.000  C
  C662     1.0000 0.59141  0.98761  0.30358  Biso   1.000  C
  C663     1.0000 0.30666  0.61827  0.04152  Biso   1.000  C
  C664     1.0000 0.50747  0.29738  0.91248  Biso   1.000  C
  C665     1.0000 0.09523  0.02205  0.23295  Biso   1.000  C
  C666     1.0000 0.78958  0.60526  0.51795  Biso   1.000  C
  C667     1.0000 0.50150  0.79964  0.63035  Biso   1.000  C
  C668     1.0000 0.92150  0.49192  0.30743  Biso   1.000  C
  C669     1.0000 0.20783  0.11075  0.02006  Biso   1.000  C
  C670     1.0000 0.99314  0.79825  0.92670  Biso   1.000  C
  C671     1.0000 0.41834  0.48284  0.23662  Biso   1.000  C
  C672     1.0000 0.71453  0.10417  0.48607  Biso   1.000  C
  C673     1.0000 0.20347  0.00576  0.83232  Biso   1.000  C
  C674     1.0000 0.79682  0.18130  0.01592  Biso   1.000  C
  C675     1.0000 0.01870  0.79535  0.22337  Biso   1.000  C
  C676     1.0000 0.70964  0.97605  0.69839  Biso   1.000  C
  C677     1.0000 0.30806  0.20238  0.53499  Biso   1.000  C
  C678     1.0000 0.50707  0.79919  0.32948  Biso   1.000  C
  C679     1.0000 0.28482  0.49942  0.84063  Biso   1.000  C
  C680     1.0000 0.71866  0.67909  0.00279  Biso   1.000  C
  C681     1.0000 0.51554  0.30270  0.20886  Biso   1.000  C
  C682     1.0000 0.78365  0.49442  0.70068  Biso   1.000  C
  C683     1.0000 0.19754  0.69606  0.52033  Biso   1.000  C
  C684     1.0000 0.01795  0.29389  0.32497  Biso   1.000  C
  C685     1.0000 0.79956  0.97068  0.20655  Biso   1.000  C
  C686     1.0000 0.21341  0.81423  0.01958  Biso   1.000  C
  C687     1.0000 0.97410  0.19641  0.82513  Biso   1.000  C
  C688     1.0000 0.29577  0.00743  0.33595  Biso   1.000  C
  C689     1.0000 0.69801  0.80681  0.52184  Biso   1.000  C
  C690     1.0000 0.51231  0.19943  0.71342  Biso   1.000  C
  C691     1.0000 0.71808  0.48972  0.19968  Biso   1.000  C
  C692     1.0000 0.29400  0.31839  0.01184  Biso   1.000  C
  C693     1.0000 0.49220  0.70568  0.83410  Biso   1.000  C
  C694     1.0000 0.21758  0.49382  0.34683  Biso   1.000  C
  C695     1.0000 0.80507  0.30602  0.50342  Biso   1.000  C
  C696     1.0000 0.01210  0.69499  0.72167  Biso   1.000  C
  C697     1.0000 0.68726  0.97971  0.31111  Biso   1.000  C
  C698     1.0000 0.32415  0.71104  0.03012  Biso   1.000  C
  C699     1.0000 0.97685  0.30741  0.71948  Biso   1.000  C
  C700     1.0000 0.19170  0.02143  0.22706  Biso   1.000  C
  C701     1.0000 0.80423  0.69825  0.52896  Biso   1.000  C
  C702     1.0000 0.50563  0.31400  0.81809  Biso   1.000  C
  C703     1.0000 0.82595  0.49433  0.30958  Biso   1.000  C
  C704     1.0000 0.18814  0.20608  0.01124  Biso   1.000  C
  C705     1.0000 0.49520  0.81772  0.72667  Biso   1.000  C
  C706     1.0000 0.32325  0.49050  0.23334  Biso   1.000  C
  C707     1.0000 0.70092  0.19655  0.48911  Biso   1.000  C
  C708     1.0000 0.00793  0.80831  0.82965  Biso   1.000  C
  C709     1.0000 0.31968  0.01495  0.72940  Biso   1.000  C
  C710     1.0000 0.68912  0.29067  0.01042  Biso   1.000  C
  C711     1.0000 0.01635  0.68760  0.32972  Biso   1.000  C
  C712     1.0000 0.81698  0.97988  0.80702  Biso   1.000  C
  C713     1.0000 0.19405  0.30504  0.52736  Biso   1.000  C
  C714     1.0000 0.51460  0.69169  0.22068  Biso   1.000  C
  C715     1.0000 0.17438  0.50272  0.73921  Biso   1.000  C
  C716     1.0000 0.82540  0.78661  0.02192  Biso   1.000  C
  C717     1.0000 0.50350  0.19074  0.31817  Biso   1.000  C
  C718     1.0000 0.67859  0.50825  0.81384  Biso   1.000  C
  C719     1.0000 0.30492  0.80882  0.53193  Biso   1.000  C
  C720     1.0000 0.00281  0.18169  0.21765  Biso   1.000  C
  C721     1.0000 0.48693  0.79631  0.30419  Biso   1.000  C
  C722     1.0000 0.28676  0.51606  0.81358  Biso   1.000  C
  C723     1.0000 0.77566  0.30608  0.51761  Biso   1.000  C
  C724     1.0000 0.03888  0.77224  0.22099  Biso   1.000  C
  C725     1.0000 0.75578  0.50763  0.69294  Biso   1.000  C
  C726     1.0000 0.26492  0.32313  0.99970  Biso   1.000  C
  C727     1.0000 0.00174  0.26708  0.33230  Biso   1.000  C
  C728     1.0000 0.23051  0.01981  0.84055  Biso   1.000  C
  C729     1.0000 0.72699  0.81371  0.53211  Biso   1.000  C
  C730     1.0000 0.50528  0.30913  0.23852  Biso   1.000  C
  C731     1.0000 0.73767  0.96298  0.68934  Biso   1.000  C
  C732     1.0000 0.24336  0.82280  0.00996  Biso   1.000  C
  C733     1.0000 0.50299  0.19490  0.74496  Biso   1.000  C
  C734     1.0000 0.71393  0.47713  0.22841  Biso   1.000  C
  C735     1.0000 0.20084  0.71823  0.49747  Biso   1.000  C
  C736     1.0000 0.98423  0.22550  0.83265  Biso   1.000  C
  C737     1.0000 0.24735  0.48178  0.35291  Biso   1.000  C
  C738     1.0000 0.74510  0.67154  0.01942  Biso   1.000  C
  C739     1.0000 0.03000  0.69323  0.74694  Biso   1.000  C
  C740     1.0000 0.77282  0.95390  0.20009  Biso   1.000  C
  C741     1.0000 0.27933  0.19272  0.52768  Biso   1.000  C
  C742     1.0000 0.47302  0.70307  0.81015  Biso   1.000  C
  C743     1.0000 0.26584  0.99603  0.34020  Biso   1.000  C
  C744     1.0000 0.79726  0.20794  0.03315  Biso   1.000  C
  C745     1.0000 0.02750  0.71757  0.33710  Biso   1.000  C
  C746     1.0000 0.29073  0.02592  0.72518  Biso   1.000  C
  C747     1.0000 0.71710  0.29515  0.02545  Biso   1.000  C
  C748     1.0000 0.53952  0.71234  0.22472  Biso   1.000  C
  C749     1.0000 0.79089  0.96165  0.80971  Biso   1.000  C
  C750     1.0000 0.22122  0.31053  0.54444  Biso   1.000  C
  C751     1.0000 0.52031  0.18762  0.29078  Biso   1.000  C
  C752     1.0000 0.20045  0.48635  0.73404  Biso   1.000  C
  C753     1.0000 0.80762  0.78552  0.99613  Biso   1.000  C
  C754     1.0000 0.02844  0.20242  0.21787  Biso   1.000  C
  C755     1.0000 0.66970  0.49303  0.78751  Biso   1.000  C
  C756     1.0000 0.30952  0.78005  0.54587  Biso   1.000  C
  C757     1.0000 0.95767  0.28258  0.71740  Biso   1.000  C
  C758     1.0000 0.68356  0.99292  0.28089  Biso   1.000  C
  C759     1.0000 0.30105  0.71267  0.05256  Biso   1.000  C
  C760     1.0000 0.52528  0.31807  0.79285  Biso   1.000  C
  C761     1.0000 0.21797  0.00745  0.22299  Biso   1.000  C
  C762     1.0000 0.81052  0.72399  0.51132  Biso   1.000  C
  C763     1.0000 0.48094  0.78920  0.72116  Biso   1.000  C
  C764     1.0000 0.80270  0.51538  0.30911  Biso   1.000  C
  C765     1.0000 0.21282  0.20483  0.02962  Biso   1.000  C
  C766     1.0000 0.99848  0.81268  0.80022  Biso   1.000  C
  C767     1.0000 0.33053  0.50163  0.26162  Biso   1.000  C
  C768     1.0000 0.69573  0.22241  0.47027  Biso   1.000  C
  C769     1.0000 0.51421  0.72909  0.83505  Biso   1.000  C
  C770     1.0000 0.78635  0.48452  0.73087  Biso   1.000  C
  C771     1.0000 0.69159  0.77557  0.51333  Biso   1.000  C
  C772     1.0000 0.99618  0.72230  0.71744  Biso   1.000  C
  C773     1.0000 0.26073  0.48182  0.84782  Biso   1.000  C
  C774     1.0000 0.20812  0.78443  0.03006  Biso   1.000  C
  C775     1.0000 0.96642  0.19064  0.79490  Biso   1.000  C
  C776     1.0000 0.70686  0.98542  0.72848  Biso   1.000  C
  C777     1.0000 0.80983  0.28488  0.48088  Biso   1.000  C
  C778     1.0000 0.52010  0.23001  0.70537  Biso   1.000  C
  C779     1.0000 0.20189  0.99619  0.80175  Biso   1.000  C
  C780     1.0000 0.30107  0.28899  0.02253  Biso   1.000  C
  C781     1.0000 0.52506  0.27348  0.20175  Biso   1.000  C
  C782     1.0000 0.21553  0.50922  0.31895  Biso   1.000  C
  C783     1.0000 0.31217  0.23327  0.54512  Biso   1.000  C
  C784     1.0000 0.03377  0.29558  0.29715  Biso   1.000  C
  C785     1.0000 0.74671  0.50406  0.19428  Biso   1.000  C
  C786     1.0000 0.77050  0.17733  0.99761  Biso   1.000  C
  C787     1.0000 0.99909  0.79655  0.24976  Biso   1.000  C
  C788     1.0000 0.30183  0.02428  0.30962  Biso   1.000  C
  C789     1.0000 0.21989  0.69627  0.54068  Biso   1.000  C
  C790     1.0000 0.53068  0.77655  0.33254  Biso   1.000  C
  C791     1.0000 0.80154  0.98361  0.23537  Biso   1.000  C
  C792     1.0000 0.71609  0.70738  0.98953  Biso   1.000  C
  C793     1.0000 0.48542  0.21726  0.31748  Biso   1.000  C
  C794     1.0000 0.29243  0.47871  0.23007  Biso   1.000  C
  C795     1.0000 0.19166  0.27762  0.51271  Biso   1.000  C
  C796     1.0000 0.98003  0.18725  0.23917  Biso   1.000  C
  C797     1.0000 0.82895  0.47403  0.28627  Biso   1.000  C
  C798     1.0000 0.68200  0.26213  0.99704  Biso   1.000  C
  C799     1.0000 0.01210  0.68068  0.29902  Biso   1.000  C
  C800     1.0000 0.18557  0.03707  0.25293  Biso   1.000  C
  C801     1.0000 0.27847  0.81347  0.51634  Biso   1.000  C
  C802     1.0000 0.49068  0.69236  0.24048  Biso   1.000  C
  C803     1.0000 0.71115  0.96073  0.31645  Biso   1.000  C
  C804     1.0000 0.82387  0.76158  0.04174  Biso   1.000  C
  C805     1.0000 0.50886  0.82326  0.75495  Biso   1.000  C
  C806     1.0000 0.70818  0.51893  0.81411  Biso   1.000  C
  C807     1.0000 0.77731  0.69480  0.54497  Biso   1.000  C
  C808     1.0000 0.01754  0.77862  0.83630  Biso   1.000  C
  C809     1.0000 0.17093  0.51366  0.77002  Biso   1.000  C
  C810     1.0000 0.32597  0.73505  0.01026  Biso   1.000  C
  C811     1.0000 0.99843  0.30954  0.74313  Biso   1.000  C
  C812     1.0000 0.82201  0.99334  0.77814  Biso   1.000  C
  C813     1.0000 0.72767  0.19627  0.50392  Biso   1.000  C
  C814     1.0000 0.48842  0.28801  0.81993  Biso   1.000  C
  C815     1.0000 0.32344  0.00114  0.75760  Biso   1.000  C
  C816     1.0000 0.18742  0.22797  0.98914  Biso   1.000  C
  C817     1.0000 0.98547  0.24819  0.81292  Biso   1.000  C
  C818     1.0000 0.74826  0.95485  0.22007  Biso   1.000  C
  C819     1.0000 0.26450  0.80331  0.01174  Biso   1.000  C
  C820     1.0000 0.50406  0.21761  0.76501  Biso   1.000  C
  C821     1.0000 0.24390  0.00308  0.32068  Biso   1.000  C
  C822     1.0000 0.74726  0.79156  0.53405  Biso   1.000  C
  C823     1.0000 0.47312  0.72561  0.78960  Biso   1.000  C
  C824     1.0000 0.73626  0.48134  0.24939  Biso   1.000  C
  C825     1.0000 0.24688  0.29980  0.00037  Biso   1.000  C
  C826     1.0000 0.02899  0.71367  0.76782  Biso   1.000  C
  C827     1.0000 0.26748  0.48078  0.33010  Biso   1.000  C
  C828     1.0000 0.75512  0.28728  0.50854  Biso   1.000  C
  C829     1.0000 0.04133  0.75159  0.24334  Biso   1.000  C
  C830     1.0000 0.25600  0.02186  0.82222  Biso   1.000  C
  C831     1.0000 0.77548  0.22735  0.03119  Biso   1.000  C
  C832     1.0000 0.48974  0.77182  0.28680  Biso   1.000  C
  C833     1.0000 0.76072  0.96056  0.70859  Biso   1.000  C
  C834     1.0000 0.25915  0.21384  0.52330  Biso   1.000  C
  C835     1.0000 0.50263  0.28693  0.25863  Biso   1.000  C
  C836     1.0000 0.26312  0.51354  0.79458  Biso   1.000  C
  C837     1.0000 0.76788  0.69024  0.02161  Biso   1.000  C
  C838     1.0000 0.00073  0.24472  0.31106  Biso   1.000  C
  C839     1.0000 0.73380  0.51067  0.71400  Biso   1.000  C
  C840     1.0000 0.22336  0.73868  0.49728  Biso   1.000  C
  C841     1.0000 0.22471  0.99950  0.78328  Biso   1.000  C
  C842     1.0000 0.74822  0.19764  0.99802  Biso   1.000  C
  C843     1.0000 0.00085  0.77514  0.27034  Biso   1.000  C
  C844     1.0000 0.73154  0.98477  0.74682  Biso   1.000  C
  C845     1.0000 0.29066  0.25333  0.54173  Biso   1.000  C
  C846     1.0000 0.53448  0.75612  0.30979  Biso   1.000  C
  C847     1.0000 0.23750  0.48102  0.83057  Biso   1.000  C
  C848     1.0000 0.74009  0.72598  0.99434  Biso   1.000  C
  C849     1.0000 0.52087  0.25233  0.22267  Biso   1.000  C
  C850     1.0000 0.76426  0.48396  0.75033  Biso   1.000  C
  C851     1.0000 0.24148  0.71778  0.54186  Biso   1.000  C
  C852     1.0000 0.03014  0.27348  0.27716  Biso   1.000  C
  C853     1.0000 0.77832  0.98078  0.25605  Biso   1.000  C
  C854     1.0000 0.23174  0.76662  0.03306  Biso   1.000  C
  C855     1.0000 0.96749  0.21413  0.77573  Biso   1.000  C
  C856     1.0000 0.28058  0.02841  0.28991  Biso   1.000  C
  C857     1.0000 0.71288  0.75510  0.51820  Biso   1.000  C
  C858     1.0000 0.51853  0.25322  0.72482  Biso   1.000  C
  C859     1.0000 0.76822  0.50553  0.21566  Biso   1.000  C
  C860     1.0000 0.28130  0.26722  0.02202  Biso   1.000  C
  C861     1.0000 0.51250  0.75141  0.81357  Biso   1.000  C
  C862     1.0000 0.23764  0.51090  0.29918  Biso   1.000  C
  C863     1.0000 0.78788  0.26463  0.47403  Biso   1.000  C
  C864     1.0000 0.99657  0.74245  0.73973  Biso   1.000  C
  C865     1.0000 0.68963  0.48831  0.76416  Biso   1.000  C
  C866     1.0000 0.79002  0.74682  0.51288  Biso   1.000  C
  C867     1.0000 0.48223  0.76848  0.74205  Biso   1.000  C
  C868     1.0000 0.22147  0.48295  0.75475  Biso   1.000  C
  C869     1.0000 0.28132  0.73587  0.05113  Biso   1.000  C
  C870     1.0000 0.00168  0.79016  0.77991  Biso   1.000  C
  C871     1.0000 0.77221  0.95704  0.78647  Biso   1.000  C
  C872     1.0000 0.71477  0.24471  0.47019  Biso   1.000  C
  C873     1.0000 0.95682  0.26349  0.74113  Biso   1.000  C
  C874     1.0000 0.26830  0.02330  0.74463  Biso   1.000  C
  C875     1.0000 0.23153  0.22861  0.02750  Biso   1.000  C
  C876     1.0000 0.52709  0.29645  0.77204  Biso   1.000  C
  C877     1.0000 0.31181  0.50381  0.28446  Biso   1.000  C
  C878     1.0000 0.24184  0.28864  0.54664  Biso   1.000  C
  C879     1.0000 0.52020  0.20838  0.26793  Biso   1.000  C
  C880     1.0000 0.78327  0.51324  0.28693  Biso   1.000  C
  C881     1.0000 0.73628  0.27189  0.02579  Biso   1.000  C
  C882     1.0000 0.03078  0.22327  0.23911  Biso   1.000  C
  C883     1.0000 0.23704  0.00882  0.24516  Biso   1.000  C
  C884     1.0000 0.28885  0.75731  0.54271  Biso   1.000  C
  C885     1.0000 0.03056  0.73914  0.31591  Biso   1.000  C
  C886     1.0000 0.70428  0.98536  0.25813  Biso   1.000  C
  C887     1.0000 0.79035  0.76111  0.99232  Biso   1.000  C
  C888     1.0000 0.53793  0.73278  0.24638  Biso   1.000  C
  C889     1.0000 0.73181  0.95567  0.29457  Biso   1.000  C
  C890     1.0000 0.30515  0.75637  0.00904  Biso   1.000  C
  C891     1.0000 0.99895  0.28758  0.76440  Biso   1.000  C
  C892     1.0000 0.20565  0.03878  0.27468  Biso   1.000  C
  C893     1.0000 0.75662  0.71702  0.54357  Biso   1.000  C
  C894     1.0000 0.49171  0.26708  0.79941  Biso   1.000  C
  C895     1.0000 0.80855  0.47311  0.26367  Biso   1.000  C
  C896     1.0000 0.20723  0.25097  0.98933  Biso   1.000  C
  C897     1.0000 0.50832  0.80067  0.77586  Biso   1.000  C
  C898     1.0000 0.27315  0.48045  0.25443  Biso   1.000  C
  C899     1.0000 0.74799  0.21809  0.50144  Biso   1.000  C
  C900     1.0000 0.01709  0.75644  0.81575  Biso   1.000  C
  C901     1.0000 0.30242  0.00163  0.77887  Biso   1.000  C
  C902     1.0000 0.70277  0.24017  0.00055  Biso   1.000  C
  C903     1.0000 0.01597  0.70281  0.27781  Biso   1.000  C
  C904     1.0000 0.80251  0.98866  0.75620  Biso   1.000  C
  C905     1.0000 0.21246  0.25770  0.51456  Biso   1.000  C
  C906     1.0000 0.49161  0.70969  0.26494  Biso   1.000  C
  C907     1.0000 0.19096  0.50893  0.79111  Biso   1.000  C
  C908     1.0000 0.80432  0.73944  0.03839  Biso   1.000  C
  C909     1.0000 0.48699  0.23749  0.29586  Biso   1.000  C
  C910     1.0000 0.72716  0.51357  0.79116  Biso   1.000  C
  C911     1.0000 0.25816  0.79095  0.51380  Biso   1.000  C
  C912     1.0000 0.98294  0.21026  0.25826  Biso   1.000  C
  C913     1.0000 0.73882  0.49796  0.74083  Biso   1.000  C
  C914     1.0000 0.74058  0.76318  0.52683  Biso   1.000  C
  C915     1.0000 0.49239  0.74922  0.79159  Biso   1.000  C
  C916     1.0000 0.24038  0.49326  0.80342  Biso   1.000  C
  C917     1.0000 0.25949  0.77620  0.02381  Biso   1.000  C
  C918     1.0000 0.01157  0.73825  0.76515  Biso   1.000  C
  C919     1.0000 0.75652  0.96970  0.73762  Biso   1.000  C
  C920     1.0000 0.76088  0.26640  0.48813  Biso   1.000  C
  C921     1.0000 0.97563  0.24204  0.78383  Biso   1.000  C
  C922     1.0000 0.25132  0.01127  0.79317  Biso   1.000  C
  C923     1.0000 0.25431  0.27252  0.01044  Biso   1.000  C
  C924     1.0000 0.51080  0.24611  0.75437  Biso   1.000  C
  C925     1.0000 0.26196  0.49467  0.30367  Biso   1.000  C
  C926     1.0000 0.26438  0.24362  0.53105  Biso   1.000  C
  C927     1.0000 0.50842  0.25812  0.25083  Biso   1.000  C
  C928     1.0000 0.76271  0.49353  0.24346  Biso   1.000  C
  C929     1.0000 0.75152  0.22203  0.01437  Biso   1.000  C
  C930     1.0000 0.01375  0.24884  0.28411  Biso   1.000  C
  C931     1.0000 0.25166  0.01856  0.29469  Biso   1.000  C
  C932     1.0000 0.24268  0.74021  0.51980  Biso   1.000  C
  C933     1.0000 0.02115  0.75270  0.26570  Biso   1.000  C
  C934     1.0000 0.75333  0.96597  0.24760  Biso   1.000  C
  C935     1.0000 0.76480  0.71681  0.00928  Biso   1.000  C
  C936     1.0000 0.51227  0.75261  0.28941  Biso   1.000  C
  C937     1.0000 0.72935  0.24472  0.01376  Biso   1.000  C
  C938     1.0000 0.02304  0.72994  0.28742  Biso   1.000  C
  C939     1.0000 0.27499  0.01169  0.77183  Biso   1.000  C
  C940     1.0000 0.23821  0.26359  0.53107  Biso   1.000  C
  C941     1.0000 0.51481  0.73046  0.26646  Biso   1.000  C
  C942     1.0000 0.77847  0.96948  0.76014  Biso   1.000  C
  C943     1.0000 0.78809  0.73917  0.01287  Biso   1.000  C
  C944     1.0000 0.50420  0.23356  0.27133  Biso   1.000  C
  C945     1.0000 0.21565  0.49342  0.78319  Biso   1.000  C
  C946     1.0000 0.26470  0.76386  0.52547  Biso   1.000  C
  C947     1.0000 0.00903  0.22643  0.26086  Biso   1.000  C
  C948     1.0000 0.71805  0.49862  0.76636  Biso   1.000  C
  C949     1.0000 0.28300  0.75718  0.02967  Biso   1.000  C
  C950     1.0000 0.97701  0.26538  0.76310  Biso   1.000  C
  C951     1.0000 0.72710  0.96730  0.26683  Biso   1.000  C
  C952     1.0000 0.76321  0.74139  0.52712  Biso   1.000  C
  C953     1.0000 0.51014  0.27081  0.77536  Biso   1.000  C
  C954     1.0000 0.23152  0.02376  0.27095  Biso   1.000  C
  C955     1.0000 0.23156  0.25054  0.00697  Biso   1.000  C
  C956     1.0000 0.49503  0.77359  0.76965  Biso   1.000  C
  C957     1.0000 0.78718  0.49441  0.26477  Biso   1.000  C
  C958     1.0000 0.74101  0.24163  0.48423  Biso   1.000  C
  C959     1.0000 0.01141  0.76287  0.78709  Biso   1.000  C
  C960     1.0000 0.28366  0.49379  0.28023  Biso   1.000  C
  Cu1      1.0000 0.98584  0.50369  0.67619  Biso   1.000  Cu
  Cu2      1.0000 0.65780  0.00299  0.50788  Biso   1.000  Cu
  Cu3      1.0000 0.51799  0.65360  0.02433  Biso   1.000  Cu
  Cu4      1.0000 0.48576  0.50749  0.86820  Biso   1.000  Cu
  Cu5      1.0000 0.15651  0.00552  0.02904  Biso   1.000  Cu
  Cu6      1.0000 0.99881  0.64974  0.52681  Biso   1.000  Cu
  Cu7      1.0000 0.51031  0.00809  0.67206  Biso   1.000  Cu
  Cu8      1.0000 0.84273  0.50364  0.51055  Biso   1.000  Cu
  Cu9      1.0000 0.99335  0.14304  0.01941  Biso   1.000  Cu
  Cu10     1.0000 0.00622  0.00262  0.86652  Biso   1.000  Cu
  Cu11     1.0000 0.34836  0.51143  0.03104  Biso   1.000  Cu
  Cu12     1.0000 0.50485  0.15318  0.51817  Biso   1.000  Cu
  Cu13     1.0000 0.01686  0.48932  0.36963  Biso   1.000  Cu
  Cu14     1.0000 0.34772  0.00879  0.53004  Biso   1.000  Cu
  Cu15     1.0000 0.49399  0.35166  0.01641  Biso   1.000  Cu
  Cu16     1.0000 0.51802  0.49909  0.17613  Biso   1.000  Cu
  Cu17     1.0000 0.85142  0.98834  0.01108  Biso   1.000  Cu
  Cu18     1.0000 0.99871  0.34289  0.52192  Biso   1.000  Cu
  Cu19     1.0000 0.49524  0.99435  0.36652  Biso   1.000  Cu
  Cu20     1.0000 0.15630  0.50110  0.53923  Biso   1.000  Cu
  Cu21     1.0000 0.01471  0.84544  0.02900  Biso   1.000  Cu
  Cu22     1.0000 0.99936  0.98962  0.17360  Biso   1.000  Cu
  Cu23     1.0000 0.65951  0.48794  0.01190  Biso   1.000  Cu
  Cu24     1.0000 0.50206  0.85240  0.52390  Biso   1.000  Cu
  Cu25     1.0000 0.21133  0.00857  0.02663  Biso   1.000  Cu
  Cu26     1.0000 0.99212  0.19787  0.01999  Biso   1.000  Cu
  Cu27     1.0000 0.99569  0.99154  0.22820  Biso   1.000  Cu
  Cu28     1.0000 0.71216  0.00441  0.50515  Biso   1.000  Cu
  Cu29     1.0000 0.50837  0.20684  0.51677  Biso   1.000  Cu
  Cu30     1.0000 0.49094  0.99508  0.31170  Biso   1.000  Cu
  Cu31     1.0000 0.29457  0.51840  0.03678  Biso   1.000  Cu
  Cu32     1.0000 0.52160  0.70800  0.02293  Biso   1.000  Cu
  Cu33     1.0000 0.51993  0.49836  0.23230  Biso   1.000  Cu
  Cu34     1.0000 0.78806  0.49994  0.50437  Biso   1.000  Cu
  Cu35     1.0000 0.00061  0.70269  0.52245  Biso   1.000  Cu
  Cu36     1.0000 0.02166  0.48942  0.31574  Biso   1.000  Cu
  Cu37     1.0000 0.79840  0.98100  0.01038  Biso   1.000  Cu
  Cu38     1.0000 0.01582  0.79123  0.02425  Biso   1.000  Cu
  Cu39     1.0000 0.01122  0.00224  0.81202  Biso   1.000  Cu
  Cu40     1.0000 0.29509  0.00708  0.53514  Biso   1.000  Cu
  Cu41     1.0000 0.50327  0.79954  0.52560  Biso   1.000  Cu
  Cu42     1.0000 0.51527  0.00772  0.72608  Biso   1.000  Cu
  Cu43     1.0000 0.71320  0.48564  0.00451  Biso   1.000  Cu
  Cu44     1.0000 0.48875  0.29770  0.01735  Biso   1.000  Cu
  Cu45     1.0000 0.48535  0.50974  0.81371  Biso   1.000  Cu
  Cu46     1.0000 0.20998  0.50278  0.54577  Biso   1.000  Cu
  Cu47     1.0000 0.99859  0.28966  0.52465  Biso   1.000  Cu
  Cu48     1.0000 0.97740  0.50299  0.72990  Biso   1.000  Cu
  H1       1.0000 0.29188  0.73647  0.55415  Biso   1.000  H
  H2       1.0000 0.54362  0.29749  0.75517  Biso   1.000  H
  H3       1.0000 0.76552  0.52743  0.28617  Biso   1.000  H
  H4       1.0000 0.78009  0.75809  0.97131  Biso   1.000  H
  H5       1.0000 0.93896  0.24836  0.74018  Biso   1.000  H
  H6       1.0000 0.31976  0.51613  0.30387  Biso   1.000  H
  H7       1.0000 0.26314  0.29433  0.55529  Biso   1.000  H
  H8       1.0000 0.99677  0.79566  0.75742  Biso   1.000  H
  H9       1.0000 0.70332  0.99431  0.23609  Biso   1.000  H
  H10      1.0000 0.75886  0.27661  0.03197  Biso   1.000  H
  H11      1.0000 0.47251  0.74774  0.73761  Biso   1.000  H
  H12      1.0000 0.25882  0.00022  0.24130  Biso   1.000  H
  H13      1.0000 0.71123  0.26549  0.45856  Biso   1.000  H
  H14      1.0000 0.55574  0.74996  0.24864  Biso   1.000  H
  H15      1.0000 0.24288  0.47197  0.75238  Biso   1.000  H
  H16      1.0000 0.24644  0.23242  0.04529  Biso   1.000  H
  H17      1.0000 0.03572  0.76205  0.32062  Biso   1.000  H
  H18      1.0000 0.68269  0.47590  0.74592  Biso   1.000  H
  H19      1.0000 0.79138  0.76951  0.50389  Biso   1.000  H
  H20      1.0000 0.04931  0.23799  0.24225  Biso   1.000  H
  H21      1.0000 0.24738  0.03145  0.73959  Biso   1.000  H
  H22      1.0000 0.26497  0.73662  0.06894  Biso   1.000  H
  H23      1.0000 0.52920  0.20229  0.24688  Biso   1.000  H
  H24      1.0000 0.75288  0.94366  0.79053  Biso   1.000  H
  H25      1.0000 0.27575  0.03154  0.83151  Biso   1.000  H
  H26      1.0000 0.77629  0.24431  0.04874  Biso   1.000  H
  H27      1.0000 0.05635  0.73480  0.24283  Biso   1.000  H
  H28      1.0000 0.78007  0.95252  0.69953  Biso   1.000  H
  H29      1.0000 0.23803  0.20654  0.51436  Biso   1.000  H
  H30      1.0000 0.47445  0.76589  0.26916  Biso   1.000  H
  H31      1.0000 0.25985  0.52537  0.77362  Biso   1.000  H
  H32      1.0000 0.78907  0.68530  0.03029  Biso   1.000  H
  H33      1.0000 0.49429  0.29239  0.28065  Biso   1.000  H
  H34      1.0000 0.71323  0.52139  0.70710  Biso   1.000  H
  H35      1.0000 0.22391  0.75613  0.48066  Biso   1.000  H
  H36      1.0000 0.99037  0.22414  0.31485  Biso   1.000  H
  H37      1.0000 0.72874  0.94257  0.21436  Biso   1.000  H
  H38      1.0000 0.28562  0.80745  0.00108  Biso   1.000  H
  H39      1.0000 0.99268  0.26924  0.82021  Biso   1.000  H
  H40      1.0000 0.22192  0.99544  0.32524  Biso   1.000  H
  H41      1.0000 0.76803  0.79774  0.54355  Biso   1.000  H
  H42      1.0000 0.49732  0.21482  0.78744  Biso   1.000  H
  H43      1.0000 0.73228  0.47355  0.27158  Biso   1.000  H
  H44      1.0000 0.22441  0.30199  0.99538  Biso   1.000  H
  H45      1.0000 0.45530  0.72428  0.77406  Biso   1.000  H
  H46      1.0000 0.28850  0.47270  0.33328  Biso   1.000  H
  H47      1.0000 0.73422  0.28811  0.51941  Biso   1.000  H
  H48      1.0000 0.04037  0.71172  0.78823  Biso   1.000  H
  H49      1.0000 0.23566  0.52732  0.28249  Biso   1.000  H
  H50      1.0000 0.29768  0.27507  0.54428  Biso   1.000  H
  H51      1.0000 0.52879  0.23077  0.21604  Biso   1.000  H
  H52      1.0000 0.78841  0.51954  0.21177  Biso   1.000  H
  H53      1.0000 0.72928  0.19194  0.98523  Biso   1.000  H
  H54      1.0000 0.03909  0.27330  0.25529  Biso   1.000  H
  H55      1.0000 0.28563  0.04230  0.27108  Biso   1.000  H
  H56      1.0000 0.25753  0.71823  0.55882  Biso   1.000  H
  H57      1.0000 0.98602  0.77464  0.28852  Biso   1.000  H
  H58      1.0000 0.78052  0.98793  0.27976  Biso   1.000  H
  H59      1.0000 0.73804  0.74720  0.98535  Biso   1.000  H
  H60      1.0000 0.55317  0.74180  0.30907  Biso   1.000  H
  H61      1.0000 0.76858  0.47426  0.77154  Biso   1.000  H
  H62      1.0000 0.70637  0.73229  0.51537  Biso   1.000  H
  H63      1.0000 0.52953  0.76761  0.81665  Biso   1.000  H
  H64      1.0000 0.21702  0.46796  0.83478  Biso   1.000  H
  H65      1.0000 0.23148  0.74400  0.04026  Biso   1.000  H
  H66      1.0000 0.98173  0.76142  0.73875  Biso   1.000  H
  H67      1.0000 0.73200  0.99328  0.76909  Biso   1.000  H
  H68      1.0000 0.79517  0.24692  0.45981  Biso   1.000  H
  H69      1.0000 0.96238  0.20905  0.75295  Biso   1.000  H
  H70      1.0000 0.22499  0.99020  0.76155  Biso   1.000  H
  H71      1.0000 0.28867  0.24475  0.02949  Biso   1.000  H
  H72      1.0000 0.52594  0.27497  0.71856  Biso   1.000  H
  H73      1.0000 0.74981  0.52079  0.79328  Biso   1.000  H
  H74      1.0000 0.73591  0.71374  0.55378  Biso   1.000  H
  H75      1.0000 0.51762  0.80588  0.79701  Biso   1.000  H
  H76      1.0000 0.18763  0.52056  0.81244  Biso   1.000  H
  H77      1.0000 0.30872  0.77120  0.99036  Biso   1.000  H
  H78      1.0000 0.02432  0.73578  0.82399  Biso   1.000  H
  H79      1.0000 0.80431  0.00011  0.73384  Biso   1.000  H
  H80      1.0000 0.76960  0.21800  0.51190  Biso   1.000  H
  H81      1.0000 0.01648  0.28707  0.77957  Biso   1.000  H
  H82      1.0000 0.30729  0.98896  0.79888  Biso   1.000  H
  H83      1.0000 0.20607  0.26964  0.97351  Biso   1.000  H
  H84      1.0000 0.48023  0.24718  0.80274  Biso   1.000  H
  H85      1.0000 0.25011  0.47184  0.25322  Biso   1.000  H
  H86      1.0000 0.20868  0.23597  0.50411  Biso   1.000  H
  H87      1.0000 0.47305  0.25734  0.29920  Biso   1.000  H
  H88      1.0000 0.80933  0.45815  0.24582  Biso   1.000  H
  H89      1.0000 0.69762  0.21998  0.99160  Biso   1.000  H
  H90      1.0000 0.96693  0.21335  0.27634  Biso   1.000  H
  H91      1.0000 0.20240  0.05163  0.29426  Biso   1.000  H
  H92      1.0000 0.23898  0.79373  0.49951  Biso   1.000  H
  H93      1.0000 0.01246  0.70036  0.25437  Biso   1.000  H
  H94      1.0000 0.74938  0.94027  0.29781  Biso   1.000  H
  H95      1.0000 0.80112  0.72276  0.05585  Biso   1.000  H
  H96      1.0000 0.47314  0.70535  0.28054  Biso   1.000  H
  H97      1.0000 0.87220  0.99704  0.91800  Biso   1.000  H
  H98      1.0000 0.92192  0.86121  0.03188  Biso   1.000  H
  H99      1.0000 0.01572  0.91663  0.88692  Biso   1.000  H
  H100     1.0000 0.37643  0.01245  0.61743  Biso   1.000  H
  H101     1.0000 0.41154  0.87530  0.51664  Biso   1.000  H
  H102     1.0000 0.48852  0.91562  0.65478  Biso   1.000  H
  H103     1.0000 0.62713  0.49566  0.92702  Biso   1.000  H
  H104     1.0000 0.59076  0.36002  0.02154  Biso   1.000  H
  H105     1.0000 0.50433  0.41463  0.88533  Biso   1.000  H
  H106     1.0000 0.12526  0.50312  0.62713  Biso   1.000  H
  H107     1.0000 0.08540  0.36662  0.53861  Biso   1.000  H
  H108     1.0000 0.98780  0.41224  0.65774  Biso   1.000  H
  H109     1.0000 0.13369  0.00589  0.11738  Biso   1.000  H
  H110     1.0000 0.09033  0.13042  0.00926  Biso   1.000  H
  H111     1.0000 0.99083  0.08035  0.15167  Biso   1.000  H
  H112     1.0000 0.63289  0.00570  0.41602  Biso   1.000  H
  H113     1.0000 0.59627  0.13165  0.50779  Biso   1.000  H
  H114     1.0000 0.49523  0.08679  0.38715  Biso   1.000  H
  H115     1.0000 0.37552  0.50829  0.12309  Biso   1.000  H
  H116     1.0000 0.42406  0.64385  0.02820  Biso   1.000  H
  H117     1.0000 0.51466  0.58689  0.15458  Biso   1.000  H
  H118     1.0000 0.87438  0.50797  0.42261  Biso   1.000  H
  H119     1.0000 0.90659  0.63278  0.52684  Biso   1.000  H
  H120     1.0000 0.02355  0.57995  0.39199  Biso   1.000  H
  H121     1.0000 0.09593  0.01396  0.89212  Biso   1.000  H
  H122     1.0000 0.86338  0.07916  0.02160  Biso   1.000  H
  H123     1.0000 0.02150  0.85906  0.11826  Biso   1.000  H
  H124     1.0000 0.60206  0.99295  0.64306  Biso   1.000  H
  H125     1.0000 0.37273  0.10180  0.52668  Biso   1.000  H
  H126     1.0000 0.50499  0.86864  0.43214  Biso   1.000  H
  H127     1.0000 0.39549  0.51488  0.88727  Biso   1.000  H
  H128     1.0000 0.64787  0.57906  0.01266  Biso   1.000  H
  H129     1.0000 0.50394  0.37494  0.10971  Biso   1.000  H
  H130     1.0000 0.89824  0.49811  0.64934  Biso   1.000  H
  H131     1.0000 0.13275  0.59196  0.53891  Biso   1.000  H
  H132     1.0000 0.01890  0.36049  0.42850  Biso   1.000  H
  H133     1.0000 0.90936  0.97165  0.14503  Biso   1.000  H
  H134     1.0000 0.14365  0.91319  0.02333  Biso   1.000  H
  H135     1.0000 0.97697  0.12460  0.92495  Biso   1.000  H
  H136     1.0000 0.40627  0.00435  0.39177  Biso   1.000  H
  H137     1.0000 0.63469  0.90720  0.51137  Biso   1.000  H
  H138     1.0000 0.51279  0.13531  0.60885  Biso   1.000  H
  H139     1.0000 0.60686  0.49185  0.14719  Biso   1.000  H
  H140     1.0000 0.35733  0.42121  0.02121  Biso   1.000  H
  H141     1.0000 0.49616  0.63738  0.93469  Biso   1.000  H
  H142     1.0000 0.10663  0.49358  0.39873  Biso   1.000  H
  H143     1.0000 0.86488  0.41250  0.50595  Biso   1.000  H
  H144     1.0000 0.00249  0.63284  0.61697  Biso   1.000  H
  H145     1.0000 0.58123  0.50857  0.88706  Biso   1.000  H
  H146     1.0000 0.86301  0.59274  0.52881  Biso   1.000  H
  H147     1.0000 0.49091  0.87378  0.61627  Biso   1.000  H
  H148     1.0000 0.07526  0.50502  0.66703  Biso   1.000  H
  H149     1.0000 0.38037  0.59970  0.03425  Biso   1.000  H
  H150     1.0000 0.00587  0.87209  0.93655  Biso   1.000  H
  H151     1.0000 0.91218  0.00632  0.87802  Biso   1.000  H
  H152     1.0000 0.63948  0.09240  0.49865  Biso   1.000  H
  H153     1.0000 0.98936  0.36546  0.61116  Biso   1.000  H
  H154     1.0000 0.42505  0.02038  0.66504  Biso   1.000  H
  H155     1.0000 0.13378  0.09521  0.01807  Biso   1.000  H
  H156     1.0000 0.50152  0.37249  0.92681  Biso   1.000  H
  H157     1.0000 0.42308  0.49530  0.16183  Biso   1.000  H
  H158     1.0000 0.13447  0.41307  0.54213  Biso   1.000  H
  H159     1.0000 0.50482  0.13115  0.42500  Biso   1.000  H
  H160     1.0000 0.92387  0.50051  0.38483  Biso   1.000  H
  H161     1.0000 0.63185  0.39581  0.00682  Biso   1.000  H
  H162     1.0000 0.00463  0.12286  0.10931  Biso   1.000  H
  H163     1.0000 0.08869  0.01617  0.15784  Biso   1.000  H
  H164     1.0000 0.36574  0.91541  0.52154  Biso   1.000  H
  H165     1.0000 0.00806  0.62650  0.43681  Biso   1.000  H
  H166     1.0000 0.58552  0.00551  0.37671  Biso   1.000  H
  H167     1.0000 0.87973  0.89728  0.02127  Biso   1.000  H
  H168     1.0000 0.51584  0.63476  0.11199  Biso   1.000  H
  H169     1.0000 0.98424  0.08989  0.88616  Biso   1.000  H
  H170     1.0000 0.87186  0.98141  0.10653  Biso   1.000  H
  H171     1.0000 0.10713  0.87341  0.01395  Biso   1.000  H
  H172     1.0000 0.52755  0.09877  0.65017  Biso   1.000  H
  H173     1.0000 0.36263  0.01053  0.44031  Biso   1.000  H
  H174     1.0000 0.59569  0.86876  0.51736  Biso   1.000  H
  H175     1.0000 0.48176  0.60003  0.89184  Biso   1.000  H
  H176     1.0000 0.64768  0.48303  0.10061  Biso   1.000  H
  H177     1.0000 0.40029  0.38077  0.01476  Biso   1.000  H
  H178     1.0000 0.00500  0.59163  0.65786  Biso   1.000  H
  H179     1.0000 0.14539  0.49788  0.44351  Biso   1.000  H
  H180     1.0000 0.90884  0.36634  0.49921  Biso   1.000  H
  H181     1.0000 0.01761  0.89748  0.15976  Biso   1.000  H
  H182     1.0000 0.13964  0.00510  0.94092  Biso   1.000  H
  H183     1.0000 0.90285  0.12198  0.02541  Biso   1.000  H
  H184     1.0000 0.49766  0.90666  0.38375  Biso   1.000  H
  H185     1.0000 0.64184  0.00412  0.60303  Biso   1.000  H
  H186     1.0000 0.41023  0.14016  0.52949  Biso   1.000  H
  H187     1.0000 0.52211  0.41379  0.15275  Biso   1.000  H
  H188     1.0000 0.36113  0.51732  0.93521  Biso   1.000  H
  H189     1.0000 0.60600  0.62466  0.00702  Biso   1.000  H
  H190     1.0000 0.01295  0.39762  0.38928  Biso   1.000  H
  H191     1.0000 0.85494  0.48634  0.59951  Biso   1.000  H
  H192     1.0000 0.09305  0.63130  0.53007  Biso   1.000  H
  H193     1.0000 0.27236  0.85938  0.54304  Biso   1.000  H
  H194     1.0000 0.50533  0.27843  0.86989  Biso   1.000  H
  H195     1.0000 0.88253  0.48851  0.28141  Biso   1.000  H
  H196     1.0000 0.78963  0.83547  0.00859  Biso   1.000  H
  H197     1.0000 0.97736  0.27005  0.66851  Biso   1.000  H
  H198     1.0000 0.37903  0.47589  0.26166  Biso   1.000  H
  H199     1.0000 0.22834  0.35986  0.52072  Biso   1.000  H
  H200     1.0000 0.99473  0.77472  0.88472  Biso   1.000  H
  H201     1.0000 0.63513  0.97789  0.28174  Biso   1.000  H
  H202     1.0000 0.72604  0.33985  0.00226  Biso   1.000  H
  H203     1.0000 0.50781  0.78326  0.67428  Biso   1.000  H
  H204     1.0000 0.13526  0.02161  0.25833  Biso   1.000  H
  H205     1.0000 0.73446  0.14779  0.47926  Biso   1.000  H
  H206     1.0000 0.52427  0.72889  0.16938  Biso   1.000  H
  H207     1.0000 0.12033  0.49666  0.76879  Biso   1.000  H
  H208     1.0000 0.22666  0.15277  0.01414  Biso   1.000  H
  H209     1.0000 0.99564  0.71806  0.37741  Biso   1.000  H
  H210     1.0000 0.62923  0.52295  0.78804  Biso   1.000  H
  H211     1.0000 0.76813  0.64868  0.51669  Biso   1.000  H
  H212     1.0000 0.00864  0.21823  0.16645  Biso   1.000  H
  H213     1.0000 0.37269  0.02376  0.76293  Biso   1.000  H
  H214     1.0000 0.28639  0.65879  0.04177  Biso   1.000  H
  H215     1.0000 0.50797  0.22675  0.36887  Biso   1.000  H
  H216     1.0000 0.86997  0.97409  0.77970  Biso   1.000  H
  H217     1.0000 0.24786  0.51249  0.40069  Biso   1.000  H
  H218     1.0000 0.36665  0.24162  0.53379  Biso   1.000  H
  H219     1.0000 0.53097  0.35353  0.24570  Biso   1.000  H
  H220     1.0000 0.74513  0.47923  0.14988  Biso   1.000  H
  H221     1.0000 0.84746  0.21653  0.02362  Biso   1.000  H
  H222     1.0000 0.02623  0.34444  0.29233  Biso   1.000  H
  H223     1.0000 0.26580  0.01783  0.38700  Biso   1.000  H
  H224     1.0000 0.14891  0.72451  0.50008  Biso   1.000  H
  H225     1.0000 0.01456  0.84913  0.26093  Biso   1.000  H
  H226     1.0000 0.77089  0.98164  0.15317  Biso   1.000  H
  H227     1.0000 0.66848  0.71798  0.00576  Biso   1.000  H
  H228     1.0000 0.49874  0.85216  0.28912  Biso   1.000  H
  H229     1.0000 0.75425  0.48102  0.64612  Biso   1.000  H
  H230     1.0000 0.64691  0.77560  0.54221  Biso   1.000  H
  H231     1.0000 0.47618  0.65415  0.79561  Biso   1.000  H
  H232     1.0000 0.25793  0.51111  0.89391  Biso   1.000  H
  H233     1.0000 0.15812  0.77586  0.00676  Biso   1.000  H
  H234     1.0000 0.00463  0.64242  0.75582  Biso   1.000  H
  H235     1.0000 0.74067  0.99302  0.65069  Biso   1.000  H
  H236     1.0000 0.85393  0.27150  0.51527  Biso   1.000  H
  H237     1.0000 0.99538  0.14705  0.79151  Biso   1.000  H
  H238     1.0000 0.23286  0.98567  0.88600  Biso   1.000  H
  H239     1.0000 0.34815  0.28582  0.99289  Biso   1.000  H
  H240     1.0000 0.52753  0.14869  0.74610  Biso   1.000  H
  H241     1.0000 0.72099  0.49978  0.86156  Biso   1.000  H
  H242     1.0000 0.85573  0.72652  0.54395  Biso   1.000  H
  H243     1.0000 0.48672  0.87014  0.75299  Biso   1.000  H
  H244     1.0000 0.21482  0.51006  0.68998  Biso   1.000  H
  H245     1.0000 0.37841  0.74184  0.02187  Biso   1.000  H
  H246     1.0000 0.02599  0.85619  0.79532  Biso   1.000  H
  H247     1.0000 0.77785  0.97790  0.86263  Biso   1.000  H
  H248     1.0000 0.65133  0.23047  0.49982  Biso   1.000  H
  H249     1.0000 0.97849  0.35589  0.75078  Biso   1.000  H
  H250     1.0000 0.28719  0.00106  0.68215  Biso   1.000  H
  H251     1.0000 0.13090  0.23325  0.00216  Biso   1.000  H
  H252     1.0000 0.50006  0.36754  0.78492  Biso   1.000  H
  H253     1.0000 0.28610  0.50920  0.18592  Biso   1.000  H
  H254     1.0000 0.14018  0.27394  0.52895  Biso   1.000  H
  H255     1.0000 0.49403  0.13776  0.28660  Biso   1.000  H
  H256     1.0000 0.78428  0.49567  0.36149  Biso   1.000  H
  H257     1.0000 0.63620  0.25995  0.01611  Biso   1.000  H
  H258     1.0000 0.98760  0.13081  0.25105  Biso   1.000  H
  H259     1.0000 0.22915  0.02692  0.17087  Biso   1.000  H
  H260     1.0000 0.35547  0.77896  0.52387  Biso   1.000  H
  H261     1.0000 0.03109  0.63477  0.29427  Biso   1.000  H
  H262     1.0000 0.72543  0.98966  0.36071  Biso   1.000  H
  H263     1.0000 0.87835  0.75745  0.03604  Biso   1.000  H
  H264     1.0000 0.50819  0.64313  0.25003  Biso   1.000  H
  H265     1.0000 0.96033  0.22521  0.88273  Biso   1.000  H
  H266     1.0000 0.84671  0.96016  0.24133  Biso   1.000  H
  H267     1.0000 0.24175  0.86172  0.03583  Biso   1.000  H
  H268     1.0000 0.48807  0.23032  0.66122  Biso   1.000  H
  H269     1.0000 0.34413  0.99173  0.30138  Biso   1.000  H
  H270     1.0000 0.73285  0.86120  0.50744  Biso   1.000  H
  H271     1.0000 0.50067  0.73882  0.88587  Biso   1.000  H
  H272     1.0000 0.67022  0.49895  0.23864  Biso   1.000  H
  H273     1.0000 0.25939  0.36913  0.01992  Biso   1.000  H
  H274     1.0000 0.01867  0.73011  0.66657  Biso   1.000  H
  H275     1.0000 0.17005  0.48595  0.30548  Biso   1.000  H
  H276     1.0000 0.77087  0.35649  0.50817  Biso   1.000  H
  H277     1.0000 0.01937  0.76273  0.17261  Biso   1.000  H
  H278     1.0000 0.15383  0.01438  0.79672  Biso   1.000  H
  H279     1.0000 0.76445  0.12603  0.01520  Biso   1.000  H
  H280     1.0000 0.51242  0.77005  0.38242  Biso   1.000  H
  H281     1.0000 0.65528  0.96868  0.73475  Biso   1.000  H
  H282     1.0000 0.27996  0.14866  0.56177  Biso   1.000  H
  H283     1.0000 0.50202  0.27223  0.15762  Biso   1.000  H
  H284     1.0000 0.33613  0.48348  0.79916  Biso   1.000  H
  H285     1.0000 0.74497  0.62607  0.99067  Biso   1.000  H
  H286     1.0000 0.02268  0.26136  0.38093  Biso   1.000  H
  H287     1.0000 0.83274  0.51196  0.73788  Biso   1.000  H
  H288     1.0000 0.23265  0.64502  0.52569  Biso   1.000  H
  H289     1.0000 0.07647  0.22521  0.00224  Biso   1.000  H
  H290     1.0000 0.97565  0.07704  0.24746  Biso   1.000  H
  H291     1.0000 0.22736  0.02162  0.11950  Biso   1.000  H
  H292     1.0000 0.59699  0.22748  0.51239  Biso   1.000  H
  H293     1.0000 0.49181  0.08783  0.29011  Biso   1.000  H
  H294     1.0000 0.72751  0.00039  0.41307  Biso   1.000  H
  H295     1.0000 0.43180  0.74057  0.02310  Biso   1.000  H
  H296     1.0000 0.50209  0.58863  0.25011  Biso   1.000  H
  H297     1.0000 0.28224  0.51867  0.13109  Biso   1.000  H
  H298     1.0000 0.91210  0.72560  0.54446  Biso   1.000  H
  H299     1.0000 0.03777  0.58447  0.29680  Biso   1.000  H
  H300     1.0000 0.77977  0.50073  0.41360  Biso   1.000  H
  H301     1.0000 0.93056  0.76513  0.04706  Biso   1.000  H
  H302     1.0000 0.02888  0.91416  0.79218  Biso   1.000  H
  H303     1.0000 0.77859  0.97492  0.91552  Biso   1.000  H
  H304     1.0000 0.41241  0.77997  0.51378  Biso   1.000  H
  H305     1.0000 0.48991  0.92282  0.75087  Biso   1.000  H
  H306     1.0000 0.28063  0.00130  0.62906  Biso   1.000  H
  H307     1.0000 0.57932  0.26624  0.02579  Biso   1.000  H
  H308     1.0000 0.50631  0.42375  0.78974  Biso   1.000  H
  H309     1.0000 0.72263  0.49025  0.91775  Biso   1.000  H
  H310     1.0000 0.08568  0.27276  0.53134  Biso   1.000  H
  H311     1.0000 0.98274  0.41433  0.75090  Biso   1.000  H
  H312     1.0000 0.22107  0.50786  0.63577  Biso   1.000  H
  H313     1.0000 0.23136  0.99217  0.93945  Biso   1.000  H
  H314     1.0000 0.90131  0.21845  0.02442  Biso   1.000  H
  H315     1.0000 0.00813  0.90303  0.25544  Biso   1.000  H
  H316     1.0000 0.73910  0.00077  0.59705  Biso   1.000  H
  H317     1.0000 0.42162  0.23596  0.52761  Biso   1.000  H
  H318     1.0000 0.50106  0.90696  0.28910  Biso   1.000  H
  H319     1.0000 0.26456  0.51872  0.94955  Biso   1.000  H
  H320     1.0000 0.61582  0.72160  0.01205  Biso   1.000  H
  H321     1.0000 0.53972  0.40609  0.24682  Biso   1.000  H
  H322     1.0000 0.75951  0.47258  0.59505  Biso   1.000  H
  H323     1.0000 0.09057  0.72375  0.50111  Biso   1.000  H
  H324     1.0000 0.02275  0.39964  0.29174  Biso   1.000  H
  H325     1.0000 0.77253  0.97689  0.09697  Biso   1.000  H
  H326     1.0000 0.10613  0.77704  0.00193  Biso   1.000  H
  H327     1.0000 0.00633  0.09684  0.79362  Biso   1.000  H
  H328     1.0000 0.26745  0.01488  0.44299  Biso   1.000  H
  H329     1.0000 0.59445  0.77650  0.55065  Biso   1.000  H
  H330     1.0000 0.53914  0.09591  0.74634  Biso   1.000  H
  H331     1.0000 0.74153  0.46967  0.09448  Biso   1.000  H
  H332     1.0000 0.39764  0.28652  0.99829  Biso   1.000  H
  H333     1.0000 0.46714  0.60019  0.79623  Biso   1.000  H
  H334     1.0000 0.24174  0.50789  0.45252  Biso   1.000  H
  H335     1.0000 0.90911  0.27177  0.51779  Biso   1.000  H
  H336     1.0000 0.99816  0.58892  0.75303  Biso   1.000  H
  H337     1.0000 0.96215  0.21874  0.93631  Biso   1.000  H
  H338     1.0000 0.90505  0.96261  0.24326  Biso   1.000  H
  H339     1.0000 0.23862  0.91748  0.04131  Biso   1.000  H
  H340     1.0000 0.48648  0.22763  0.60910  Biso   1.000  H
  H341     1.0000 0.39703  0.98168  0.29864  Biso   1.000  H
  H342     1.0000 0.72991  0.91334  0.49800  Biso   1.000  H
  H343     1.0000 0.50927  0.73224  0.93886  Biso   1.000  H
  H344     1.0000 0.61273  0.50736  0.24428  Biso   1.000  H
  H345     1.0000 0.26027  0.42092  0.02640  Biso   1.000  H
  H346     1.0000 0.01755  0.72794  0.61332  Biso   1.000  H
  H347     1.0000 0.11757  0.48390  0.30017  Biso   1.000  H
  H348     1.0000 0.77198  0.41137  0.50108  Biso   1.000  H
  H349     1.0000 0.01826  0.76247  0.11606  Biso   1.000  H
  H350     1.0000 0.09969  0.02165  0.79619  Biso   1.000  H
  H351     1.0000 0.76719  0.07183  0.01016  Biso   1.000  H
  H352     1.0000 0.51558  0.77434  0.43842  Biso   1.000  H
  H353     1.0000 0.60396  0.97629  0.74040  Biso   1.000  H
  H354     1.0000 0.28223  0.09512  0.56100  Biso   1.000  H
  H355     1.0000 0.49599  0.27839  0.10395  Biso   1.000  H
  H356     1.0000 0.39086  0.48511  0.79952  Biso   1.000  H
  H357     1.0000 0.74227  0.57672  0.99077  Biso   1.000  H
  H358     1.0000 0.01423  0.26122  0.43140  Biso   1.000  H
  H359     1.0000 0.88767  0.51130  0.74371  Biso   1.000  H
  H360     1.0000 0.23100  0.59355  0.53676  Biso   1.000  H
  H361     1.0000 0.97766  0.71668  0.43094  Biso   1.000  H
  H362     1.0000 0.42567  0.02979  0.76007  Biso   1.000  H
  H363     1.0000 0.72860  0.39347  0.00020  Biso   1.000  H
  H364     1.0000 0.53163  0.72829  0.11387  Biso   1.000  H
  H365     1.0000 0.92821  0.98262  0.78555  Biso   1.000  H
  H366     1.0000 0.23125  0.40798  0.54181  Biso   1.000  H
  H367     1.0000 0.51253  0.22665  0.42298  Biso   1.000  H
  H368     1.0000 0.06416  0.49717  0.76419  Biso   1.000  H
  H369     1.0000 0.78437  0.88869  0.00316  Biso   1.000  H
  H370     1.0000 0.01408  0.21713  0.10921  Biso   1.000  H
  H371     1.0000 0.57824  0.53632  0.79482  Biso   1.000  H
  H372     1.0000 0.27231  0.91383  0.54279  Biso   1.000  H
  H373     1.0000 0.98632  0.27032  0.61521  Biso   1.000  H
  H374     1.0000 0.57620  0.98298  0.28727  Biso   1.000  H
  H375     1.0000 0.28490  0.60953  0.04716  Biso   1.000  H
  H376     1.0000 0.51067  0.27621  0.92374  Biso   1.000  H
  H377     1.0000 0.08216  0.02273  0.25355  Biso   1.000  H
  H378     1.0000 0.76975  0.59278  0.51544  Biso   1.000  H
  H379     1.0000 0.50424  0.77879  0.62071  Biso   1.000  H
  H380     1.0000 0.93551  0.48906  0.28813  Biso   1.000  H
  H381     1.0000 0.23108  0.10387  0.02079  Biso   1.000  H
  H382     1.0000 0.98835  0.77840  0.93981  Biso   1.000  H
  H383     1.0000 0.43167  0.48044  0.25513  Biso   1.000  H
  H384     1.0000 0.73618  0.09680  0.48184  Biso   1.000  H
  H385     1.0000 0.25572  0.47191  0.37277  Biso   1.000  H
  H386     1.0000 0.27527  0.17004  0.52181  Biso   1.000  H
  H387     1.0000 0.49425  0.32894  0.24289  Biso   1.000  H
  H388     1.0000 0.69443  0.46472  0.23302  Biso   1.000  H
  H389     1.0000 0.81338  0.21182  0.05036  Biso   1.000  H
  H390     1.0000 0.98944  0.26719  0.35264  Biso   1.000  H
  H391     1.0000 0.26177  0.98011  0.35764  Biso   1.000  H
  H392     1.0000 0.18290  0.71818  0.48145  Biso   1.000  H
  H393     1.0000 0.05479  0.77289  0.20388  Biso   1.000  H
  H394     1.0000 0.77032  0.94271  0.17968  Biso   1.000  H
  H395     1.0000 0.74527  0.64977  0.02933  Biso   1.000  H
  H396     1.0000 0.46757  0.81002  0.30134  Biso   1.000  H
  H397     1.0000 0.75208  0.51695  0.67156  Biso   1.000  H
  H398     1.0000 0.73270  0.83375  0.54357  Biso   1.000  H
  H399     1.0000 0.45534  0.68811  0.81007  Biso   1.000  H
  H400     1.0000 0.30501  0.53161  0.81082  Biso   1.000  H
  H401     1.0000 0.24644  0.84332  0.00035  Biso   1.000  H
  H402     1.0000 0.04432  0.67530  0.75114  Biso   1.000  H
  H403     1.0000 0.73936  0.95502  0.66806  Biso   1.000  H
  H404     1.0000 0.76974  0.32253  0.53392  Biso   1.000  H
  H405     1.0000 0.99152  0.22960  0.85448  Biso   1.000  H
  H406     1.0000 0.23189  0.02861  0.86183  Biso   1.000  H
  H407     1.0000 0.25745  0.34262  0.99034  Biso   1.000  H
  H408     1.0000 0.49438  0.17397  0.75455  Biso   1.000  H
  H409     1.0000 0.28435  0.46859  0.20891  Biso   1.000  H
  H410     1.0000 0.17232  0.27403  0.49892  Biso   1.000  H
  H411     1.0000 0.47108  0.22258  0.33678  Biso   1.000  H
  H412     1.0000 0.84677  0.45939  0.28717  Biso   1.000  H
  H413     1.0000 0.66293  0.25718  0.98360  Biso   1.000  H
  H414     1.0000 0.95960  0.17561  0.23692  Biso   1.000  H
  H415     1.0000 0.16525  0.05109  0.25570  Biso   1.000  H
  H416     1.0000 0.27420  0.83343  0.50428  Biso   1.000  H
  H417     1.0000 0.00160  0.66008  0.29226  Biso   1.000  H
  H418     1.0000 0.71669  0.95101  0.33678  Biso   1.000  H
  H419     1.0000 0.83399  0.76409  0.06238  Biso   1.000  H
  H420     1.0000 0.47204  0.67872  0.23674  Biso   1.000  H
  H421     1.0000 0.71650  0.53262  0.83182  Biso   1.000  H
  H422     1.0000 0.77058  0.67586  0.55892  Biso   1.000  H
  H423     1.0000 0.52032  0.84266  0.76213  Biso   1.000  H
  H424     1.0000 0.15165  0.52648  0.77868  Biso   1.000  H
  H425     1.0000 0.34448  0.73621  0.99461  Biso   1.000  H
  H426     1.0000 0.02885  0.77459  0.85667  Biso   1.000  H
  H427     1.0000 0.83988  0.00890  0.77239  Biso   1.000  H
  H428     1.0000 0.73191  0.17917  0.51939  Biso   1.000  H
  H429     1.0000 0.01513  0.32623  0.74190  Biso   1.000  H
  H430     1.0000 0.34409  0.98967  0.76050  Biso   1.000  H
  H431     1.0000 0.17140  0.22609  0.97169  Biso   1.000  H
  H432     1.0000 0.47437  0.28470  0.83887  Biso   1.000  H
  H433     1.0000 0.28723  0.03854  0.70357  Biso   1.000  H
  H434     1.0000 0.72680  0.31475  0.03442  Biso   1.000  H
  H435     1.0000 0.03210  0.72430  0.35874  Biso   1.000  H
  H436     1.0000 0.78394  0.94994  0.82850  Biso   1.000  H
  H437     1.0000 0.22638  0.33146  0.55501  Biso   1.000  H
  H438     1.0000 0.55933  0.70857  0.21047  Biso   1.000  H
  H439     1.0000 0.20360  0.47513  0.71340  Biso   1.000  H
  H440     1.0000 0.81031  0.80302  0.98012  Biso   1.000  H
  H441     1.0000 0.53216  0.16732  0.28937  Biso   1.000  H
  H442     1.0000 0.64698  0.48665  0.78340  Biso   1.000  H
  H443     1.0000 0.32947  0.77597  0.55819  Biso   1.000  H
  H444     1.0000 0.04665  0.20181  0.20243  Biso   1.000  H
  H445     1.0000 0.66699  0.00795  0.27577  Biso   1.000  H
  H446     1.0000 0.29934  0.69806  0.07019  Biso   1.000  H
  H447     1.0000 0.94342  0.27874  0.69857  Biso   1.000  H
  H448     1.0000 0.22323  0.99511  0.20453  Biso   1.000  H
  H449     1.0000 0.83078  0.72638  0.49937  Biso   1.000  H
  H450     1.0000 0.53988  0.33658  0.79347  Biso   1.000  H
  H451     1.0000 0.79794  0.53199  0.32656  Biso   1.000  H
  H452     1.0000 0.21585  0.18632  0.04444  Biso   1.000  H
  H453     1.0000 0.46602  0.78643  0.70365  Biso   1.000  H
  H454     1.0000 0.35376  0.51104  0.26389  Biso   1.000  H
  H455     1.0000 0.67482  0.22304  0.45989  Biso   1.000  H
  H456     1.0000 0.98857  0.83288  0.79107  Biso   1.000  H
  H457     1.0000 0.66968  0.76762  0.50588  Biso   1.000  H
  H458     1.0000 0.53107  0.72752  0.85164  Biso   1.000  H
  H459     1.0000 0.80553  0.47147  0.73657  Biso   1.000  H
  H460     1.0000 0.18604  0.77714  0.03827  Biso   1.000  H
  H461     1.0000 0.98406  0.72960  0.69803  Biso   1.000  H
  H462     1.0000 0.26128  0.46990  0.86956  Biso   1.000  H
  H463     1.0000 0.83127  0.28305  0.47199  Biso   1.000  H
  H464     1.0000 0.95767  0.17001  0.78780  Biso   1.000  H
  H465     1.0000 0.68722  0.99521  0.73927  Biso   1.000  H
  H466     1.0000 0.32219  0.28483  0.03045  Biso   1.000  H
  H467     1.0000 0.52866  0.23481  0.68386  Biso   1.000  H
  H468     1.0000 0.18202  0.98505  0.79521  Biso   1.000  H
  H469     1.0000 0.33266  0.23945  0.55551  Biso   1.000  H
  H470     1.0000 0.53646  0.26869  0.18182  Biso   1.000  H
  H471     1.0000 0.19567  0.52149  0.31424  Biso   1.000  H
  H472     1.0000 0.76529  0.16008  0.98293  Biso   1.000  H
  H473     1.0000 0.04930  0.31366  0.29164  Biso   1.000  H
  H474     1.0000 0.75446  0.51167  0.17399  Biso   1.000  H
  H475     1.0000 0.22011  0.68100  0.55997  Biso   1.000  H
  H476     1.0000 0.98143  0.81209  0.25170  Biso   1.000  H
  H477     1.0000 0.32216  0.03481  0.30721  Biso   1.000  H
  H478     1.0000 0.70040  0.71491  0.97359  Biso   1.000  H
  H479     1.0000 0.54499  0.77898  0.35008  Biso   1.000  H
  H480     1.0000 0.82084  0.99561  0.24091  Biso   1.000  H
  N1       1.0000 0.68140  0.17733  0.49327  Biso   1.000  N
  N2       1.0000 0.51548  0.67278  0.20058  Biso   1.000  N
  N3       1.0000 0.15718  0.50487  0.71770  Biso   1.000  N
  N4       1.0000 0.16930  0.18392  0.01278  Biso   1.000  N
  N5       1.0000 0.01486  0.66694  0.34811  Biso   1.000  N
  N6       1.0000 0.66320  0.50876  0.83627  Biso   1.000  N
  N7       1.0000 0.82232  0.67809  0.53054  Biso   1.000  N
  N8       1.0000 0.00185  0.16237  0.19800  Biso   1.000  N
  N9       1.0000 0.33935  0.01499  0.70954  Biso   1.000  N
  N10      1.0000 0.34230  0.69075  0.02863  Biso   1.000  N
  N11      1.0000 0.50221  0.17199  0.33828  Biso   1.000  N
  N12      1.0000 0.83355  0.98439  0.82891  Biso   1.000  N
  N13      1.0000 0.32522  0.82832  0.53125  Biso   1.000  N
  N14      1.0000 0.50608  0.33243  0.83830  Biso   1.000  N
  N15      1.0000 0.84319  0.49629  0.33184  Biso   1.000  N
  N16      1.0000 0.84219  0.80836  0.02495  Biso   1.000  N
  N17      1.0000 0.97958  0.32612  0.69976  Biso   1.000  N
  N18      1.0000 0.34067  0.49130  0.21231  Biso   1.000  N
  N19      1.0000 0.17469  0.32501  0.52853  Biso   1.000  N
  N20      1.0000 0.00808  0.82837  0.84864  Biso   1.000  N
  N21      1.0000 0.66832  0.98699  0.33076  Biso   1.000  N
  N22      1.0000 0.67065  0.31033  0.01118  Biso   1.000  N
  N23      1.0000 0.49592  0.83501  0.70458  Biso   1.000  N
  N24      1.0000 0.17375  0.01981  0.20614  Biso   1.000  N
  N25      1.0000 0.80562  0.49685  0.68249  Biso   1.000  N
  N26      1.0000 0.67828  0.82581  0.52065  Biso   1.000  N
  N27      1.0000 0.49165  0.68410  0.85144  Biso   1.000  N
  N28      1.0000 0.30658  0.50026  0.85776  Biso   1.000  N
  N29      1.0000 0.19251  0.83189  0.01898  Biso   1.000  N
  N30      1.0000 0.01366  0.67586  0.70187  Biso   1.000  N
  N31      1.0000 0.68843  0.98147  0.68203  Biso   1.000  N
  N32      1.0000 0.82459  0.32547  0.50632  Biso   1.000  N
  N33      1.0000 0.97455  0.17636  0.84354  Biso   1.000  N
  N34      1.0000 0.18246  0.00330  0.85091  Biso   1.000  N
  N35      1.0000 0.31362  0.33781  0.01158  Biso   1.000  N
  N36      1.0000 0.51333  0.18066  0.69413  Biso   1.000  N
  N37      1.0000 0.19500  0.49383  0.36374  Biso   1.000  N
  N38      1.0000 0.32870  0.18390  0.53715  Biso   1.000  N
  N39      1.0000 0.51641  0.32441  0.19111  Biso   1.000  N
  N40      1.0000 0.69661  0.49184  0.18326  Biso   1.000  N
  N41      1.0000 0.81624  0.16179  0.01727  Biso   1.000  N
  N42      1.0000 0.01937  0.31333  0.34458  Biso   1.000  N
  N43      1.0000 0.31635  0.00604  0.35441  Biso   1.000  N
  N44      1.0000 0.17708  0.67633  0.52117  Biso   1.000  N
  N45      1.0000 0.01766  0.81593  0.20436  Biso   1.000  N
  N46      1.0000 0.82046  0.97237  0.18770  Biso   1.000  N
  N47      1.0000 0.69709  0.66115  0.00286  Biso   1.000  N
  N48      1.0000 0.50447  0.82037  0.34693  Biso   1.000  N
  O1       1.0000 0.35196  0.55260  0.03168  Biso   1.000  O
  O2       1.0000 0.99679  0.34184  0.56549  Biso   1.000  O
  O3       1.0000 0.53616  0.99116  0.35982  Biso   1.000  O
  O4       1.0000 0.83912  0.54423  0.51949  Biso   1.000  O
  O5       1.0000 0.50288  0.34758  0.97333  Biso   1.000  O
  O6       1.0000 0.03976  0.00226  0.17930  Biso   1.000  O
  O7       1.0000 0.15832  0.04753  0.02479  Biso   1.000  O
  O8       1.0000 0.49587  0.85220  0.56742  Biso   1.000  O
  O9       1.0000 0.97557  0.49445  0.36689  Biso   1.000  O
  O10      1.0000 0.66241  0.04510  0.49932  Biso   1.000  O
  O11      1.0000 0.00754  0.84807  0.98735  Biso   1.000  O
  O12      1.0000 0.47569  0.49313  0.17930  Biso   1.000  O
  O13      1.0000 0.65786  0.44672  0.01037  Biso   1.000  O
  O14      1.0000 0.99216  0.64953  0.48284  Biso   1.000  O
  O15      1.0000 0.47099  0.02103  0.68291  Biso   1.000  O
  O16      1.0000 0.16292  0.46011  0.53619  Biso   1.000  O
  O17      1.0000 0.52147  0.65798  0.06483  Biso   1.000  O
  O18      1.0000 0.96544  0.99481  0.86211  Biso   1.000  O
  O19      1.0000 0.85556  0.94528  0.00572  Biso   1.000  O
  O20      1.0000 0.50370  0.15661  0.47510  Biso   1.000  O
  O21      1.0000 0.02737  0.50358  0.68490  Biso   1.000  O
  O22      1.0000 0.34550  0.96599  0.52874  Biso   1.000  O
  O23      1.0000 0.00057  0.14737  0.06128  Biso   1.000  O
  O24      1.0000 0.52894  0.51030  0.86483  Biso   1.000  O
  O25      1.0000 0.95962  0.97766  0.17055  Biso   1.000  O
  O26      1.0000 0.16489  0.96373  0.03411  Biso   1.000  O
  O27      1.0000 0.98594  0.14681  0.97672  Biso   1.000  O
  O28      1.0000 0.45234  0.99686  0.36579  Biso   1.000  O
  O29      1.0000 0.65831  0.96000  0.50724  Biso   1.000  O
  O30      1.0000 0.50282  0.15759  0.56076  Biso   1.000  O
  O31      1.0000 0.56203  0.50599  0.17530  Biso   1.000  O
  O32      1.0000 0.33724  0.47025  0.02730  Biso   1.000  O
  O33      1.0000 0.51337  0.65867  0.98027  Biso   1.000  O
  O34      1.0000 0.05917  0.48705  0.36910  Biso   1.000  O
  O35      1.0000 0.84433  0.46216  0.49949  Biso   1.000  O
  O36      1.0000 0.00141  0.65445  0.56796  Biso   1.000  O
  O37      1.0000 0.04865  0.01187  0.86914  Biso   1.000  O
  O38      1.0000 0.84280  0.02928  0.01839  Biso   1.000  O
  O39      1.0000 0.02373  0.83736  0.06918  Biso   1.000  O
  O40      1.0000 0.54691  0.99030  0.67138  Biso   1.000  O
  O41      1.0000 0.34868  0.05091  0.52756  Biso   1.000  O
  O42      1.0000 0.50605  0.84927  0.48042  Biso   1.000  O
  O43      1.0000 0.44327  0.50444  0.86638  Biso   1.000  O
  O44      1.0000 0.66552  0.52811  0.01444  Biso   1.000  O
  O45      1.0000 0.49162  0.35065  0.05903  Biso   1.000  O
  O46      1.0000 0.94518  0.50100  0.67585  Biso   1.000  O
  O47      1.0000 0.15744  0.54258  0.54122  Biso   1.000  O
  O48      1.0000 0.00633  0.33734  0.47882  Biso   1.000  O
  O49      1.0000 0.00881  0.94921  0.17987  Biso   1.000  O
  O50      1.0000 0.16101  0.00069  0.98765  Biso   1.000  O
  O51      1.0000 0.95014  0.14678  0.02378  Biso   1.000  O
  O52      1.0000 0.49544  0.95271  0.36214  Biso   1.000  O
  O53      1.0000 0.66379  0.00129  0.54850  Biso   1.000  O
  O54      1.0000 0.46353  0.15888  0.52071  Biso   1.000  O
  O55      1.0000 0.52438  0.45906  0.17907  Biso   1.000  O
  O56      1.0000 0.34073  0.51597  0.98882  Biso   1.000  O
  O57      1.0000 0.55880  0.65197  0.02093  Biso   1.000  O
  O58      1.0000 0.01107  0.44876  0.36639  Biso   1.000  O
  O59      1.0000 0.83540  0.49765  0.55087  Biso   1.000  O
  O60      1.0000 0.04109  0.65260  0.52284  Biso   1.000  O
  O61      1.0000 0.00074  0.04457  0.86267  Biso   1.000  O
  O62      1.0000 0.84964  0.98182  0.05241  Biso   1.000  O
  O63      1.0000 0.05546  0.84614  0.01894  Biso   1.000  O
  O64      1.0000 0.52509  0.04919  0.67540  Biso   1.000  O
  O65      1.0000 0.34202  0.01358  0.48820  Biso   1.000  O
  O66      1.0000 0.54567  0.84833  0.52807  Biso   1.000  O
  O67      1.0000 0.48144  0.54851  0.86885  Biso   1.000  O
  O68      1.0000 0.66731  0.48531  0.05273  Biso   1.000  O
  O69      1.0000 0.45298  0.35585  0.01504  Biso   1.000  O
  O70      1.0000 0.98715  0.54487  0.68148  Biso   1.000  O
  O71      1.0000 0.16101  0.50063  0.49820  Biso   1.000  O
  O72      1.0000 0.95876  0.34212  0.51739  Biso   1.000  O
  O73      1.0000 0.98613  0.45997  0.67798  Biso   1.000  O
  O74      1.0000 0.65773  0.00015  0.46557  Biso   1.000  O
  O75      1.0000 0.47593  0.66412  0.02935  Biso   1.000  O
  O76      1.0000 0.48756  0.46527  0.86065  Biso   1.000  O
  O77      1.0000 0.15668  0.01306  0.07173  Biso   1.000  O
  O78      1.0000 0.95643  0.65311  0.52832  Biso   1.000  O
  O79      1.0000 0.49729  0.96766  0.67524  Biso   1.000  O
  O80      1.0000 0.84491  0.51296  0.46977  Biso   1.000  O
  O81      1.0000 0.03272  0.14946  0.01129  Biso   1.000  O
  O82      1.0000 0.01707  0.96329  0.86197  Biso   1.000  O
  O83      1.0000 0.35036  0.51104  0.07306  Biso   1.000  O
  O84      1.0000 0.54691  0.15555  0.51621  Biso   1.000  O
  O85      1.0000 0.02015  0.53128  0.36812  Biso   1.000  O
  O86      1.0000 0.34812  0.00843  0.57203  Biso   1.000  O
  O87      1.0000 0.53887  0.34288  0.02379  Biso   1.000  O
  O88      1.0000 0.51162  0.53921  0.17674  Biso   1.000  O
  O89      1.0000 0.84700  0.99279  0.96893  Biso   1.000  O
  O90      1.0000 0.03796  0.34129  0.53068  Biso   1.000  O
  O91      1.0000 0.49890  0.03714  0.36401  Biso   1.000  O
  O92      1.0000 0.15660  0.49977  0.57999  Biso   1.000  O
  O93      1.0000 0.97480  0.84071  0.03931  Biso   1.000  O
  O94      1.0000 0.98846  0.02926  0.17496  Biso   1.000  O
  O95      1.0000 0.65533  0.48956  0.97077  Biso   1.000  O
  O96      1.0000 0.46090  0.85260  0.52016  Biso   1.000  O
  O97      1.0000 0.46661  0.20874  0.51758  Biso   1.000  O
  O98      1.0000 0.52781  0.45810  0.22739  Biso   1.000  O
  O99      1.0000 0.20958  0.49690  0.50368  Biso   1.000  O
  O100     1.0000 0.95066  0.19538  0.02784  Biso   1.000  O
  O101     1.0000 0.02220  0.44873  0.31769  Biso   1.000  O
  O102     1.0000 0.71504  0.48621  0.04580  Biso   1.000  O
  O103     1.0000 0.04195  0.70055  0.51582  Biso   1.000  O
  O104     1.0000 0.00968  0.95093  0.22886  Biso   1.000  O
  O105     1.0000 0.29422  0.01185  0.49292  Biso   1.000  O
  O106     1.0000 0.56397  0.69977  0.01488  Biso   1.000  O
  O107     1.0000 0.49083  0.95320  0.31285  Biso   1.000  O
  O108     1.0000 0.80181  0.97390  0.04983  Biso   1.000  O
  O109     1.0000 0.54338  0.80103  0.53615  Biso   1.000  O
  O110     1.0000 0.48234  0.55209  0.81974  Biso   1.000  O
  O111     1.0000 0.78629  0.49639  0.54806  Biso   1.000  O
  O112     1.0000 0.05875  0.79651  0.01251  Biso   1.000  O
  O113     1.0000 0.98078  0.54419  0.73087  Biso   1.000  O
  O114     1.0000 0.29284  0.52157  0.99277  Biso   1.000  O
  O115     1.0000 0.95748  0.29384  0.51492  Biso   1.000  O
  O116     1.0000 0.00838  0.04389  0.81446  Biso   1.000  O
  O117     1.0000 0.71213  0.00823  0.54566  Biso   1.000  O
  O118     1.0000 0.44903  0.30749  0.01290  Biso   1.000  O
  O119     1.0000 0.52987  0.04664  0.72498  Biso   1.000  O
  O120     1.0000 0.20820  0.01302  0.98611  Biso   1.000  O
  O121     1.0000 0.01761  0.50115  0.73292  Biso   1.000  O
  O122     1.0000 0.71169  0.04636  0.50004  Biso   1.000  O
  O123     1.0000 0.52953  0.70671  0.06382  Biso   1.000  O
  O124     1.0000 0.52758  0.51217  0.81589  Biso   1.000  O
  O125     1.0000 0.20791  0.04989  0.02719  Biso   1.000  O
  O126     1.0000 0.99416  0.69862  0.48183  Biso   1.000  O
  O127     1.0000 0.47696  0.02285  0.73077  Biso   1.000  O
  O128     1.0000 0.79020  0.54251  0.51201  Biso   1.000  O
  O129     1.0000 0.99701  0.19615  0.06242  Biso   1.000  O
  O130     1.0000 0.97147  0.99946  0.81344  Biso   1.000  O
  O131     1.0000 0.30439  0.55878  0.03589  Biso   1.000  O
  O132     1.0000 0.51032  0.20511  0.47360  Biso   1.000  O
  O133     1.0000 0.98113  0.49151  0.31750  Biso   1.000  O
  O134     1.0000 0.29812  0.96593  0.52648  Biso   1.000  O
  O135     1.0000 0.49319  0.30079  0.97657  Biso   1.000  O
  O136     1.0000 0.47785  0.48894  0.22922  Biso   1.000  O
  O137     1.0000 0.80651  0.93900  0.00819  Biso   1.000  O
  O138     1.0000 0.99419  0.29289  0.56617  Biso   1.000  O
  O139     1.0000 0.53302  0.99719  0.31082  Biso   1.000  O
  O140     1.0000 0.21029  0.45931  0.54770  Biso   1.000  O
  O141     1.0000 0.00143  0.79991  0.98495  Biso   1.000  O
  O142     1.0000 0.03454  0.00674  0.22882  Biso   1.000  O
  O143     1.0000 0.70728  0.44327  0.00893  Biso   1.000  O
  O144     1.0000 0.49488  0.80403  0.56582  Biso   1.000  O
  O145     1.0000 0.56148  0.50359  0.22448  Biso   1.000  O
  O146     1.0000 0.20679  0.54334  0.54221  Biso   1.000  O
  O147     1.0000 0.50319  0.20665  0.55904  Biso   1.000  O
  O148     1.0000 0.06378  0.48694  0.31995  Biso   1.000  O
  O149     1.0000 0.71373  0.52554  0.00626  Biso   1.000  O
  O150     1.0000 0.98460  0.19575  0.97850  Biso   1.000  O
  O151     1.0000 0.95568  0.97517  0.22004  Biso   1.000  O
  O152     1.0000 0.30010  0.04989  0.53901  Biso   1.000  O
  O153     1.0000 0.00618  0.70227  0.56424  Biso   1.000  O
  O154     1.0000 0.44961  0.99329  0.31795  Biso   1.000  O
  O155     1.0000 0.79347  0.02346  0.01386  Biso   1.000  O
  O156     1.0000 0.51337  0.70795  0.98313  Biso   1.000  O
  O157     1.0000 0.44276  0.50563  0.81589  Biso   1.000  O
  O158     1.0000 0.79559  0.46032  0.49951  Biso   1.000  O
  O159     1.0000 0.51141  0.80015  0.48444  Biso   1.000  O
  O160     1.0000 0.93636  0.50540  0.72366  Biso   1.000  O
  O161     1.0000 0.28931  0.47482  0.03273  Biso   1.000  O
  O162     1.0000 0.02496  0.78982  0.06475  Biso   1.000  O
  O163     1.0000 0.05098  0.00632  0.81992  Biso   1.000  O
  O164     1.0000 0.70779  0.96200  0.50765  Biso   1.000  O
  O165     1.0000 0.00724  0.28774  0.48231  Biso   1.000  O
  O166     1.0000 0.55449  0.99453  0.71914  Biso   1.000  O
  O167     1.0000 0.21219  0.96645  0.02542  Biso   1.000  O
  O168     1.0000 0.48183  0.30349  0.05896  Biso   1.000  O
  O169     1.0000 0.98273  0.02997  0.22464  Biso   1.000  O
  O170     1.0000 0.20558  0.00648  0.07041  Biso   1.000  O
  O171     1.0000 0.03239  0.19735  0.01345  Biso   1.000  O
  O172     1.0000 0.48674  0.03751  0.31711  Biso   1.000  O
  O173     1.0000 0.70590  0.00107  0.46166  Biso   1.000  O
  O174     1.0000 0.54905  0.20379  0.51745  Biso   1.000  O
  O175     1.0000 0.51004  0.53821  0.22461  Biso   1.000  O
  O176     1.0000 0.30182  0.51462  0.07836  Biso   1.000  O
  O177     1.0000 0.48010  0.71250  0.03079  Biso   1.000  O
  O178     1.0000 0.02745  0.53115  0.31933  Biso   1.000  O
  O179     1.0000 0.79646  0.50616  0.46303  Biso   1.000  O
  O180     1.0000 0.95836  0.70211  0.52974  Biso   1.000  O
  O181     1.0000 0.01561  0.96137  0.81373  Biso   1.000  O
  O182     1.0000 0.79915  0.99035  0.96681  Biso   1.000  O
  O183     1.0000 0.97517  0.79189  0.03679  Biso   1.000  O
  O184     1.0000 0.50188  0.96948  0.72340  Biso   1.000  O
  O185     1.0000 0.29896  0.00242  0.57634  Biso   1.000  O
  O186     1.0000 0.46072  0.80295  0.51997  Biso   1.000  O
  O187     1.0000 0.49269  0.46974  0.81319  Biso   1.000  O
  O188     1.0000 0.70513  0.48866  0.96340  Biso   1.000  O
  O189     1.0000 0.53215  0.29581  0.02170  Biso   1.000  O
  O190     1.0000 0.98095  0.46111  0.72645  Biso   1.000  O
  O191     1.0000 0.20490  0.50604  0.58823  Biso   1.000  O
  O192     1.0000 0.04134  0.29233  0.52724  Biso   1.000  O
