data_image0
_cell_length_a       47.4163
_cell_length_b       46.6177
_cell_length_c       46.5839
_cell_angle_alpha    90
_cell_angle_beta     90
_cell_angle_gamma    90

_symmetry_space_group_name_H-M    "P 1"
_symmetry_int_tables_number       1

loop_
  _symmetry_equiv_pos_as_xyz
  'x, y, z'

loop_
  _atom_site_label
  _atom_site_occupancy
  _atom_site_fract_x
  _atom_site_fract_y
  _atom_site_fract_z
  _atom_site_thermal_displace_type
  _atom_site_B_iso_or_equiv
  _atom_site_type_symbol
  C1       1.0000 0.59842  0.98170  0.32032  Biso   1.000  C
  C2       1.0000 0.35867  0.54846  0.01036  Biso   1.000  C
  C3       1.0000 0.04430  0.30767  0.56766  Biso   1.000  C
  C4       1.0000 0.10187  0.98983  0.18479  Biso   1.000  C
  C5       1.0000 0.85297  0.53241  0.49878  Biso   1.000  C
  C6       1.0000 0.54522  0.30874  0.94266  Biso   1.000  C
  C7       1.0000 0.98958  0.49193  0.31945  Biso   1.000  C
  C8       1.0000 0.22425  0.05265  0.00729  Biso   1.000  C
  C9       1.0000 0.52230  0.80657  0.56192  Biso   1.000  C
  C10      1.0000 0.49515  0.46886  0.18587  Biso   1.000  C
  C11      1.0000 0.72331  0.03083  0.50456  Biso   1.000  C
  C12      1.0000 0.04712  0.81229  0.93874  Biso   1.000  C
  C13      1.0000 0.48357  0.99038  0.68664  Biso   1.000  C
  C14      1.0000 0.72210  0.42535  0.00432  Biso   1.000  C
  C15      1.0000 0.02765  0.66407  0.44079  Biso   1.000  C
  C16      1.0000 0.98370  0.99760  0.82199  Biso   1.000  C
  C17      1.0000 0.22263  0.44058  0.50614  Biso   1.000  C
  C18      1.0000 0.54488  0.66403  0.06353  Biso   1.000  C
  C19      1.0000 0.08852  0.49304  0.68337  Biso   1.000  C
  C20      1.0000 0.86081  0.92656  0.00842  Biso   1.000  C
  C21      1.0000 0.54956  0.16804  0.44391  Biso   1.000  C
  C22      1.0000 0.58800  0.48873  0.82350  Biso   1.000  C
  C23      1.0000 0.35397  0.94038  0.49693  Biso   1.000  C
  C24      1.0000 0.04200  0.16495  0.06463  Biso   1.000  C
  C25      1.0000 0.36469  0.04805  0.50688  Biso   1.000  C
  C26      1.0000 0.53613  0.30612  0.05033  Biso   1.000  C
  C27      1.0000 0.09928  0.48072  0.32025  Biso   1.000  C
  C28      1.0000 0.86684  0.03368  0.99986  Biso   1.000  C
  C29      1.0000 0.04811  0.30706  0.45735  Biso   1.000  C
  C30      1.0000 0.60493  0.48103  0.18367  Biso   1.000  C
  C31      1.0000 0.21543  0.54857  0.49895  Biso   1.000  C
  C32      1.0000 0.04819  0.80586  0.04745  Biso   1.000  C
  C33      1.0000 0.48594  0.98305  0.32226  Biso   1.000  C
  C34      1.0000 0.72955  0.53534  0.00206  Biso   1.000  C
  C35      1.0000 0.53220  0.80587  0.45433  Biso   1.000  C
  C36      1.0000 0.99416  0.97327  0.18396  Biso   1.000  C
  C37      1.0000 0.71765  0.92399  0.49674  Biso   1.000  C
  C38      1.0000 0.53970  0.66777  0.95573  Biso   1.000  C
  C39      1.0000 0.97702  0.49218  0.68183  Biso   1.000  C
  C40      1.0000 0.22384  0.94515  0.00476  Biso   1.000  C
  C41      1.0000 0.03178  0.66966  0.54947  Biso   1.000  C
  C42      1.0000 0.47771  0.48661  0.82349  Biso   1.000  C
  C43      1.0000 0.85473  0.42514  0.49929  Biso   1.000  C
  C44      1.0000 0.03886  0.17421  0.95808  Biso   1.000  C
  C45      1.0000 0.59153  0.98336  0.68448  Biso   1.000  C
  C46      1.0000 0.35786  0.43824  0.01298  Biso   1.000  C
  C47      1.0000 0.54169  0.16562  0.55242  Biso   1.000  C
  C48      1.0000 0.09122  0.00140  0.82295  Biso   1.000  C
  C49      1.0000 0.03886  0.05129  0.82729  Biso   1.000  C
  C50      1.0000 0.86514  0.98552  0.06166  Biso   1.000  C
  C51      1.0000 0.10333  0.81384  0.99192  Biso   1.000  C
  C52      1.0000 0.54226  0.04147  0.68458  Biso   1.000  C
  C53      1.0000 0.35564  0.99645  0.45128  Biso   1.000  C
  C54      1.0000 0.58221  0.80483  0.51310  Biso   1.000  C
  C55      1.0000 0.52652  0.54138  0.82765  Biso   1.000  C
  C56      1.0000 0.72408  0.47961  0.05657  Biso   1.000  C
  C57      1.0000 0.48813  0.31078  0.98961  Biso   1.000  C
  C58      1.0000 0.03403  0.54655  0.68343  Biso   1.000  C
  C59      1.0000 0.22231  0.49207  0.44934  Biso   1.000  C
  C60      1.0000 0.98986  0.30715  0.50657  Biso   1.000  C
  C61      1.0000 0.05435  0.92871  0.17992  Biso   1.000  C
  C62      1.0000 0.22102  0.00170  0.94941  Biso   1.000  C
  C63      1.0000 0.98750  0.16717  0.01579  Biso   1.000  C
  C64      1.0000 0.54041  0.92941  0.32298  Biso   1.000  C
  C65      1.0000 0.72203  0.97285  0.55798  Biso   1.000  C
  C66      1.0000 0.49284  0.16837  0.49430  Biso   1.000  C
  C67      1.0000 0.55519  0.42177  0.18171  Biso   1.000  C
  C68      1.0000 0.35721  0.49224  0.95791  Biso   1.000  C
  C69      1.0000 0.60054  0.66062  0.00448  Biso   1.000  C
  C70      1.0000 0.04058  0.43185  0.32162  Biso   1.000  C
  C71      1.0000 0.85009  0.48024  0.55494  Biso   1.000  C
  C72      1.0000 0.08174  0.66813  0.49346  Biso   1.000  C
  C73      1.0000 0.04810  0.53737  0.31595  Biso   1.000  C
  C74      1.0000 0.35969  0.98669  0.55893  Biso   1.000  C
  C75      1.0000 0.59539  0.30407  0.00097  Biso   1.000  C
  C76      1.0000 0.54551  0.53018  0.18537  Biso   1.000  C
  C77      1.0000 0.86837  0.97583  0.95345  Biso   1.000  C
  C78      1.0000 0.09999  0.31182  0.51513  Biso   1.000  C
  C79      1.0000 0.54336  0.03723  0.31854  Biso   1.000  C
  C80      1.0000 0.21410  0.49754  0.55886  Biso   1.000  C
  C81      1.0000 0.99308  0.80653  0.99574  Biso   1.000  C
  C82      1.0000 0.03450  0.03795  0.18877  Biso   1.000  C
  C83      1.0000 0.71985  0.47385  0.94792  Biso   1.000  C
  C84      1.0000 0.47216  0.80453  0.50529  Biso   1.000  C
  C85      1.0000 0.03730  0.43632  0.68887  Biso   1.000  C
  C86      1.0000 0.72210  0.98244  0.44974  Biso   1.000  C
  C87      1.0000 0.48968  0.66978  0.01109  Biso   1.000  C
  C88      1.0000 0.53670  0.43425  0.81898  Biso   1.000  C
  C89      1.0000 0.22610  0.99382  0.05621  Biso   1.000  C
  C90      1.0000 0.97233  0.66929  0.49573  Biso   1.000  C
  C91      1.0000 0.53059  0.93359  0.68821  Biso   1.000  C
  C92      1.0000 0.86000  0.47535  0.44628  Biso   1.000  C
  C93      1.0000 0.09660  0.17485  0.00874  Biso   1.000  C
  C94      1.0000 0.03847  0.94368  0.81767  Biso   1.000  C
  C95      1.0000 0.35974  0.49366  0.06861  Biso   1.000  C
  C96      1.0000 0.59855  0.16036  0.50122  Biso   1.000  C
  C97      1.0000 0.72502  0.06181  0.49616  Biso   1.000  C
  C98      1.0000 0.54325  0.66139  0.09518  Biso   1.000  C
  C99      1.0000 0.11983  0.49179  0.68418  Biso   1.000  C
  C100     1.0000 0.22526  0.08466  0.01206  Biso   1.000  C
  C101     1.0000 0.02938  0.66390  0.40766  Biso   1.000  C
  C102     1.0000 0.62156  0.48748  0.82555  Biso   1.000  C
  C103     1.0000 0.85050  0.56447  0.50008  Biso   1.000  C
  C104     1.0000 0.04477  0.16388  0.09613  Biso   1.000  C
  C105     1.0000 0.45117  0.98680  0.68572  Biso   1.000  C
  C106     1.0000 0.35933  0.57922  0.00299  Biso   1.000  C
  C107     1.0000 0.54702  0.16740  0.41231  Biso   1.000  C
  C108     1.0000 0.95070  0.99775  0.82151  Biso   1.000  C
  C109     1.0000 0.35207  0.90826  0.49435  Biso   1.000  C
  C110     1.0000 0.54540  0.30697  0.91135  Biso   1.000  C
  C111     1.0000 0.95752  0.49250  0.32089  Biso   1.000  C
  C112     1.0000 0.85925  0.89426  0.00694  Biso   1.000  C
  C113     1.0000 0.04623  0.30725  0.59918  Biso   1.000  C
  C114     1.0000 0.46267  0.46852  0.18774  Biso   1.000  C
  C115     1.0000 0.22541  0.40818  0.50856  Biso   1.000  C
  C116     1.0000 0.04522  0.81485  0.90716  Biso   1.000  C
  C117     1.0000 0.63045  0.97818  0.32051  Biso   1.000  C
  C118     1.0000 0.72270  0.39291  0.00579  Biso   1.000  C
  C119     1.0000 0.51770  0.80629  0.59485  Biso   1.000  C
  C120     1.0000 0.13391  0.99215  0.18355  Biso   1.000  C
  C121     1.0000 0.86460  0.98200  0.09383  Biso   1.000  C
  C122     1.0000 0.13559  0.81547  0.99351  Biso   1.000  C
  C123     1.0000 0.03956  0.08303  0.82884  Biso   1.000  C
  C124     1.0000 0.35686  0.99887  0.41983  Biso   1.000  C
  C125     1.0000 0.61537  0.80410  0.51000  Biso   1.000  C
  C126     1.0000 0.54695  0.07281  0.68298  Biso   1.000  C
  C127     1.0000 0.72625  0.47347  0.08838  Biso   1.000  C
  C128     1.0000 0.45651  0.31123  0.99042  Biso   1.000  C
  C129     1.0000 0.52468  0.57333  0.82853  Biso   1.000  C
  C130     1.0000 0.22441  0.48923  0.41789  Biso   1.000  C
  C131     1.0000 0.95803  0.30488  0.50256  Biso   1.000  C
  C132     1.0000 0.03431  0.57893  0.68059  Biso   1.000  C
  C133     1.0000 0.22000  0.00253  0.91671  Biso   1.000  C
  C134     1.0000 0.95553  0.16481  0.01416  Biso   1.000  C
  C135     1.0000 0.05102  0.89707  0.17656  Biso   1.000  C
  C136     1.0000 0.72166  0.97207  0.59087  Biso   1.000  C
  C137     1.0000 0.46085  0.17136  0.49609  Biso   1.000  C
  C138     1.0000 0.53930  0.89656  0.32315  Biso   1.000  C
  C139     1.0000 0.35503  0.49070  0.92313  Biso   1.000  C
  C140     1.0000 0.63208  0.66034  0.00448  Biso   1.000  C
  C141     1.0000 0.55293  0.39016  0.18014  Biso   1.000  C
  C142     1.0000 0.84951  0.47802  0.58728  Biso   1.000  C
  C143     1.0000 0.11300  0.66923  0.49687  Biso   1.000  C
  C144     1.0000 0.04015  0.40021  0.32373  Biso   1.000  C
  C145     1.0000 0.36293  0.49521  0.10083  Biso   1.000  C
  C146     1.0000 0.13153  0.31142  0.51421  Biso   1.000  C
  C147     1.0000 0.54685  0.06891  0.31662  Biso   1.000  C
  C148     1.0000 0.86287  0.46750  0.41557  Biso   1.000  C
  C149     1.0000 0.62780  0.30151  0.00208  Biso   1.000  C
  C150     1.0000 0.02757  0.06979  0.18874  Biso   1.000  C
  C151     1.0000 0.22710  0.99250  0.08857  Biso   1.000  C
  C152     1.0000 0.43921  0.80770  0.50805  Biso   1.000  C
  C153     1.0000 0.05216  0.56979  0.31504  Biso   1.000  C
  C154     1.0000 0.72280  0.98735  0.41856  Biso   1.000  C
  C155     1.0000 0.96107  0.80281  0.99527  Biso   1.000  C
  C156     1.0000 0.54883  0.56218  0.18634  Biso   1.000  C
  C157     1.0000 0.71747  0.47302  0.91639  Biso   1.000  C
  C158     1.0000 0.93997  0.66735  0.49623  Biso   1.000  C
  C159     1.0000 0.52393  0.90302  0.68914  Biso   1.000  C
  C160     1.0000 0.21315  0.49779  0.59121  Biso   1.000  C
  C161     1.0000 0.45767  0.66980  0.00620  Biso   1.000  C
  C162     1.0000 0.03508  0.91230  0.81543  Biso   1.000  C
  C163     1.0000 0.86586  0.97704  0.92109  Biso   1.000  C
  C164     1.0000 0.62977  0.15926  0.49951  Biso   1.000  C
  C165     1.0000 0.03913  0.40513  0.69080  Biso   1.000  C
  C166     1.0000 0.35823  0.97904  0.59126  Biso   1.000  C
  C167     1.0000 0.12881  0.17553  0.00532  Biso   1.000  C
  C168     1.0000 0.54015  0.40113  0.81763  Biso   1.000  C
  C169     1.0000 0.04647  0.80286  0.08001  Biso   1.000  C
  C170     1.0000 0.12374  0.00387  0.82464  Biso   1.000  C
  C171     1.0000 0.86572  0.06607  0.99790  Biso   1.000  C
  C172     1.0000 0.53077  0.80552  0.42068  Biso   1.000  C
  C173     1.0000 0.62443  0.98295  0.68472  Biso   1.000  C
  C174     1.0000 0.36477  0.07938  0.51056  Biso   1.000  C
  C175     1.0000 0.53747  0.30455  0.08119  Biso   1.000  C
  C176     1.0000 0.44557  0.48374  0.82303  Biso   1.000  C
  C177     1.0000 0.72918  0.56751  0.00019  Biso   1.000  C
  C178     1.0000 0.04957  0.30800  0.42391  Biso   1.000  C
  C179     1.0000 0.94512  0.49367  0.68134  Biso   1.000  C
  C180     1.0000 0.21370  0.57986  0.49273  Biso   1.000  C
  C181     1.0000 0.03567  0.17406  0.92635  Biso   1.000  C
  C182     1.0000 0.96199  0.97189  0.18493  Biso   1.000  C
  C183     1.0000 0.22327  0.91393  0.00979  Biso   1.000  C
  C184     1.0000 0.53765  0.16544  0.58517  Biso   1.000  C
  C185     1.0000 0.45373  0.98604  0.32106  Biso   1.000  C
  C186     1.0000 0.71515  0.89165  0.49102  Biso   1.000  C
  C187     1.0000 0.53804  0.66803  0.92407  Biso   1.000  C
  C188     1.0000 0.63585  0.48261  0.18551  Biso   1.000  C
  C189     1.0000 0.35753  0.40546  0.01293  Biso   1.000  C
  C190     1.0000 0.03893  0.66984  0.58188  Biso   1.000  C
  C191     1.0000 0.13145  0.48088  0.32133  Biso   1.000  C
  C192     1.0000 0.85658  0.39314  0.49782  Biso   1.000  C
  C193     1.0000 0.88991  0.98563  0.90414  Biso   1.000  C
  C194     1.0000 0.94312  0.82859  0.99996  Biso   1.000  C
  C195     1.0000 0.03167  0.89631  0.84116  Biso   1.000  C
  C196     1.0000 0.38436  0.97708  0.60786  Biso   1.000  C
  C197     1.0000 0.42513  0.83604  0.50768  Biso   1.000  C
  C198     1.0000 0.52057  0.88577  0.66266  Biso   1.000  C
  C199     1.0000 0.68997  0.47258  0.90116  Biso   1.000  C
  C200     1.0000 0.64400  0.32711  0.00341  Biso   1.000  C
  C201     1.0000 0.53981  0.38535  0.84437  Biso   1.000  C
  C202     1.0000 0.18710  0.49860  0.60808  Biso   1.000  C
  C203     1.0000 0.14707  0.33879  0.51187  Biso   1.000  C
  C204     1.0000 0.04109  0.38844  0.66445  Biso   1.000  C
  C205     1.0000 0.19926  0.99244  0.10372  Biso   1.000  C
  C206     1.0000 0.14605  0.14932  0.01131  Biso   1.000  C
  C207     1.0000 0.03188  0.08634  0.16282  Biso   1.000  C
  C208     1.0000 0.69673  0.98537  0.40043  Biso   1.000  C
  C209     1.0000 0.64590  0.13147  0.49614  Biso   1.000  C
  C210     1.0000 0.54989  0.08573  0.34422  Biso   1.000  C
  C211     1.0000 0.38928  0.49176  0.11495  Biso   1.000  C
  C212     1.0000 0.44106  0.64355  0.00736  Biso   1.000  C
  C213     1.0000 0.54671  0.57904  0.15984  Biso   1.000  C
  C214     1.0000 0.88972  0.47138  0.39923  Biso   1.000  C
  C215     1.0000 0.92615  0.63911  0.49847  Biso   1.000  C
  C216     1.0000 0.04789  0.58636  0.34170  Biso   1.000  C
  C217     1.0000 0.13902  0.00313  0.85199  Biso   1.000  C
  C218     1.0000 0.89244  0.08062  0.00320  Biso   1.000  C
  C219     1.0000 0.04315  0.82950  0.09762  Biso   1.000  C
  C220     1.0000 0.63963  0.98211  0.65653  Biso   1.000  C
  C221     1.0000 0.39153  0.09432  0.50986  Biso   1.000  C
  C222     1.0000 0.53124  0.83214  0.40358  Biso   1.000  C
  C223     1.0000 0.43147  0.48357  0.85064  Biso   1.000  C
  C224     1.0000 0.70158  0.58220  0.00113  Biso   1.000  C
  C225     1.0000 0.54587  0.32913  0.09851  Biso   1.000  C
  C226     1.0000 0.92720  0.48652  0.65477  Biso   1.000  C
  C227     1.0000 0.18588  0.59403  0.49344  Biso   1.000  C
  C228     1.0000 0.04592  0.33457  0.40590  Biso   1.000  C
  C229     1.0000 0.94428  0.97481  0.15901  Biso   1.000  C
  C230     1.0000 0.19839  0.89817  0.00263  Biso   1.000  C
  C231     1.0000 0.03576  0.14735  0.91098  Biso   1.000  C
  C232     1.0000 0.43656  0.98665  0.34887  Biso   1.000  C
  C233     1.0000 0.68672  0.87729  0.49371  Biso   1.000  C
  C234     1.0000 0.54325  0.13804  0.60115  Biso   1.000  C
  C235     1.0000 0.65219  0.48265  0.15869  Biso   1.000  C
  C236     1.0000 0.38484  0.39059  0.00851  Biso   1.000  C
  C237     1.0000 0.53241  0.64121  0.90633  Biso   1.000  C
  C238     1.0000 0.14875  0.48548  0.34780  Biso   1.000  C
  C239     1.0000 0.88449  0.37884  0.50012  Biso   1.000  C
  C240     1.0000 0.03824  0.64340  0.60012  Biso   1.000  C
  C241     1.0000 0.63733  0.48110  0.85103  Biso   1.000  C
  C242     1.0000 0.87718  0.58142  0.49915  Biso   1.000  C
  C243     1.0000 0.52174  0.83434  0.61116  Biso   1.000  C
  C244     1.0000 0.13712  0.49367  0.65908  Biso   1.000  C
  C245     1.0000 0.38627  0.59666  0.00807  Biso   1.000  C
  C246     1.0000 0.03940  0.84303  0.89294  Biso   1.000  C
  C247     1.0000 0.93625  0.99714  0.84995  Biso   1.000  C
  C248     1.0000 0.69867  0.07851  0.49387  Biso   1.000  C
  C249     1.0000 0.04422  0.33528  0.61432  Biso   1.000  C
  C250     1.0000 0.43621  0.97966  0.65933  Biso   1.000  C
  C251     1.0000 0.19897  0.10056  0.01025  Biso   1.000  C
  C252     1.0000 0.54612  0.33414  0.89598  Biso   1.000  C
  C253     1.0000 0.44531  0.47726  0.16355  Biso   1.000  C
  C254     1.0000 0.19762  0.39235  0.50936  Biso   1.000  C
  C255     1.0000 0.54952  0.14002  0.39666  Biso   1.000  C
  C256     1.0000 0.94106  0.48879  0.34753  Biso   1.000  C
  C257     1.0000 0.69415  0.37855  0.00518  Biso   1.000  C
  C258     1.0000 0.04145  0.13706  0.11130  Biso   1.000  C
  C259     1.0000 0.14887  0.99152  0.15691  Biso   1.000  C
  C260     1.0000 0.37727  0.88965  0.49856  Biso   1.000  C
  C261     1.0000 0.03461  0.63734  0.39273  Biso   1.000  C
  C262     1.0000 0.64538  0.97908  0.34718  Biso   1.000  C
  C263     1.0000 0.88698  0.87785  0.00536  Biso   1.000  C
  C264     1.0000 0.54738  0.63198  0.10878  Biso   1.000  C
  C265     1.0000 0.03780  0.09719  0.85718  Biso   1.000  C
  C266     1.0000 0.89151  0.97728  0.10962  Biso   1.000  C
  C267     1.0000 0.14867  0.84350  0.99544  Biso   1.000  C
  C268     1.0000 0.54445  0.08903  0.65515  Biso   1.000  C
  C269     1.0000 0.38455  0.99511  0.40370  Biso   1.000  C
  C270     1.0000 0.63225  0.82944  0.50489  Biso   1.000  C
  C271     1.0000 0.52790  0.58847  0.85583  Biso   1.000  C
  C272     1.0000 0.70103  0.47562  0.10640  Biso   1.000  C
  C273     1.0000 0.44022  0.34077  0.99624  Biso   1.000  C
  C274     1.0000 0.03596  0.59201  0.65279  Biso   1.000  C
  C275     1.0000 0.19807  0.48734  0.40102  Biso   1.000  C
  C276     1.0000 0.94068  0.33144  0.50339  Biso   1.000  C
  C277     1.0000 0.04866  0.88226  0.14945  Biso   1.000  C
  C278     1.0000 0.19148  0.00369  0.90332  Biso   1.000  C
  C279     1.0000 0.94147  0.13609  0.01010  Biso   1.000  C
  C280     1.0000 0.53460  0.88099  0.34920  Biso   1.000  C
  C281     1.0000 0.69251  0.97464  0.60557  Biso   1.000  C
  C282     1.0000 0.44427  0.14499  0.50419  Biso   1.000  C
  C283     1.0000 0.55213  0.37550  0.15167  Biso   1.000  C
  C284     1.0000 0.37982  0.48758  0.90528  Biso   1.000  C
  C285     1.0000 0.64854  0.63368  0.00335  Biso   1.000  C
  C286     1.0000 0.04404  0.38636  0.35118  Biso   1.000  C
  C287     1.0000 0.87539  0.47725  0.60476  Biso   1.000  C
  C288     1.0000 0.13072  0.64368  0.49513  Biso   1.000  C
  C289     1.0000 0.37509  0.85835  0.49889  Biso   1.000  C
  C290     1.0000 0.54692  0.33330  0.86411  Biso   1.000  C
  C291     1.0000 0.91103  0.47979  0.34660  Biso   1.000  C
  C292     1.0000 0.88755  0.84727  0.00140  Biso   1.000  C
  C293     1.0000 0.04495  0.33520  0.64558  Biso   1.000  C
  C294     1.0000 0.41397  0.47822  0.16666  Biso   1.000  C
  C295     1.0000 0.19912  0.36184  0.51043  Biso   1.000  C
  C296     1.0000 0.03767  0.84392  0.86165  Biso   1.000  C
  C297     1.0000 0.67619  0.98006  0.34788  Biso   1.000  C
  C298     1.0000 0.69681  0.34705  0.00575  Biso   1.000  C
  C299     1.0000 0.52007  0.83269  0.64272  Biso   1.000  C
  C300     1.0000 0.17969  0.99502  0.15719  Biso   1.000  C
  C301     1.0000 0.69836  0.11027  0.49371  Biso   1.000  C
  C302     1.0000 0.54536  0.63269  0.14113  Biso   1.000  C
  C303     1.0000 0.16731  0.49491  0.66093  Biso   1.000  C
  C304     1.0000 0.19934  0.13210  0.01385  Biso   1.000  C
  C305     1.0000 0.03937  0.63919  0.36168  Biso   1.000  C
  C306     1.0000 0.66786  0.47955  0.84967  Biso   1.000  C
  C307     1.0000 0.87540  0.61231  0.49392  Biso   1.000  C
  C308     1.0000 0.03633  0.13912  0.14178  Biso   1.000  C
  C309     1.0000 0.40348  0.97943  0.65972  Biso   1.000  C
  C310     1.0000 0.38699  0.62756  0.00524  Biso   1.000  C
  C311     1.0000 0.55080  0.13880  0.36496  Biso   1.000  C
  C312     1.0000 0.90589  0.98752  0.84951  Biso   1.000  C
  C313     1.0000 0.20092  0.48272  0.36957  Biso   1.000  C
  C314     1.0000 0.41349  0.14640  0.50359  Biso   1.000  C
  C315     1.0000 0.54869  0.34498  0.15204  Biso   1.000  C
  C316     1.0000 0.70351  0.47286  0.13837  Biso   1.000  C
  C317     1.0000 0.91053  0.13477  0.00925  Biso   1.000  C
  C318     1.0000 0.04504  0.35437  0.35219  Biso   1.000  C
  C319     1.0000 0.38515  0.99636  0.37231  Biso   1.000  C
  C320     1.0000 0.16151  0.64621  0.49515  Biso   1.000  C
  C321     1.0000 0.04383  0.85044  0.14950  Biso   1.000  C
  C322     1.0000 0.89170  0.97727  0.14137  Biso   1.000  C
  C323     1.0000 0.67968  0.63596  0.00058  Biso   1.000  C
  C324     1.0000 0.53535  0.84927  0.34913  Biso   1.000  C
  C325     1.0000 0.87502  0.48355  0.63566  Biso   1.000  C
  C326     1.0000 0.66314  0.82661  0.50084  Biso   1.000  C
  C327     1.0000 0.52826  0.62091  0.85353  Biso   1.000  C
  C328     1.0000 0.37880  0.49091  0.87316  Biso   1.000  C
  C329     1.0000 0.17991  0.84367  0.99861  Biso   1.000  C
  C330     1.0000 0.03729  0.62333  0.65216  Biso   1.000  C
  C331     1.0000 0.69329  0.97630  0.63650  Biso   1.000  C
  C332     1.0000 0.90944  0.32770  0.50333  Biso   1.000  C
  C333     1.0000 0.03568  0.12854  0.85723  Biso   1.000  C
  C334     1.0000 0.19285  0.00476  0.87252  Biso   1.000  C
  C335     1.0000 0.40945  0.33898  0.99972  Biso   1.000  C
  C336     1.0000 0.54921  0.12003  0.65509  Biso   1.000  C
  C337     1.0000 0.69036  0.47659  0.87017  Biso   1.000  C
  C338     1.0000 0.89597  0.63618  0.49408  Biso   1.000  C
  C339     1.0000 0.51964  0.85489  0.66432  Biso   1.000  C
  C340     1.0000 0.18882  0.49587  0.63987  Biso   1.000  C
  C341     1.0000 0.40900  0.64787  0.00471  Biso   1.000  C
  C342     1.0000 0.03414  0.86502  0.84023  Biso   1.000  C
  C343     1.0000 0.88611  0.98485  0.87226  Biso   1.000  C
  C344     1.0000 0.67698  0.13228  0.49567  Biso   1.000  C
  C345     1.0000 0.04313  0.35808  0.66682  Biso   1.000  C
  C346     1.0000 0.38272  0.97839  0.63802  Biso   1.000  C
  C347     1.0000 0.17730  0.15211  0.01314  Biso   1.000  C
  C348     1.0000 0.54629  0.35545  0.84320  Biso   1.000  C
  C349     1.0000 0.39214  0.48432  0.14611  Biso   1.000  C
  C350     1.0000 0.17829  0.33999  0.50885  Biso   1.000  C
  C351     1.0000 0.55098  0.11730  0.34335  Biso   1.000  C
  C352     1.0000 0.89003  0.47248  0.36714  Biso   1.000  C
  C353     1.0000 0.67579  0.32492  0.00366  Biso   1.000  C
  C354     1.0000 0.03360  0.11795  0.16338  Biso   1.000  C
  C355     1.0000 0.20090  0.99643  0.13470  Biso   1.000  C
  C356     1.0000 0.39481  0.83573  0.50250  Biso   1.000  C
  C357     1.0000 0.04426  0.61756  0.34040  Biso   1.000  C
  C358     1.0000 0.69826  0.98333  0.36927  Biso   1.000  C
  C359     1.0000 0.91122  0.82690  0.00070  Biso   1.000  C
  C360     1.0000 0.54562  0.61035  0.16206  Biso   1.000  C
  C361     1.0000 0.03483  0.14902  0.87956  Biso   1.000  C
  C362     1.0000 0.91317  0.97579  0.16195  Biso   1.000  C
  C363     1.0000 0.19978  0.86683  0.00398  Biso   1.000  C
  C364     1.0000 0.54694  0.13934  0.63211  Biso   1.000  C
  C365     1.0000 0.40562  0.99227  0.34969  Biso   1.000  C
  C366     1.0000 0.68679  0.84600  0.49596  Biso   1.000  C
  C367     1.0000 0.53098  0.64206  0.87511  Biso   1.000  C
  C368     1.0000 0.68303  0.47438  0.16019  Biso   1.000  C
  C369     1.0000 0.38677  0.36009  0.00524  Biso   1.000  C
  C370     1.0000 0.03931  0.64443  0.63047  Biso   1.000  C
  C371     1.0000 0.18024  0.48169  0.34771  Biso   1.000  C
  C372     1.0000 0.88552  0.34699  0.50189  Biso   1.000  C
  C373     1.0000 0.04230  0.82846  0.12832  Biso   1.000  C
  C374     1.0000 0.17023  0.00353  0.85161  Biso   1.000  C
  C375     1.0000 0.89001  0.11173  0.00684  Biso   1.000  C
  C376     1.0000 0.53258  0.83024  0.37150  Biso   1.000  C
  C377     1.0000 0.67101  0.98020  0.65743  Biso   1.000  C
  C378     1.0000 0.39120  0.12481  0.50487  Biso   1.000  C
  C379     1.0000 0.54651  0.32437  0.12906  Biso   1.000  C
  C380     1.0000 0.39988  0.48899  0.85173  Biso   1.000  C
  C381     1.0000 0.70157  0.61397  0.99908  Biso   1.000  C
  C382     1.0000 0.04668  0.33355  0.37525  Biso   1.000  C
  C383     1.0000 0.89695  0.48659  0.65719  Biso   1.000  C
  C384     1.0000 0.18452  0.62514  0.49461  Biso   1.000  C
  C385     1.0000 0.22604  0.14736  0.01525  Biso   1.000  C
  C386     1.0000 0.03650  0.16678  0.15800  Biso   1.000  C
  C387     1.0000 0.19567  0.99975  0.18281  Biso   1.000  C
  C388     1.0000 0.72581  0.12471  0.49398  Biso   1.000  C
  C389     1.0000 0.54723  0.16485  0.34843  Biso   1.000  C
  C390     1.0000 0.69318  0.97987  0.32078  Biso   1.000  C
  C391     1.0000 0.36068  0.64454  0.00233  Biso   1.000  C
  C392     1.0000 0.54013  0.65819  0.15839  Biso   1.000  C
  C393     1.0000 0.39870  0.47059  0.19287  Biso   1.000  C
  C394     1.0000 0.84779  0.62579  0.49052  Biso   1.000  C
  C395     1.0000 0.03666  0.66616  0.34701  Biso   1.000  C
  C396     1.0000 0.89605  0.47435  0.32000  Biso   1.000  C
  C397     1.0000 0.86188  0.82977  0.00028  Biso   1.000  C
  C398     1.0000 0.03938  0.81767  0.84482  Biso   1.000  C
  C399     1.0000 0.88923  0.98314  0.82352  Biso   1.000  C
  C400     1.0000 0.34723  0.84476  0.49508  Biso   1.000  C
  C401     1.0000 0.51880  0.80744  0.65929  Biso   1.000  C
  C402     1.0000 0.38783  0.98381  0.68667  Biso   1.000  C
  C403     1.0000 0.72457  0.32985  0.00785  Biso   1.000  C
  C404     1.0000 0.54893  0.30560  0.84760  Biso   1.000  C
  C405     1.0000 0.68278  0.48527  0.82190  Biso   1.000  C
  C406     1.0000 0.22710  0.34776  0.51099  Biso   1.000  C
  C407     1.0000 0.04642  0.30851  0.66166  Biso   1.000  C
  C408     1.0000 0.18296  0.49182  0.68799  Biso   1.000  C
  C409     1.0000 0.18633  0.00356  0.82486  Biso   1.000  C
  C410     1.0000 0.86248  0.12776  0.00520  Biso   1.000  C
  C411     1.0000 0.03994  0.80109  0.14289  Biso   1.000  C
  C412     1.0000 0.68633  0.97724  0.68505  Biso   1.000  C
  C413     1.0000 0.36457  0.14207  0.50174  Biso   1.000  C
  C414     1.0000 0.53472  0.80286  0.35607  Biso   1.000  C
  C415     1.0000 0.38281  0.49128  0.82628  Biso   1.000  C
  C416     1.0000 0.72874  0.62971  0.00022  Biso   1.000  C
  C417     1.0000 0.53958  0.29722  0.14217  Biso   1.000  C
  C418     1.0000 0.88211  0.49477  0.68407  Biso   1.000  C
  C419     1.0000 0.21025  0.64186  0.49347  Biso   1.000  C
  C420     1.0000 0.04703  0.30647  0.36013  Biso   1.000  C
  C421     1.0000 0.89836  0.97548  0.18905  Biso   1.000  C
  C422     1.0000 0.22748  0.85318  0.00837  Biso   1.000  C
  C423     1.0000 0.03204  0.17745  0.86500  Biso   1.000  C
  C424     1.0000 0.39006  0.99604  0.32334  Biso   1.000  C
  C425     1.0000 0.71220  0.82767  0.49231  Biso   1.000  C
  C426     1.0000 0.55030  0.16671  0.64638  Biso   1.000  C
  C427     1.0000 0.69904  0.46996  0.18681  Biso   1.000  C
  C428     1.0000 0.35990  0.34388  0.00309  Biso   1.000  C
  C429     1.0000 0.53175  0.66824  0.86062  Biso   1.000  C
  C430     1.0000 0.19680  0.47245  0.32209  Biso   1.000  C
  C431     1.0000 0.86024  0.32911  0.50212  Biso   1.000  C
  C432     1.0000 0.03982  0.67273  0.64421  Biso   1.000  C
  C433     1.0000 0.03534  0.14552  0.83166  Biso   1.000  C
  C434     1.0000 0.86563  0.97909  0.15743  Biso   1.000  C
  C435     1.0000 0.19776  0.81818  0.00255  Biso   1.000  C
  C436     1.0000 0.55431  0.13612  0.68169  Biso   1.000  C
  C437     1.0000 0.35944  0.00498  0.35684  Biso   1.000  C
  C438     1.0000 0.67724  0.79934  0.49967  Biso   1.000  C
  C439     1.0000 0.52775  0.63620  0.82717  Biso   1.000  C
  C440     1.0000 0.73143  0.46537  0.15246  Biso   1.000  C
  C441     1.0000 0.39457  0.31147  0.99755  Biso   1.000  C
  C442     1.0000 0.03620  0.64147  0.67841  Biso   1.000  C
  C443     1.0000 0.22850  0.47550  0.35655  Biso   1.000  C
  C444     1.0000 0.89541  0.29831  0.50229  Biso   1.000  C
  C445     1.0000 0.04149  0.83487  0.17666  Biso   1.000  C
  C446     1.0000 0.21954  0.00380  0.85738  Biso   1.000  C
  C447     1.0000 0.89423  0.16078  0.01043  Biso   1.000  C
  C448     1.0000 0.53995  0.83317  0.32313  Biso   1.000  C
  C449     1.0000 0.72039  0.97440  0.65398  Biso   1.000  C
  C450     1.0000 0.39845  0.17278  0.49883  Biso   1.000  C
  C451     1.0000 0.54336  0.32814  0.17814  Biso   1.000  C
  C452     1.0000 0.35264  0.49472  0.85921  Biso   1.000  C
  C453     1.0000 0.69427  0.66257  0.99945  Biso   1.000  C
  C454     1.0000 0.04349  0.33761  0.32568  Biso   1.000  C
  C455     1.0000 0.84809  0.48905  0.65158  Biso   1.000  C
  C456     1.0000 0.17638  0.67333  0.49604  Biso   1.000  C
  C457     1.0000 0.04595  0.63375  0.31363  Biso   1.000  C
  C458     1.0000 0.35622  0.98046  0.65372  Biso   1.000  C
  C459     1.0000 0.69165  0.29818  0.00677  Biso   1.000  C
  C460     1.0000 0.54467  0.62509  0.19022  Biso   1.000  C
  C461     1.0000 0.86094  0.97571  0.85851  Biso   1.000  C
  C462     1.0000 0.19454  0.31350  0.50874  Biso   1.000  C
  C463     1.0000 0.54934  0.13185  0.31661  Biso   1.000  C
  C464     1.0000 0.21518  0.49228  0.65523  Biso   1.000  C
  C465     1.0000 0.89822  0.79900  0.99688  Biso   1.000  C
  C466     1.0000 0.02943  0.13433  0.18981  Biso   1.000  C
  C467     1.0000 0.71621  0.47934  0.85368  Biso   1.000  C
  C468     1.0000 0.37710  0.81017  0.50089  Biso   1.000  C
  C469     1.0000 0.04514  0.34244  0.69391  Biso   1.000  C
  C470     1.0000 0.72454  0.98414  0.35331  Biso   1.000  C
  C471     1.0000 0.39466  0.67554  0.00259  Biso   1.000  C
  C472     1.0000 0.54955  0.33911  0.81578  Biso   1.000  C
  C473     1.0000 0.22790  0.00155  0.14903  Biso   1.000  C
  C474     1.0000 0.87759  0.66128  0.48959  Biso   1.000  C
  C475     1.0000 0.52095  0.84067  0.69228  Biso   1.000  C
  C476     1.0000 0.86420  0.46663  0.35180  Biso   1.000  C
  C477     1.0000 0.19271  0.17901  0.01083  Biso   1.000  C
  C478     1.0000 0.03481  0.84906  0.81213  Biso   1.000  C
  C479     1.0000 0.36528  0.48032  0.16212  Biso   1.000  C
  C480     1.0000 0.69316  0.15907  0.49796  Biso   1.000  C
  C481     1.0000 0.39158  0.78162  0.50537  Biso   1.000  C
  C482     1.0000 0.55049  0.35459  0.78875  Biso   1.000  C
  C483     1.0000 0.83674  0.46091  0.36794  Biso   1.000  C
  C484     1.0000 0.91609  0.77165  0.99431  Biso   1.000  C
  C485     1.0000 0.04082  0.36027  0.72094  Biso   1.000  C
  C486     1.0000 0.33725  0.48894  0.14809  Biso   1.000  C
  C487     1.0000 0.18010  0.28511  0.51038  Biso   1.000  C
  C488     1.0000 0.03558  0.86485  0.78575  Biso   1.000  C
  C489     1.0000 0.74987  0.98877  0.37068  Biso   1.000  C
  C490     1.0000 0.67456  0.27286  0.00704  Biso   1.000  C
  C491     1.0000 0.52385  0.85775  0.71862  Biso   1.000  C
  C492     1.0000 0.25507  0.00347  0.13306  Biso   1.000  C
  C493     1.0000 0.67695  0.18641  0.50017  Biso   1.000  C
  C494     1.0000 0.54881  0.60856  0.21646  Biso   1.000  C
  C495     1.0000 0.24141  0.49300  0.63795  Biso   1.000  C
  C496     1.0000 0.17517  0.20453  0.00494  Biso   1.000  C
  C497     1.0000 0.05212  0.61584  0.28653  Biso   1.000  C
  C498     1.0000 0.74401  0.47769  0.86782  Biso   1.000  C
  C499     1.0000 0.89106  0.69078  0.49041  Biso   1.000  C
  C500     1.0000 0.02258  0.11798  0.21404  Biso   1.000  C
  C501     1.0000 0.32863  0.98028  0.63562  Biso   1.000  C
  C502     1.0000 0.41238  0.70156  0.00237  Biso   1.000  C
  C503     1.0000 0.54716  0.11650  0.28814  Biso   1.000  C
  C504     1.0000 0.83721  0.96744  0.87571  Biso   1.000  C
  C505     1.0000 0.66775  0.49306  0.79611  Biso   1.000  C
  C506     1.0000 0.82226  0.60880  0.48609  Biso   1.000  C
  C507     1.0000 0.51283  0.78113  0.64297  Biso   1.000  C
  C508     1.0000 0.16574  0.48962  0.71506  Biso   1.000  C
  C509     1.0000 0.33335  0.62828  0.99683  Biso   1.000  C
  C510     1.0000 0.04189  0.78940  0.85918  Biso   1.000  C
  C511     1.0000 0.90301  0.98562  0.79545  Biso   1.000  C
  C512     1.0000 0.75275  0.10765  0.49268  Biso   1.000  C
  C513     1.0000 0.04748  0.27944  0.64598  Biso   1.000  C
  C514     1.0000 0.40372  0.99100  0.71367  Biso   1.000  C
  C515     1.0000 0.25319  0.13047  0.01638  Biso   1.000  C
  C516     1.0000 0.55111  0.27773  0.86399  Biso   1.000  C
  C517     1.0000 0.41613  0.45923  0.21690  Biso   1.000  C
  C518     1.0000 0.25424  0.36406  0.50991  Biso   1.000  C
  C519     1.0000 0.54394  0.19311  0.36399  Biso   1.000  C
  C520     1.0000 0.91058  0.48112  0.29301  Biso   1.000  C
  C521     1.0000 0.75278  0.34534  0.00793  Biso   1.000  C
  C522     1.0000 0.04290  0.19339  0.14354  Biso   1.000  C
  C523     1.0000 0.18125  0.99953  0.21025  Biso   1.000  C
  C524     1.0000 0.32213  0.86410  0.49209  Biso   1.000  C
  C525     1.0000 0.02743  0.69338  0.36273  Biso   1.000  C
  C526     1.0000 0.67820  0.97635  0.29265  Biso   1.000  C
  C527     1.0000 0.83332  0.84530  0.00451  Biso   1.000  C
  C528     1.0000 0.53304  0.68542  0.14406  Biso   1.000  C
  C529     1.0000 0.83487  0.11249  0.99866  Biso   1.000  C
  C530     1.0000 0.04011  0.77377  0.12558  Biso   1.000  C
  C531     1.0000 0.17053  0.00475  0.79743  Biso   1.000  C
  C532     1.0000 0.33817  0.12699  0.50154  Biso   1.000  C
  C533     1.0000 0.53507  0.77736  0.37325  Biso   1.000  C
  C534     1.0000 0.66922  0.97742  0.71315  Biso   1.000  C
  C535     1.0000 0.75616  0.61380  0.99913  Biso   1.000  C
  C536     1.0000 0.53068  0.27294  0.12510  Biso   1.000  C
  C537     1.0000 0.39651  0.48695  0.79844  Biso   1.000  C
  C538     1.0000 0.23848  0.62790  0.49092  Biso   1.000  C
  C539     1.0000 0.04996  0.27982  0.37659  Biso   1.000  C
  C540     1.0000 0.89739  0.50186  0.71019  Biso   1.000  C
  C541     1.0000 0.25296  0.86846  0.01760  Biso   1.000  C
  C542     1.0000 0.03304  0.20383  0.88208  Biso   1.000  C
  C543     1.0000 0.91635  0.97369  0.21500  Biso   1.000  C
  C544     1.0000 0.74077  0.84216  0.48851  Biso   1.000  C
  C545     1.0000 0.54631  0.19394  0.63061  Biso   1.000  C
  C546     1.0000 0.40550  0.99086  0.29540  Biso   1.000  C
  C547     1.0000 0.33098  0.35884  0.00887  Biso   1.000  C
  C548     1.0000 0.53771  0.69452  0.87786  Biso   1.000  C
  C549     1.0000 0.68193  0.47227  0.21457  Biso   1.000  C
  C550     1.0000 0.83204  0.34324  0.49942  Biso   1.000  C
  C551     1.0000 0.04418  0.69840  0.62618  Biso   1.000  C
  C552     1.0000 0.18017  0.46982  0.29584  Biso   1.000  C
  C553     1.0000 0.03597  0.13336  0.80253  Biso   1.000  C
  C554     1.0000 0.83816  0.98400  0.14223  Biso   1.000  C
  C555     1.0000 0.18500  0.79065  0.99859  Biso   1.000  C
  C556     1.0000 0.55920  0.11914  0.70851  Biso   1.000  C
  C557     1.0000 0.33092  0.01119  0.37195  Biso   1.000  C
  C558     1.0000 0.66027  0.77306  0.50789  Biso   1.000  C
  C559     1.0000 0.52248  0.62156  0.79931  Biso   1.000  C
  C560     1.0000 0.75731  0.46101  0.13301  Biso   1.000  C
  C561     1.0000 0.41024  0.28603  0.98944  Biso   1.000  C
  C562     1.0000 0.03558  0.62733  0.70666  Biso   1.000  C
  C563     1.0000 0.25524  0.47703  0.37399  Biso   1.000  C
  C564     1.0000 0.91477  0.27309  0.50033  Biso   1.000  C
  C565     1.0000 0.04324  0.85145  0.20498  Biso   1.000  C
  C566     1.0000 0.24750  0.00144  0.87058  Biso   1.000  C
  C567     1.0000 0.90757  0.18884  0.01469  Biso   1.000  C
  C568     1.0000 0.54463  0.84864  0.29666  Biso   1.000  C
  C569     1.0000 0.74837  0.97404  0.63925  Biso   1.000  C
  C570     1.0000 0.41340  0.20031  0.49105  Biso   1.000  C
  C571     1.0000 0.54523  0.34333  0.20717  Biso   1.000  C
  C572     1.0000 0.32525  0.49887  0.87586  Biso   1.000  C
  C573     1.0000 0.67806  0.68985  0.00341  Biso   1.000  C
  C574     1.0000 0.03925  0.35143  0.29770  Biso   1.000  C
  C575     1.0000 0.82142  0.48725  0.63458  Biso   1.000  C
  C576     1.0000 0.15955  0.70001  0.49785  Biso   1.000  C
  C577     1.0000 0.33644  0.49562  0.11776  Biso   1.000  C
  C578     1.0000 0.14851  0.28470  0.51065  Biso   1.000  C
  C579     1.0000 0.54735  0.08462  0.28903  Biso   1.000  C
  C580     1.0000 0.83643  0.46155  0.39890  Biso   1.000  C
  C581     1.0000 0.64377  0.27337  0.00616  Biso   1.000  C
  C582     1.0000 0.02192  0.08607  0.21473  Biso   1.000  C
  C583     1.0000 0.25445  0.99536  0.10273  Biso   1.000  C
  C584     1.0000 0.42240  0.78186  0.51013  Biso   1.000  C
  C585     1.0000 0.05615  0.58456  0.28675  Biso   1.000  C
  C586     1.0000 0.74903  0.99090  0.40333  Biso   1.000  C
  C587     1.0000 0.94723  0.77429  0.99516  Biso   1.000  C
  C588     1.0000 0.55019  0.57769  0.21455  Biso   1.000  C
  C589     1.0000 0.74450  0.47481  0.90002  Biso   1.000  C
  C590     1.0000 0.92211  0.69376  0.49306  Biso   1.000  C
  C591     1.0000 0.52622  0.88889  0.71635  Biso   1.000  C
  C592     1.0000 0.24065  0.49612  0.60696  Biso   1.000  C
  C593     1.0000 0.44392  0.69882  0.00483  Biso   1.000  C
  C594     1.0000 0.03401  0.89776  0.78679  Biso   1.000  C
  C595     1.0000 0.83840  0.96971  0.90762  Biso   1.000  C
  C596     1.0000 0.64551  0.18674  0.50076  Biso   1.000  C
  C597     1.0000 0.03777  0.39136  0.72010  Biso   1.000  C
  C598     1.0000 0.33081  0.97959  0.60468  Biso   1.000  C
  C599     1.0000 0.14369  0.20257  0.00126  Biso   1.000  C
  C600     1.0000 0.54679  0.38655  0.79099  Biso   1.000  C
  C601     1.0000 0.24861  0.00297  0.90266  Biso   1.000  C
  C602     1.0000 0.93840  0.19165  0.01743  Biso   1.000  C
  C603     1.0000 0.04825  0.88202  0.20523  Biso   1.000  C
  C604     1.0000 0.74913  0.97290  0.60822  Biso   1.000  C
  C605     1.0000 0.44492  0.19835  0.49128  Biso   1.000  C
  C606     1.0000 0.54573  0.87969  0.29731  Biso   1.000  C
  C607     1.0000 0.32639  0.49478  0.90879  Biso   1.000  C
  C608     1.0000 0.64609  0.68878  0.00249  Biso   1.000  C
  C609     1.0000 0.55059  0.37402  0.20655  Biso   1.000  C
  C610     1.0000 0.82223  0.48244  0.60352  Biso   1.000  C
  C611     1.0000 0.12710  0.69762  0.49856  Biso   1.000  C
  C612     1.0000 0.03891  0.38253  0.29703  Biso   1.000  C
  C613     1.0000 0.83786  0.98553  0.11024  Biso   1.000  C
  C614     1.0000 0.15336  0.78858  0.99303  Biso   1.000  C
  C615     1.0000 0.03771  0.10212  0.80107  Biso   1.000  C
  C616     1.0000 0.33040  0.00747  0.40347  Biso   1.000  C
  C617     1.0000 0.62940  0.77558  0.51379  Biso   1.000  C
  C618     1.0000 0.55535  0.08842  0.70835  Biso   1.000  C
  C619     1.0000 0.75503  0.46531  0.10091  Biso   1.000  C
  C620     1.0000 0.44032  0.28482  0.98544  Biso   1.000  C
  C621     1.0000 0.52040  0.58924  0.80039  Biso   1.000  C
  C622     1.0000 0.25238  0.48339  0.40473  Biso   1.000  C
  C623     1.0000 0.94612  0.27682  0.50082  Biso   1.000  C
  C624     1.0000 0.03323  0.59556  0.70758  Biso   1.000  C
  C625     1.0000 0.03417  0.20222  0.91289  Biso   1.000  C
  C626     1.0000 0.94712  0.96895  0.21302  Biso   1.000  C
  C627     1.0000 0.24915  0.89924  0.02070  Biso   1.000  C
  C628     1.0000 0.53633  0.19329  0.60196  Biso   1.000  C
  C629     1.0000 0.43705  0.98715  0.29428  Biso   1.000  C
  C630     1.0000 0.74125  0.87346  0.48779  Biso   1.000  C
  C631     1.0000 0.54151  0.69499  0.90924  Biso   1.000  C
  C632     1.0000 0.65044  0.47933  0.21314  Biso   1.000  C
  C633     1.0000 0.33005  0.39001  0.01296  Biso   1.000  C
  C634     1.0000 0.04351  0.69687  0.59513  Biso   1.000  C
  C635     1.0000 0.14871  0.47478  0.29514  Biso   1.000  C
  C636     1.0000 0.83018  0.37563  0.49673  Biso   1.000  C
  C637     1.0000 0.04514  0.77503  0.09262  Biso   1.000  C
  C638     1.0000 0.14007  0.00263  0.79831  Biso   1.000  C
  C639     1.0000 0.83693  0.08112  0.99537  Biso   1.000  C
  C640     1.0000 0.53277  0.77890  0.40508  Biso   1.000  C
  C641     1.0000 0.63887  0.98182  0.71271  Biso   1.000  C
  C642     1.0000 0.33744  0.09635  0.50873  Biso   1.000  C
  C643     1.0000 0.52953  0.27711  0.09380  Biso   1.000  C
  C644     1.0000 0.42808  0.48342  0.79695  Biso   1.000  C
  C645     1.0000 0.75655  0.58248  0.99914  Biso   1.000  C
  C646     1.0000 0.05160  0.28012  0.40858  Biso   1.000  C
  C647     1.0000 0.92879  0.50240  0.70862  Biso   1.000  C
  C648     1.0000 0.24009  0.59622  0.49132  Biso   1.000  C
  C649     1.0000 0.02533  0.69144  0.39403  Biso   1.000  C
  C650     1.0000 0.43514  0.98950  0.71178  Biso   1.000  C
  C651     1.0000 0.75113  0.37680  0.00751  Biso   1.000  C
  C652     1.0000 0.53508  0.68642  0.11282  Biso   1.000  C
  C653     1.0000 0.93339  0.99464  0.79477  Biso   1.000  C
  C654     1.0000 0.25470  0.39479  0.50846  Biso   1.000  C
  C655     1.0000 0.54308  0.19409  0.39670  Biso   1.000  C
  C656     1.0000 0.13437  0.48788  0.71270  Biso   1.000  C
  C657     1.0000 0.83330  0.87728  0.00712  Biso   1.000  C
  C658     1.0000 0.04554  0.19265  0.11157  Biso   1.000  C
  C659     1.0000 0.63625  0.49239  0.79767  Biso   1.000  C
  C660     1.0000 0.32388  0.89515  0.49007  Biso   1.000  C
  C661     1.0000 0.04911  0.28050  0.61455  Biso   1.000  C
  C662     1.0000 0.64705  0.97571  0.29434  Biso   1.000  C
  C663     1.0000 0.33331  0.59614  0.99872  Biso   1.000  C
  C664     1.0000 0.54677  0.27875  0.89470  Biso   1.000  C
  C665     1.0000 0.15048  0.99553  0.21039  Biso   1.000  C
  C666     1.0000 0.82337  0.57831  0.49287  Biso   1.000  C
  C667     1.0000 0.51444  0.78045  0.61175  Biso   1.000  C
  C668     1.0000 0.94052  0.48907  0.29306  Biso   1.000  C
  C669     1.0000 0.25344  0.09902  0.01535  Biso   1.000  C
  C670     1.0000 0.04461  0.78800  0.88955  Biso   1.000  C
  C671     1.0000 0.44773  0.45966  0.21477  Biso   1.000  C
  C672     1.0000 0.75283  0.07650  0.49525  Biso   1.000  C
  C673     1.0000 0.23213  0.00354  0.80844  Biso   1.000  C
  C674     1.0000 0.84846  0.17563  0.01020  Biso   1.000  C
  C675     1.0000 0.04127  0.78745  0.18915  Biso   1.000  C
  C676     1.0000 0.73086  0.97189  0.70211  Biso   1.000  C
  C677     1.0000 0.35048  0.18732  0.49525  Biso   1.000  C
  C678     1.0000 0.54120  0.78495  0.31110  Biso   1.000  C
  C679     1.0000 0.33631  0.49544  0.81247  Biso   1.000  C
  C680     1.0000 0.74294  0.67645  0.99868  Biso   1.000  C
  C681     1.0000 0.53649  0.28150  0.18928  Biso   1.000  C
  C682     1.0000 0.83567  0.49421  0.69928  Biso   1.000  C
  C683     1.0000 0.22217  0.68887  0.49511  Biso   1.000  C
  C684     1.0000 0.04036  0.29036  0.31315  Biso   1.000  C
  C685     1.0000 0.85083  0.97808  0.20394  Biso   1.000  C
  C686     1.0000 0.24255  0.80558  0.01042  Biso   1.000  C
  C687     1.0000 0.03658  0.19411  0.82086  Biso   1.000  C
  C688     1.0000 0.34335  0.00487  0.31016  Biso   1.000  C
  C689     1.0000 0.72189  0.78065  0.49516  Biso   1.000  C
  C690     1.0000 0.55773  0.18332  0.69128  Biso   1.000  C
  C691     1.0000 0.74635  0.46039  0.19840  Biso   1.000  C
  C692     1.0000 0.34954  0.29580  0.00218  Biso   1.000  C
  C693     1.0000 0.53029  0.68220  0.81414  Biso   1.000  C
  C694     1.0000 0.24420  0.46531  0.31032  Biso   1.000  C
  C695     1.0000 0.85164  0.28098  0.50052  Biso   1.000  C
  C696     1.0000 0.03992  0.68787  0.69085  Biso   1.000  C
  C697     1.0000 0.73966  0.98197  0.30759  Biso   1.000  C
  C698     1.0000 0.34861  0.69116  0.00362  Biso   1.000  C
  C699     1.0000 0.04849  0.29622  0.70914  Biso   1.000  C
  C700     1.0000 0.24036  0.00216  0.19784  Biso   1.000  C
  C701     1.0000 0.83022  0.67210  0.48760  Biso   1.000  C
  C702     1.0000 0.55175  0.29169  0.80070  Biso   1.000  C
  C703     1.0000 0.85272  0.46119  0.30455  Biso   1.000  C
  C704     1.0000 0.23916  0.19407  0.01459  Biso   1.000  C
  C705     1.0000 0.52051  0.79456  0.70629  Biso   1.000  C
  C706     1.0000 0.35001  0.46574  0.20558  Biso   1.000  C
  C707     1.0000 0.74148  0.17153  0.49610  Biso   1.000  C
  C708     1.0000 0.03909  0.80314  0.79793  Biso   1.000  C
  C709     1.0000 0.33983  0.98966  0.69852  Biso   1.000  C
  C710     1.0000 0.73725  0.28179  0.00911  Biso   1.000  C
  C711     1.0000 0.04395  0.67937  0.29972  Biso   1.000  C
  C712     1.0000 0.84322  0.97235  0.81072  Biso   1.000  C
  C713     1.0000 0.24265  0.30035  0.50733  Biso   1.000  C
  C714     1.0000 0.54222  0.67265  0.20475  Biso   1.000  C
  C715     1.0000 0.22914  0.49338  0.70217  Biso   1.000  C
  C716     1.0000 0.85181  0.78341  0.99848  Biso   1.000  C
  C717     1.0000 0.54152  0.17664  0.30069  Biso   1.000  C
  C718     1.0000 0.72944  0.48692  0.80805  Biso   1.000  C
  C719     1.0000 0.32916  0.79834  0.49703  Biso   1.000  C
  C720     1.0000 0.03137  0.18128  0.20489  Biso   1.000  C
  C721     1.0000 0.56198  0.78618  0.28657  Biso   1.000  C
  C722     1.0000 0.33972  0.51241  0.78637  Biso   1.000  C
  C723     1.0000 0.82315  0.28500  0.51490  Biso   1.000  C
  C724     1.0000 0.02341  0.76213  0.18733  Biso   1.000  C
  C725     1.0000 0.80827  0.50896  0.69505  Biso   1.000  C
  C726     1.0000 0.32153  0.30110  0.98955  Biso   1.000  C
  C727     1.0000 0.02208  0.26546  0.32045  Biso   1.000  C
  C728     1.0000 0.25770  0.02145  0.80947  Biso   1.000  C
  C729     1.0000 0.75083  0.78445  0.50618  Biso   1.000  C
  C730     1.0000 0.52334  0.28673  0.21714  Biso   1.000  C
  C731     1.0000 0.75706  0.95318  0.70017  Biso   1.000  C
  C732     1.0000 0.26949  0.80821  0.99395  Biso   1.000  C
  C733     1.0000 0.54544  0.17770  0.71854  Biso   1.000  C
  C734     1.0000 0.74094  0.44126  0.22241  Biso   1.000  C
  C735     1.0000 0.21995  0.71569  0.47921  Biso   1.000  C
  C736     1.0000 0.02181  0.22295  0.82313  Biso   1.000  C
  C737     1.0000 0.26786  0.44422  0.31505  Biso   1.000  C
  C738     1.0000 0.77226  0.67107  0.01060  Biso   1.000  C
  C739     1.0000 0.05408  0.68401  0.72002  Biso   1.000  C
  C740     1.0000 0.82170  0.96740  0.19935  Biso   1.000  C
  C741     1.0000 0.32179  0.18628  0.48307  Biso   1.000  C
  C742     1.0000 0.54268  0.67963  0.78600  Biso   1.000  C
  C743     1.0000 0.31676  0.99023  0.31349  Biso   1.000  C
  C744     1.0000 0.84766  0.19843  0.03358  Biso   1.000  C
  C745     1.0000 0.05754  0.70842  0.30386  Biso   1.000  C
  C746     1.0000 0.31173  0.00422  0.69198  Biso   1.000  C
  C747     1.0000 0.76294  0.28613  0.02759  Biso   1.000  C
  C748     1.0000 0.55531  0.70041  0.19853  Biso   1.000  C
  C749     1.0000 0.84711  0.95992  0.78119  Biso   1.000  C
  C750     1.0000 0.26946  0.30064  0.52477  Biso   1.000  C
  C751     1.0000 0.55941  0.17319  0.27456  Biso   1.000  C
  C752     1.0000 0.25573  0.47510  0.70088  Biso   1.000  C
  C753     1.0000 0.82764  0.78481  0.97629  Biso   1.000  C
  C754     1.0000 0.04206  0.17492  0.23501  Biso   1.000  C
  C755     1.0000 0.72700  0.47258  0.77825  Biso   1.000  C
  C756     1.0000 0.30320  0.80396  0.51187  Biso   1.000  C
  C757     1.0000 0.03399  0.26778  0.70851  Biso   1.000  C
  C758     1.0000 0.73493  0.99658  0.27967  Biso   1.000  C
  C759     1.0000 0.32480  0.69037  0.02540  Biso   1.000  C
  C760     1.0000 0.57205  0.29302  0.77662  Biso   1.000  C
  C761     1.0000 0.26449  0.02150  0.19437  Biso   1.000  C
  C762     1.0000 0.83205  0.69858  0.47079  Biso   1.000  C
  C763     1.0000 0.50614  0.79824  0.73459  Biso   1.000  C
  C764     1.0000 0.82260  0.46898  0.30770  Biso   1.000  C
  C765     1.0000 0.26331  0.19212  0.03396  Biso   1.000  C
  C766     1.0000 0.02012  0.80140  0.77206  Biso   1.000  C
  C767     1.0000 0.35357  0.47108  0.23657  Biso   1.000  C
  C768     1.0000 0.73859  0.20051  0.48240  Biso   1.000  C
  C769     1.0000 0.51461  0.70947  0.81938  Biso   1.000  C
  C770     1.0000 0.84210  0.48022  0.72638  Biso   1.000  C
  C771     1.0000 0.71521  0.75162  0.48283  Biso   1.000  C
  C772     1.0000 0.02563  0.71567  0.68528  Biso   1.000  C
  C773     1.0000 0.30979  0.47819  0.81578  Biso   1.000  C
  C774     1.0000 0.23913  0.77935  0.02671  Biso   1.000  C
  C775     1.0000 0.05669  0.19083  0.79575  Biso   1.000  C
  C776     1.0000 0.72652  0.98737  0.72935  Biso   1.000  C
  C777     1.0000 0.85815  0.25288  0.48406  Biso   1.000  C
  C778     1.0000 0.56859  0.21254  0.68578  Biso   1.000  C
  C779     1.0000 0.22671  0.98740  0.78216  Biso   1.000  C
  C780     1.0000 0.35548  0.26839  0.01589  Biso   1.000  C
  C781     1.0000 0.54699  0.25139  0.18327  Biso   1.000  C
  C782     1.0000 0.24227  0.47981  0.28286  Biso   1.000  C
  C783     1.0000 0.35600  0.21389  0.51054  Biso   1.000  C
  C784     1.0000 0.05467  0.28979  0.28500  Biso   1.000  C
  C785     1.0000 0.77490  0.47231  0.19440  Biso   1.000  C
  C786     1.0000 0.82573  0.17659  0.98687  Biso   1.000  C
  C787     1.0000 0.06120  0.79119  0.21370  Biso   1.000  C
  C788     1.0000 0.34772  0.02413  0.28586  Biso   1.000  C
  C789     1.0000 0.24828  0.68599  0.51279  Biso   1.000  C
  C790     1.0000 0.52229  0.75959  0.31172  Biso   1.000  C
  C791     1.0000 0.85581  0.99323  0.23202  Biso   1.000  C
  C792     1.0000 0.74002  0.70226  0.98176  Biso   1.000  C
  C793     1.0000 0.52063  0.20075  0.30426  Biso   1.000  C
  C794     1.0000 0.32289  0.45292  0.19506  Biso   1.000  C
  C795     1.0000 0.23953  0.27650  0.48462  Biso   1.000  C
  C796     1.0000 0.01795  0.20997  0.19946  Biso   1.000  C
  C797     1.0000 0.86266  0.44537  0.27847  Biso   1.000  C
  C798     1.0000 0.73518  0.25335  0.99377  Biso   1.000  C
  C799     1.0000 0.03047  0.67445  0.27152  Biso   1.000  C
  C800     1.0000 0.23770  0.98503  0.22318  Biso   1.000  C
  C801     1.0000 0.33343  0.76936  0.48328  Biso   1.000  C
  C802     1.0000 0.53102  0.66967  0.23330  Biso   1.000  C
  C803     1.0000 0.76592  0.96644  0.31349  Biso   1.000  C
  C804     1.0000 0.85419  0.75767  0.01514  Biso   1.000  C
  C805     1.0000 0.53752  0.76763  0.70152  Biso   1.000  C
  C806     1.0000 0.75610  0.50304  0.81306  Biso   1.000  C
  C807     1.0000 0.80427  0.66729  0.50490  Biso   1.000  C
  C808     1.0000 0.06124  0.78005  0.79750  Biso   1.000  C
  C809     1.0000 0.22549  0.51182  0.72850  Biso   1.000  C
  C810     1.0000 0.34938  0.71663  0.98446  Biso   1.000  C
  C811     1.0000 0.06382  0.30318  0.73723  Biso   1.000  C
  C812     1.0000 0.81352  0.98028  0.81795  Biso   1.000  C
  C813     1.0000 0.76906  0.16734  0.51099  Biso   1.000  C
  C814     1.0000 0.53289  0.26620  0.80068  Biso   1.000  C
  C815     1.0000 0.34081  0.97745  0.72782  Biso   1.000  C
  C816     1.0000 0.23881  0.21679  0.99353  Biso   1.000  C
  C817     1.0000 0.02769  0.24575  0.80374  Biso   1.000  C
  C818     1.0000 0.80109  0.97124  0.22102  Biso   1.000  C
  C819     1.0000 0.28953  0.78615  0.99335  Biso   1.000  C
  C820     1.0000 0.54720  0.19783  0.74078  Biso   1.000  C
  C821     1.0000 0.29690  0.99154  0.29177  Biso   1.000  C
  C822     1.0000 0.77236  0.76341  0.50177  Biso   1.000  C
  C823     1.0000 0.54296  0.70313  0.76751  Biso   1.000  C
  C824     1.0000 0.76376  0.43567  0.24093  Biso   1.000  C
  C825     1.0000 0.29883  0.28281  0.99562  Biso   1.000  C
  C826     1.0000 0.05634  0.70718  0.73835  Biso   1.000  C
  C827     1.0000 0.28660  0.43791  0.29212  Biso   1.000  C
  C828     1.0000 0.80414  0.26197  0.51331  Biso   1.000  C
  C829     1.0000 0.02301  0.74125  0.20974  Biso   1.000  C
  C830     1.0000 0.27741  0.02209  0.78677  Biso   1.000  C
  C831     1.0000 0.82701  0.22033  0.03299  Biso   1.000  C
  C832     1.0000 0.56345  0.76200  0.26790  Biso   1.000  C
  C833     1.0000 0.77758  0.95147  0.72242  Biso   1.000  C
  C834     1.0000 0.30218  0.20888  0.48309  Biso   1.000  C
  C835     1.0000 0.52021  0.26521  0.23781  Biso   1.000  C
  C836     1.0000 0.31641  0.51087  0.76715  Biso   1.000  C
  C837     1.0000 0.79368  0.69078  0.00680  Biso   1.000  C
  C838     1.0000 0.01696  0.24489  0.29907  Biso   1.000  C
  C839     1.0000 0.78825  0.50827  0.71648  Biso   1.000  C
  C840     1.0000 0.24112  0.73701  0.48158  Biso   1.000  C
  C841     1.0000 0.24749  0.98685  0.76075  Biso   1.000  C
  C842     1.0000 0.80572  0.19906  0.98632  Biso   1.000  C
  C843     1.0000 0.06317  0.76950  0.23427  Biso   1.000  C
  C844     1.0000 0.74815  0.98570  0.75050  Biso   1.000  C
  C845     1.0000 0.33605  0.23584  0.51164  Biso   1.000  C
  C846     1.0000 0.52174  0.73936  0.29072  Biso   1.000  C
  C847     1.0000 0.28803  0.47860  0.79543  Biso   1.000  C
  C848     1.0000 0.76153  0.72209  0.97947  Biso   1.000  C
  C849     1.0000 0.54688  0.23089  0.20550  Biso   1.000  C
  C850     1.0000 0.82084  0.47996  0.74701  Biso   1.000  C
  C851     1.0000 0.26948  0.70612  0.51479  Biso   1.000  C
  C852     1.0000 0.04717  0.26859  0.26460  Biso   1.000  C
  C853     1.0000 0.83491  0.99487  0.25327  Biso   1.000  C
  C854     1.0000 0.26004  0.75782  0.02538  Biso   1.000  C
  C855     1.0000 0.06058  0.21345  0.77861  Biso   1.000  C
  C856     1.0000 0.32593  0.02401  0.26320  Biso   1.000  C
  C857     1.0000 0.73620  0.72916  0.48185  Biso   1.000  C
  C858     1.0000 0.56429  0.23546  0.70567  Biso   1.000  C
  C859     1.0000 0.79707  0.46705  0.21349  Biso   1.000  C
  C860     1.0000 0.33265  0.24971  0.01862  Biso   1.000  C
  C861     1.0000 0.51119  0.72975  0.79891  Biso   1.000  C
  C862     1.0000 0.26416  0.47479  0.26328  Biso   1.000  C
  C863     1.0000 0.83712  0.23136  0.48510  Biso   1.000  C
  C864     1.0000 0.02752  0.73635  0.70647  Biso   1.000  C
  C865     1.0000 0.74877  0.47397  0.75801  Biso   1.000  C
  C866     1.0000 0.81022  0.71947  0.47298  Biso   1.000  C
  C867     1.0000 0.50991  0.77636  0.75541  Biso   1.000  C
  C868     1.0000 0.27510  0.47593  0.72390  Biso   1.000  C
  C869     1.0000 0.30565  0.71415  0.02809  Biso   1.000  C
  C870     1.0000 0.02179  0.77884  0.75185  Biso   1.000  C
  C871     1.0000 0.82470  0.96223  0.76311  Biso   1.000  C
  C872     1.0000 0.76107  0.22030  0.48333  Biso   1.000  C
  C873     1.0000 0.03490  0.25082  0.73186  Biso   1.000  C
  C874     1.0000 0.29079  0.00941  0.71399  Biso   1.000  C
  C875     1.0000 0.28413  0.21359  0.03358  Biso   1.000  C
  C876     1.0000 0.57488  0.27081  0.75575  Biso   1.000  C
  C877     1.0000 0.33221  0.46416  0.25567  Biso   1.000  C
  C878     1.0000 0.29015  0.27908  0.52038  Biso   1.000  C
  C879     1.0000 0.55640  0.19446  0.25469  Biso   1.000  C
  C880     1.0000 0.80329  0.46122  0.28571  Biso   1.000  C
  C881     1.0000 0.78649  0.26602  0.02747  Biso   1.000  C
  C882     1.0000 0.03993  0.19571  0.25780  Biso   1.000  C
  C883     1.0000 0.28350  0.02365  0.21785  Biso   1.000  C
  C884     1.0000 0.28060  0.78158  0.51207  Biso   1.000  C
  C885     1.0000 0.05785  0.72917  0.28268  Biso   1.000  C
  C886     1.0000 0.75742  0.99602  0.26056  Biso   1.000  C
  C887     1.0000 0.80709  0.76355  0.97480  Biso   1.000  C
  C888     1.0000 0.55636  0.72388  0.21884  Biso   1.000  C
  C889     1.0000 0.78779  0.96739  0.29399  Biso   1.000  C
  C890     1.0000 0.32806  0.73803  0.98685  Biso   1.000  C
  C891     1.0000 0.06244  0.28613  0.76160  Biso   1.000  C
  C892     1.0000 0.25868  0.98564  0.24374  Biso   1.000  C
  C893     1.0000 0.78309  0.68921  0.50459  Biso   1.000  C
  C894     1.0000 0.53462  0.24744  0.77760  Biso   1.000  C
  C895     1.0000 0.84130  0.43976  0.25749  Biso   1.000  C
  C896     1.0000 0.25812  0.23817  0.99385  Biso   1.000  C
  C897     1.0000 0.53879  0.74641  0.72340  Biso   1.000  C
  C898     1.0000 0.30147  0.44775  0.21614  Biso   1.000  C
  C899     1.0000 0.79152  0.18755  0.51057  Biso   1.000  C
  C900     1.0000 0.06301  0.75835  0.77666  Biso   1.000  C
  C901     1.0000 0.31971  0.98361  0.74857  Biso   1.000  C
  C902     1.0000 0.75856  0.23361  0.99572  Biso   1.000  C
  C903     1.0000 0.03296  0.69716  0.25050  Biso   1.000  C
  C904     1.0000 0.79057  0.97756  0.79858  Biso   1.000  C
  C905     1.0000 0.26172  0.25567  0.48129  Biso   1.000  C
  C906     1.0000 0.53157  0.69159  0.25351  Biso   1.000  C
  C907     1.0000 0.24674  0.51246  0.75022  Biso   1.000  C
  C908     1.0000 0.83247  0.73713  0.01182  Biso   1.000  C
  C909     1.0000 0.51759  0.22154  0.28187  Biso   1.000  C
  C910     1.0000 0.77548  0.50587  0.78949  Biso   1.000  C
  C911     1.0000 0.31161  0.74873  0.48580  Biso   1.000  C
  C912     1.0000 0.01626  0.22946  0.22266  Biso   1.000  C
  C913     1.0000 0.79396  0.49313  0.74206  Biso   1.000  C
  C914     1.0000 0.76380  0.73699  0.49168  Biso   1.000  C
  C915     1.0000 0.52693  0.72868  0.77294  Biso   1.000  C
  C916     1.0000 0.29096  0.49543  0.77112  Biso   1.000  C
  C917     1.0000 0.28613  0.76025  0.00882  Biso   1.000  C
  C918     1.0000 0.04117  0.73220  0.73239  Biso   1.000  C
  C919     1.0000 0.77346  0.96902  0.74762  Biso   1.000  C
  C920     1.0000 0.80964  0.23749  0.49677  Biso   1.000  C
  C921     1.0000 0.04760  0.24027  0.78148  Biso   1.000  C
  C922     1.0000 0.27237  0.00329  0.76329  Biso   1.000  C
  C923     1.0000 0.30443  0.25834  0.01008  Biso   1.000  C
  C924     1.0000 0.55608  0.22618  0.73318  Biso   1.000  C
  C925     1.0000 0.28357  0.45134  0.26628  Biso   1.000  C
  C926     1.0000 0.30920  0.23452  0.49712  Biso   1.000  C
  C927     1.0000 0.53323  0.23786  0.23266  Biso   1.000  C
  C928     1.0000 0.79181  0.44837  0.23712  Biso   1.000  C
  C929     1.0000 0.80701  0.21928  0.00942  Biso   1.000  C
  C930     1.0000 0.02874  0.24654  0.27180  Biso   1.000  C
  C931     1.0000 0.30150  0.00750  0.26666  Biso   1.000  C
  C932     1.0000 0.26430  0.73196  0.50146  Biso   1.000  C
  C933     1.0000 0.04490  0.74479  0.23114  Biso   1.000  C
  C934     1.0000 0.80782  0.98502  0.24649  Biso   1.000  C
  C935     1.0000 0.78848  0.71682  0.99217  Biso   1.000  C
  C936     1.0000 0.54256  0.74049  0.26847  Biso   1.000  C
  C937     1.0000 0.78324  0.23971  0.01185  Biso   1.000  C
  C938     1.0000 0.04499  0.72377  0.25557  Biso   1.000  C
  C939     1.0000 0.29466  0.00055  0.74225  Biso   1.000  C
  C940     1.0000 0.28632  0.25713  0.50029  Biso   1.000  C
  C941     1.0000 0.54372  0.71820  0.24535  Biso   1.000  C
  C942     1.0000 0.79644  0.96960  0.77042  Biso   1.000  C
  C943     1.0000 0.81036  0.74017  0.99260  Biso   1.000  C
  C944     1.0000 0.53527  0.21692  0.25637  Biso   1.000  C
  C945     1.0000 0.27079  0.49512  0.74747  Biso   1.000  C
  C946     1.0000 0.28600  0.75448  0.50114  Biso   1.000  C
  C947     1.0000 0.02536  0.22227  0.25104  Biso   1.000  C
  C948     1.0000 0.77136  0.49167  0.76349  Biso   1.000  C
  C949     1.0000 0.30700  0.73694  0.00815  Biso   1.000  C
  C950     1.0000 0.04910  0.25905  0.75669  Biso   1.000  C
  C951     1.0000 0.78470  0.98347  0.26745  Biso   1.000  C
  C952     1.0000 0.78656  0.71410  0.48940  Biso   1.000  C
  C953     1.0000 0.55505  0.24883  0.75528  Biso   1.000  C
  C954     1.0000 0.28183  0.00492  0.24214  Biso   1.000  C
  C955     1.0000 0.28114  0.23600  0.01271  Biso   1.000  C
  C956     1.0000 0.52452  0.74958  0.74988  Biso   1.000  C
  C957     1.0000 0.81208  0.44713  0.26075  Biso   1.000  C
  C958     1.0000 0.78748  0.21455  0.49617  Biso   1.000  C
  C959     1.0000 0.04245  0.75594  0.75427  Biso   1.000  C
  C960     1.0000 0.30737  0.44991  0.24508  Biso   1.000  C
  Cu1      1.0000 0.03434  0.49045  0.65521  Biso   1.000  Cu
  Cu2      1.0000 0.69438  0.98160  0.50476  Biso   1.000  Cu
  Cu3      1.0000 0.54498  0.63678  0.00763  Biso   1.000  Cu
  Cu4      1.0000 0.53326  0.48713  0.85067  Biso   1.000  Cu
  Cu5      1.0000 0.19719  0.99883  0.00304  Biso   1.000  Cu
  Cu6      1.0000 0.02714  0.64159  0.49564  Biso   1.000  Cu
  Cu7      1.0000 0.53896  0.98612  0.65970  Biso   1.000  Cu
  Cu8      1.0000 0.88223  0.47922  0.50351  Biso   1.000  Cu
  Cu9      1.0000 0.04372  0.14251  0.00967  Biso   1.000  Cu
  Cu10     1.0000 0.03583  0.99558  0.84902  Biso   1.000  Cu
  Cu11     1.0000 0.38626  0.49197  0.01324  Biso   1.000  Cu
  Cu12     1.0000 0.54523  0.13669  0.49776  Biso   1.000  Cu
  Cu13     1.0000 0.04395  0.48653  0.34593  Biso   1.000  Cu
  Cu14     1.0000 0.38593  0.99245  0.50405  Biso   1.000  Cu
  Cu15     1.0000 0.54170  0.33408  0.99869  Biso   1.000  Cu
  Cu16     1.0000 0.54982  0.47772  0.15696  Biso   1.000  Cu
  Cu17     1.0000 0.89241  0.97728  0.00763  Biso   1.000  Cu
  Cu18     1.0000 0.04477  0.33648  0.51168  Biso   1.000  Cu
  Cu19     1.0000 0.54088  0.98410  0.34809  Biso   1.000  Cu
  Cu20     1.0000 0.19228  0.49322  0.50334  Biso   1.000  Cu
  Cu21     1.0000 0.04353  0.83756  0.99571  Biso   1.000  Cu
  Cu22     1.0000 0.04610  0.98415  0.15617  Biso   1.000  Cu
  Cu23     1.0000 0.69682  0.48139  0.00290  Biso   1.000  Cu
  Cu24     1.0000 0.52941  0.83246  0.50819  Biso   1.000  Cu
  Cu25     1.0000 0.25134  0.99691  0.00270  Biso   1.000  Cu
  Cu26     1.0000 0.04099  0.19695  0.01466  Biso   1.000  Cu
  Cu27     1.0000 0.04936  0.98222  0.20995  Biso   1.000  Cu
  Cu28     1.0000 0.74830  0.97453  0.50317  Biso   1.000  Cu
  Cu29     1.0000 0.54725  0.19114  0.49784  Biso   1.000  Cu
  Cu30     1.0000 0.54169  0.98098  0.29377  Biso   1.000  Cu
  Cu31     1.0000 0.33216  0.49422  0.01457  Biso   1.000  Cu
  Cu32     1.0000 0.54589  0.69096  0.01046  Biso   1.000  Cu
  Cu33     1.0000 0.55021  0.47584  0.21057  Biso   1.000  Cu
  Cu34     1.0000 0.82697  0.47820  0.49673  Biso   1.000  Cu
  Cu35     1.0000 0.02568  0.69593  0.49478  Biso   1.000  Cu
  Cu36     1.0000 0.04383  0.48270  0.29283  Biso   1.000  Cu
  Cu37     1.0000 0.83842  0.98058  0.00773  Biso   1.000  Cu
  Cu38     1.0000 0.05008  0.78353  0.99067  Biso   1.000  Cu
  Cu39     1.0000 0.03826  0.99986  0.79545  Biso   1.000  Cu
  Cu40     1.0000 0.33226  0.99567  0.50485  Biso   1.000  Cu
  Cu41     1.0000 0.52744  0.77814  0.50728  Biso   1.000  Cu
  Cu42     1.0000 0.53798  0.98798  0.71282  Biso   1.000  Cu
  Cu43     1.0000 0.75078  0.47885  0.00062  Biso   1.000  Cu
  Cu44     1.0000 0.54184  0.28038  0.99454  Biso   1.000  Cu
  Cu45     1.0000 0.53328  0.49093  0.79751  Biso   1.000  Cu
  Cu46     1.0000 0.24716  0.49691  0.50532  Biso   1.000  Cu
  Cu47     1.0000 0.04523  0.28173  0.51138  Biso   1.000  Cu
  Cu48     1.0000 0.03332  0.49255  0.70957  Biso   1.000  Cu
  H1       1.0000 0.26034  0.78779  0.52236  Biso   1.000  H
  H2       1.0000 0.59137  0.27077  0.73855  Biso   1.000  H
  H3       1.0000 0.78005  0.46572  0.29185  Biso   1.000  H
  H4       1.0000 0.78957  0.76500  0.95998  Biso   1.000  H
  H5       1.0000 0.02447  0.22944  0.73182  Biso   1.000  H
  H6       1.0000 0.33646  0.47255  0.27707  Biso   1.000  H
  H7       1.0000 0.30746  0.27996  0.53609  Biso   1.000  H
  H8       1.0000 0.00614  0.78014  0.73528  Biso   1.000  H
  H9       1.0000 0.75580  0.00879  0.23963  Biso   1.000  H
  H10      1.0000 0.80659  0.27057  0.03963  Biso   1.000  H
  H11      1.0000 0.49836  0.77987  0.77585  Biso   1.000  H
  H12      1.0000 0.30270  0.03640  0.21502  Biso   1.000  H
  H13      1.0000 0.75836  0.24188  0.47385  Biso   1.000  H
  H14      1.0000 0.56637  0.74368  0.21753  Biso   1.000  H
  H15      1.0000 0.29226  0.45934  0.72445  Biso   1.000  H
  H16      1.0000 0.30370  0.21098  0.04838  Biso   1.000  H
  H17      1.0000 0.06627  0.75018  0.28667  Biso   1.000  H
  H18      1.0000 0.74712  0.46205  0.73657  Biso   1.000  H
  H19      1.0000 0.81100  0.73855  0.46125  Biso   1.000  H
  H20      1.0000 0.04778  0.19212  0.27894  Biso   1.000  H
  H21      1.0000 0.26964  0.02037  0.70918  Biso   1.000  H
  H22      1.0000 0.29011  0.71479  0.04663  Biso   1.000  H
  H23      1.0000 0.57002  0.19678  0.23655  Biso   1.000  H
  H24      1.0000 0.82956  0.95319  0.74117  Biso   1.000  H
  H25      1.0000 0.29660  0.03559  0.78556  Biso   1.000  H
  H26      1.0000 0.82842  0.23341  0.05143  Biso   1.000  H
  H27      1.0000 0.00434  0.72782  0.21261  Biso   1.000  H
  H28      1.0000 0.79435  0.93499  0.71737  Biso   1.000  H
  H29      1.0000 0.28076  0.20265  0.47431  Biso   1.000  H
  H30      1.0000 0.57973  0.76489  0.25111  Biso   1.000  H
  H31      1.0000 0.31682  0.52307  0.74769  Biso   1.000  H
  H32      1.0000 0.81400  0.68686  0.01748  Biso   1.000  H
  H33      1.0000 0.51056  0.26971  0.25906  Biso   1.000  H
  H34      1.0000 0.76665  0.51587  0.71336  Biso   1.000  H
  H35      1.0000 0.24197  0.75472  0.46627  Biso   1.000  H
  H36      1.0000 0.00333  0.22592  0.30382  Biso   1.000  H
  H37      1.0000 0.77894  0.96257  0.21646  Biso   1.000  H
  H38      1.0000 0.30850  0.78952  0.98194  Biso   1.000  H
  H39      1.0000 0.01865  0.26663  0.80587  Biso   1.000  H
  H40      1.0000 0.27797  0.97776  0.29758  Biso   1.000  H
  H41      1.0000 0.79539  0.76767  0.50911  Biso   1.000  H
  H42      1.0000 0.54002  0.19292  0.76098  Biso   1.000  H
  H43      1.0000 0.76070  0.42169  0.25957  Biso   1.000  H
  H44      1.0000 0.27751  0.29015  0.98613  Biso   1.000  H
  H45      1.0000 0.55814  0.70157  0.74879  Biso   1.000  H
  H46      1.0000 0.30305  0.42139  0.29319  Biso   1.000  H
  H47      1.0000 0.78061  0.26525  0.52342  Biso   1.000  H
  H48      1.0000 0.07001  0.70582  0.75713  Biso   1.000  H
  H49      1.0000 0.26540  0.48567  0.24342  Biso   1.000  H
  H50      1.0000 0.34329  0.25520  0.52093  Biso   1.000  H
  H51      1.0000 0.55593  0.20873  0.20104  Biso   1.000  H
  H52      1.0000 0.82076  0.47158  0.21121  Biso   1.000  H
  H53      1.0000 0.79280  0.20194  0.96751  Biso   1.000  H
  H54      1.0000 0.05495  0.27293  0.24267  Biso   1.000  H
  H55      1.0000 0.32791  0.04048  0.24708  Biso   1.000  H
  H56      1.0000 0.28502  0.70588  0.53189  Biso   1.000  H
  H57      1.0000 0.08001  0.77335  0.25176  Biso   1.000  H
  H58      1.0000 0.83918  0.00409  0.27367  Biso   1.000  H
  H59      1.0000 0.75440  0.73996  0.96555  Biso   1.000  H
  H60      1.0000 0.50536  0.72319  0.28955  Biso   1.000  H
  H61      1.0000 0.82588  0.46754  0.76621  Biso   1.000  H
  H62      1.0000 0.72963  0.70860  0.47369  Biso   1.000  H
  H63      1.0000 0.49755  0.74834  0.80595  Biso   1.000  H
  H64      1.0000 0.26938  0.46343  0.79592  Biso   1.000  H
  H65      1.0000 0.25661  0.73894  0.03783  Biso   1.000  H
  H66      1.0000 0.01375  0.75485  0.70343  Biso   1.000  H
  H67      1.0000 0.74338  0.00059  0.76918  Biso   1.000  H
  H68      1.0000 0.84142  0.20988  0.47686  Biso   1.000  H
  H69      1.0000 0.07416  0.21196  0.75930  Biso   1.000  H
  H70      1.0000 0.24393  0.97255  0.74128  Biso   1.000  H
  H71      1.0000 0.33603  0.22926  0.02905  Biso   1.000  H
  H72      1.0000 0.56872  0.25816  0.69971  Biso   1.000  H
  H73      1.0000 0.79289  0.52158  0.79274  Biso   1.000  H
  H74      1.0000 0.76441  0.68665  0.52034  Biso   1.000  H
  H75      1.0000 0.54894  0.72549  0.71762  Biso   1.000  H
  H76      1.0000 0.24581  0.52667  0.76874  Biso   1.000  H
  H77      1.0000 0.33011  0.75408  0.96982  Biso   1.000  H
  H78      1.0000 0.08023  0.74146  0.77783  Biso   1.000  H
  H79      1.0000 0.76859  0.98285  0.80586  Biso   1.000  H
  H80      1.0000 0.81146  0.18389  0.52309  Biso   1.000  H
  H81      1.0000 0.07106  0.29411  0.78360  Biso   1.000  H
  H82      1.0000 0.32317  0.97584  0.77036  Biso   1.000  H
  H83      1.0000 0.25458  0.25380  0.97767  Biso   1.000  H
  H84      1.0000 0.51793  0.23166  0.77609  Biso   1.000  H
  H85      1.0000 0.27979  0.43767  0.20888  Biso   1.000  H
  H86      1.0000 0.25814  0.23953  0.46502  Biso   1.000  H
  H87      1.0000 0.50163  0.23839  0.28338  Biso   1.000  H
  H88      1.0000 0.84743  0.42987  0.23696  Biso   1.000  H
  H89      1.0000 0.75500  0.21115  0.98687  Biso   1.000  H
  H90      1.0000 0.00672  0.25235  0.21747  Biso   1.000  H
  H91      1.0000 0.25602  0.97029  0.26113  Biso   1.000  H
  H92      1.0000 0.31510  0.72699  0.47467  Biso   1.000  H
  H93      1.0000 0.02565  0.69271  0.22837  Biso   1.000  H
  H94      1.0000 0.80644  0.95619  0.29917  Biso   1.000  H
  H95      1.0000 0.83298  0.71710  0.02576  Biso   1.000  H
  H96      1.0000 0.52556  0.68887  0.27514  Biso   1.000  H
  H97      1.0000 0.90877  0.99543  0.91332  Biso   1.000  H
  H98      1.0000 0.95134  0.85050  0.00252  Biso   1.000  H
  H99      1.0000 0.02641  0.90630  0.86238  Biso   1.000  H
  H100     1.0000 0.40472  0.97952  0.59760  Biso   1.000  H
  H101     1.0000 0.43797  0.85429  0.50978  Biso   1.000  H
  H102     1.0000 0.51812  0.89811  0.64061  Biso   1.000  H
  H103     1.0000 0.66964  0.47494  0.91224  Biso   1.000  H
  H104     1.0000 0.63292  0.34732  0.00775  Biso   1.000  H
  H105     1.0000 0.53487  0.39507  0.86437  Biso   1.000  H
  H106     1.0000 0.16873  0.49842  0.59627  Biso   1.000  H
  H107     1.0000 0.13597  0.35991  0.51402  Biso   1.000  H
  H108     1.0000 0.03882  0.39940  0.64357  Biso   1.000  H
  H109     1.0000 0.18021  0.98598  0.09357  Biso   1.000  H
  H110     1.0000 0.13625  0.12933  0.01100  Biso   1.000  H
  H111     1.0000 0.03791  0.07586  0.14210  Biso   1.000  H
  H112     1.0000 0.67359  0.98796  0.41079  Biso   1.000  H
  H113     1.0000 0.63146  0.11068  0.49228  Biso   1.000  H
  H114     1.0000 0.55161  0.07310  0.36419  Biso   1.000  H
  H115     1.0000 0.40725  0.49471  0.10160  Biso   1.000  H
  H116     1.0000 0.44887  0.62087  0.00919  Biso   1.000  H
  H117     1.0000 0.55057  0.56954  0.13831  Biso   1.000  H
  H118     1.0000 0.91012  0.47265  0.40956  Biso   1.000  H
  H119     1.0000 0.93925  0.62002  0.50429  Biso   1.000  H
  H120     1.0000 0.04581  0.57642  0.36319  Biso   1.000  H
  H121     1.0000 0.12663  0.00285  0.87221  Biso   1.000  H
  H122     1.0000 0.91248  0.06904  0.00377  Biso   1.000  H
  H123     1.0000 0.04696  0.85027  0.08699  Biso   1.000  H
  H124     1.0000 0.62749  0.98413  0.63696  Biso   1.000  H
  H125     1.0000 0.41307  0.08573  0.51581  Biso   1.000  H
  H126     1.0000 0.52925  0.85340  0.41410  Biso   1.000  H
  H127     1.0000 0.44512  0.48019  0.87063  Biso   1.000  H
  H128     1.0000 0.67950  0.57185  0.00307  Biso   1.000  H
  H129     1.0000 0.54876  0.35070  0.08970  Biso   1.000  H
  H130     1.0000 0.93893  0.48031  0.63444  Biso   1.000  H
  H131     1.0000 0.16716  0.58126  0.49025  Biso   1.000  H
  H132     1.0000 0.04168  0.35636  0.41676  Biso   1.000  H
  H133     1.0000 0.95130  0.97736  0.13526  Biso   1.000  H
  H134     1.0000 0.17834  0.91035  0.99930  Biso   1.000  H
  H135     1.0000 0.03654  0.12688  0.92080  Biso   1.000  H
  H136     1.0000 0.44982  0.98504  0.36868  Biso   1.000  H
  H137     1.0000 0.66450  0.88843  0.49376  Biso   1.000  H
  H138     1.0000 0.54287  0.11736  0.58863  Biso   1.000  H
  H139     1.0000 0.64027  0.48333  0.13781  Biso   1.000  H
  H140     1.0000 0.40368  0.40369  0.00789  Biso   1.000  H
  H141     1.0000 0.52743  0.62016  0.91458  Biso   1.000  H
  H142     1.0000 0.13659  0.49040  0.36811  Biso   1.000  H
  H143     1.0000 0.90396  0.39163  0.50024  Biso   1.000  H
  H144     1.0000 0.03907  0.62248  0.58970  Biso   1.000  H
  H145     1.0000 0.62615  0.47869  0.87084  Biso   1.000  H
  H146     1.0000 0.89999  0.57266  0.50099  Biso   1.000  H
  H147     1.0000 0.52460  0.85550  0.60123  Biso   1.000  H
  H148     1.0000 0.12693  0.49598  0.63700  Biso   1.000  H
  H149     1.0000 0.40653  0.58516  0.01230  Biso   1.000  H
  H150     1.0000 0.03750  0.86249  0.90800  Biso   1.000  H
  H151     1.0000 0.94797  0.00060  0.87045  Biso   1.000  H
  H152     1.0000 0.67930  0.06628  0.49043  Biso   1.000  H
  H153     1.0000 0.03733  0.35437  0.60200  Biso   1.000  H
  H154     1.0000 0.44830  0.97571  0.63908  Biso   1.000  H
  H155     1.0000 0.17865  0.09143  0.00844  Biso   1.000  H
  H156     1.0000 0.54812  0.35449  0.90650  Biso   1.000  H
  H157     1.0000 0.45348  0.48414  0.14248  Biso   1.000  H
  H158     1.0000 0.17779  0.40360  0.50953  Biso   1.000  H
  H159     1.0000 0.54876  0.11821  0.40730  Biso   1.000  H
  H160     1.0000 0.95292  0.48990  0.36800  Biso   1.000  H
  H161     1.0000 0.67495  0.39094  0.00125  Biso   1.000  H
  H162     1.0000 0.04142  0.11601  0.09970  Biso   1.000  H
  H163     1.0000 0.13631  0.98681  0.13665  Biso   1.000  H
  H164     1.0000 0.39781  0.90153  0.50251  Biso   1.000  H
  H165     1.0000 0.03807  0.61719  0.40417  Biso   1.000  H
  H166     1.0000 0.63567  0.98280  0.36750  Biso   1.000  H
  H167     1.0000 0.90716  0.88880  0.00324  Biso   1.000  H
  H168     1.0000 0.55175  0.61308  0.09457  Biso   1.000  H
  H169     1.0000 0.04198  0.08677  0.87769  Biso   1.000  H
  H170     1.0000 0.91285  0.97360  0.09716  Biso   1.000  H
  H171     1.0000 0.13786  0.86543  0.99833  Biso   1.000  H
  H172     1.0000 0.53981  0.07625  0.63516  Biso   1.000  H
  H173     1.0000 0.40588  0.98852  0.41168  Biso   1.000  H
  H174     1.0000 0.61930  0.84943  0.50386  Biso   1.000  H
  H175     1.0000 0.53311  0.57801  0.87704  Biso   1.000  H
  H176     1.0000 0.67837  0.47946  0.09889  Biso   1.000  H
  H177     1.0000 0.45057  0.36150  0.99830  Biso   1.000  H
  H178     1.0000 0.03646  0.57621  0.63492  Biso   1.000  H
  H179     1.0000 0.17731  0.48959  0.40963  Biso   1.000  H
  H180     1.0000 0.94995  0.35339  0.50435  Biso   1.000  H
  H181     1.0000 0.05455  0.89347  0.12944  Biso   1.000  H
  H182     1.0000 0.17186  0.00020  0.91510  Biso   1.000  H
  H183     1.0000 0.95527  0.11727  0.00983  Biso   1.000  H
  H184     1.0000 0.52753  0.89255  0.36820  Biso   1.000  H
  H185     1.0000 0.67317  0.97656  0.59401  Biso   1.000  H
  H186     1.0000 0.45431  0.12358  0.51002  Biso   1.000  H
  H187     1.0000 0.55442  0.38699  0.13038  Biso   1.000  H
  H188     1.0000 0.40032  0.48223  0.91588  Biso   1.000  H
  H189     1.0000 0.63939  0.61220  0.00295  Biso   1.000  H
  H190     1.0000 0.04742  0.39949  0.37145  Biso   1.000  H
  H191     1.0000 0.89693  0.47315  0.59621  Biso   1.000  H
  H192     1.0000 0.12009  0.62289  0.49406  Biso   1.000  H
  H193     1.0000 0.30154  0.85269  0.48594  Biso   1.000  H
  H194     1.0000 0.55532  0.25774  0.85213  Biso   1.000  H
  H195     1.0000 0.90038  0.47989  0.27116  Biso   1.000  H
  H196     1.0000 0.81241  0.83368  0.00694  Biso   1.000  H
  H197     1.0000 0.04861  0.26093  0.65995  Biso   1.000  H
  H198     1.0000 0.40555  0.45265  0.23735  Biso   1.000  H
  H199     1.0000 0.27546  0.35451  0.50833  Biso   1.000  H
  H200     1.0000 0.04022  0.76961  0.84680  Biso   1.000  H
  H201     1.0000 0.68786  0.97534  0.27222  Biso   1.000  H
  H202     1.0000 0.77451  0.33710  0.00619  Biso   1.000  H
  H203     1.0000 0.50762  0.76230  0.65334  Biso   1.000  H
  H204     1.0000 0.18940  0.00129  0.23195  Biso   1.000  H
  H205     1.0000 0.77346  0.11825  0.48828  Biso   1.000  H
  H206     1.0000 0.52211  0.70328  0.15508  Biso   1.000  H
  H207     1.0000 0.17611  0.48478  0.73487  Biso   1.000  H
  H208     1.0000 0.27244  0.14147  0.01560  Biso   1.000  H
  H209     1.0000 0.02683  0.71482  0.35219  Biso   1.000  H
  H210     1.0000 0.67899  0.49723  0.77557  Biso   1.000  H
  H211     1.0000 0.80106  0.61957  0.47983  Biso   1.000  H
  H212     1.0000 0.04518  0.21471  0.15640  Biso   1.000  H
  H213     1.0000 0.39462  0.99670  0.73411  Biso   1.000  H
  H214     1.0000 0.31203  0.63829  0.98989  Biso   1.000  H
  H215     1.0000 0.54069  0.21358  0.35504  Biso   1.000  H
  H216     1.0000 0.89161  0.98316  0.77605  Biso   1.000  H
  H217     1.0000 0.27609  0.47445  0.36439  Biso   1.000  H
  H218     1.0000 0.40073  0.21993  0.48555  Biso   1.000  H
  H219     1.0000 0.54396  0.33337  0.22868  Biso   1.000  H
  H220     1.0000 0.77850  0.45151  0.13984  Biso   1.000  H
  H221     1.0000 0.89522  0.20855  0.01645  Biso   1.000  H
  H222     1.0000 0.03442  0.33902  0.27707  Biso   1.000  H
  H223     1.0000 0.31163  0.01714  0.35964  Biso   1.000  H
  H224     1.0000 0.16904  0.72240  0.49677  Biso   1.000  H
  H225     1.0000 0.04227  0.84081  0.22519  Biso   1.000  H
  H226     1.0000 0.81737  0.98743  0.15355  Biso   1.000  H
  H227     1.0000 0.68784  0.70956  0.00264  Biso   1.000  H
  H228     1.0000 0.54316  0.83586  0.27614  Biso   1.000  H
  H229     1.0000 0.80124  0.48845  0.64677  Biso   1.000  H
  H230     1.0000 0.67199  0.75226  0.51053  Biso   1.000  H
  H231     1.0000 0.52178  0.63223  0.77782  Biso   1.000  H
  H232     1.0000 0.30681  0.50475  0.86518  Biso   1.000  H
  H233     1.0000 0.19859  0.77089  0.00002  Biso   1.000  H
  H234     1.0000 0.03651  0.63850  0.72743  Biso   1.000  H
  H235     1.0000 0.76836  0.97795  0.65226  Biso   1.000  H
  H236     1.0000 0.91000  0.24992  0.49989  Biso   1.000  H
  H237     1.0000 0.03290  0.14442  0.78237  Biso   1.000  H
  H238     1.0000 0.26570  0.99896  0.85619  Biso   1.000  H
  H239     1.0000 0.39795  0.26652  0.98501  Biso   1.000  H
  H240     1.0000 0.56717  0.13094  0.72673  Biso   1.000  H
  H241     1.0000 0.76436  0.48098  0.85808  Biso   1.000  H
  H242     1.0000 0.88073  0.71227  0.48673  Biso   1.000  H
  H243     1.0000 0.52390  0.84815  0.73956  Biso   1.000  H
  H244     1.0000 0.26294  0.49538  0.64819  Biso   1.000  H
  H245     1.0000 0.40434  0.72442  0.00124  Biso   1.000  H
  H246     1.0000 0.03590  0.85443  0.76422  Biso   1.000  H
  H247     1.0000 0.82047  0.95545  0.86445  Biso   1.000  H
  H248     1.0000 0.68746  0.20665  0.50094  Biso   1.000  H
  H249     1.0000 0.04131  0.34934  0.74122  Biso   1.000  H
  H250     1.0000 0.30571  0.98179  0.64460  Biso   1.000  H
  H251     1.0000 0.18645  0.22449  0.00196  Biso   1.000  H
  H252     1.0000 0.55299  0.34279  0.76796  Biso   1.000  H
  H253     1.0000 0.31771  0.48955  0.16054  Biso   1.000  H
  H254     1.0000 0.19225  0.26536  0.51348  Biso   1.000  H
  H255     1.0000 0.54416  0.12586  0.26650  Biso   1.000  H
  H256     1.0000 0.81680  0.45322  0.35682  Biso   1.000  H
  H257     1.0000 0.68468  0.25098  0.01231  Biso   1.000  H
  H258     1.0000 0.01676  0.12995  0.23391  Biso   1.000  H
  H259     1.0000 0.27709  0.00718  0.14269  Biso   1.000  H
  H260     1.0000 0.37924  0.76193  0.50757  Biso   1.000  H
  H261     1.0000 0.05555  0.62348  0.26511  Biso   1.000  H
  H262     1.0000 0.76939  0.99500  0.35887  Biso   1.000  H
  H263     1.0000 0.90752  0.75066  0.99136  Biso   1.000  H
  H264     1.0000 0.54865  0.61886  0.23791  Biso   1.000  H
  H265     1.0000 0.03429  0.22581  0.87233  Biso   1.000  H
  H266     1.0000 0.90640  0.97512  0.23594  Biso   1.000  H
  H267     1.0000 0.27221  0.85797  0.02481  Biso   1.000  H
  H268     1.0000 0.54501  0.21413  0.64140  Biso   1.000  H
  H269     1.0000 0.39262  0.99339  0.27706  Biso   1.000  H
  H270     1.0000 0.76125  0.82930  0.48798  Biso   1.000  H
  H271     1.0000 0.54419  0.71584  0.86770  Biso   1.000  H
  H272     1.0000 0.69399  0.47260  0.23557  Biso   1.000  H
  H273     1.0000 0.31012  0.34734  0.00902  Biso   1.000  H
  H274     1.0000 0.04537  0.72008  0.63683  Biso   1.000  H
  H275     1.0000 0.19320  0.46203  0.27757  Biso   1.000  H
  H276     1.0000 0.81177  0.33283  0.49708  Biso   1.000  H
  H277     1.0000 0.03772  0.75327  0.13432  Biso   1.000  H
  H278     1.0000 0.17992  0.00673  0.77600  Biso   1.000  H
  H279     1.0000 0.81584  0.12613  0.99742  Biso   1.000  H
  H280     1.0000 0.53773  0.75410  0.36455  Biso   1.000  H
  H281     1.0000 0.67992  0.97170  0.73448  Biso   1.000  H
  H282     1.0000 0.31626  0.13789  0.50031  Biso   1.000  H
  H283     1.0000 0.52111  0.25277  0.13437  Biso   1.000  H
  H284     1.0000 0.38551  0.48761  0.77546  Biso   1.000  H
  H285     1.0000 0.77712  0.62404  0.99598  Biso   1.000  H
  H286     1.0000 0.05460  0.26026  0.36518  Biso   1.000  H
  H287     1.0000 0.88494  0.50774  0.72880  Biso   1.000  H
  H288     1.0000 0.25834  0.64188  0.48785  Biso   1.000  H
  H289     1.0000 0.13205  0.22228  0.99621  Biso   1.000  H
  H290     1.0000 0.01475  0.07480  0.23365  Biso   1.000  H
  H291     1.0000 0.27619  0.99230  0.09178  Biso   1.000  H
  H292     1.0000 0.63499  0.20722  0.50544  Biso   1.000  H
  H293     1.0000 0.54206  0.07264  0.26974  Biso   1.000  H
  H294     1.0000 0.76698  0.99635  0.41766  Biso   1.000  H
  H295     1.0000 0.45656  0.71778  0.00357  Biso   1.000  H
  H296     1.0000 0.55073  0.56700  0.23513  Biso   1.000  H
  H297     1.0000 0.31542  0.50029  0.10759  Biso   1.000  H
  H298     1.0000 0.93000  0.71574  0.49333  Biso   1.000  H
  H299     1.0000 0.05973  0.57321  0.26537  Biso   1.000  H
  H300     1.0000 0.81503  0.45815  0.41197  Biso   1.000  H
  H301     1.0000 0.96008  0.75422  0.99058  Biso   1.000  H
  H302     1.0000 0.03120  0.91126  0.76823  Biso   1.000  H
  H303     1.0000 0.81825  0.96215  0.91813  Biso   1.000  H
  H304     1.0000 0.43118  0.76091  0.51833  Biso   1.000  H
  H305     1.0000 0.52734  0.90474  0.73467  Biso   1.000  H
  H306     1.0000 0.31279  0.97644  0.58985  Biso   1.000  H
  H307     1.0000 0.63140  0.25535  0.01358  Biso   1.000  H
  H308     1.0000 0.54775  0.39870  0.77119  Biso   1.000  H
  H309     1.0000 0.76590  0.47784  0.91073  Biso   1.000  H
  H310     1.0000 0.13869  0.26323  0.51048  Biso   1.000  H
  H311     1.0000 0.03475  0.40377  0.73953  Biso   1.000  H
  H312     1.0000 0.26060  0.49957  0.59594  Biso   1.000  H
  H313     1.0000 0.26793  0.00326  0.91379  Biso   1.000  H
  H314     1.0000 0.94788  0.21271  0.02082  Biso   1.000  H
  H315     1.0000 0.04905  0.89079  0.22740  Biso   1.000  H
  H316     1.0000 0.76950  0.97604  0.59642  Biso   1.000  H
  H317     1.0000 0.45712  0.21691  0.48918  Biso   1.000  H
  H318     1.0000 0.54485  0.89247  0.27798  Biso   1.000  H
  H319     1.0000 0.30765  0.49458  0.92304  Biso   1.000  H
  H320     1.0000 0.63633  0.71019  0.00132  Biso   1.000  H
  H321     1.0000 0.55745  0.38357  0.22698  Biso   1.000  H
  H322     1.0000 0.80212  0.48321  0.59109  Biso   1.000  H
  H323     1.0000 0.11590  0.71900  0.50026  Biso   1.000  H
  H324     1.0000 0.03707  0.39110  0.27556  Biso   1.000  H
  H325     1.0000 0.81761  0.98746  0.09790  Biso   1.000  H
  H326     1.0000 0.14506  0.76790  0.98940  Biso   1.000  H
  H327     1.0000 0.03888  0.09286  0.77955  Biso   1.000  H
  H328     1.0000 0.31045  0.00919  0.41695  Biso   1.000  H
  H329     1.0000 0.61832  0.75749  0.52132  Biso   1.000  H
  H330     1.0000 0.55976  0.07898  0.72937  Biso   1.000  H
  H331     1.0000 0.77346  0.46285  0.08581  Biso   1.000  H
  H332     1.0000 0.45229  0.26423  0.98303  Biso   1.000  H
  H333     1.0000 0.51851  0.57873  0.77901  Biso   1.000  H
  H334     1.0000 0.27146  0.48606  0.41751  Biso   1.000  H
  H335     1.0000 0.96047  0.25871  0.49874  Biso   1.000  H
  H336     1.0000 0.03192  0.58522  0.72847  Biso   1.000  H
  H337     1.0000 0.02956  0.22190  0.92566  Biso   1.000  H
  H338     1.0000 0.95884  0.96778  0.23219  Biso   1.000  H
  H339     1.0000 0.26566  0.91035  0.03347  Biso   1.000  H
  H340     1.0000 0.52648  0.21390  0.59220  Biso   1.000  H
  H341     1.0000 0.44882  0.98779  0.27432  Biso   1.000  H
  H342     1.0000 0.76244  0.88172  0.48552  Biso   1.000  H
  H343     1.0000 0.54648  0.71463  0.92226  Biso   1.000  H
  H344     1.0000 0.63613  0.48009  0.23307  Biso   1.000  H
  H345     1.0000 0.31059  0.40331  0.01522  Biso   1.000  H
  H346     1.0000 0.04476  0.71776  0.58510  Biso   1.000  H
  H347     1.0000 0.13827  0.47323  0.27354  Biso   1.000  H
  H348     1.0000 0.80893  0.38528  0.49245  Biso   1.000  H
  H349     1.0000 0.04918  0.75500  0.07929  Biso   1.000  H
  H350     1.0000 0.12969  0.00133  0.77700  Biso   1.000  H
  H351     1.0000 0.81765  0.07009  0.98675  Biso   1.000  H
  H352     1.0000 0.53531  0.75971  0.41720  Biso   1.000  H
  H353     1.0000 0.62840  0.98352  0.73350  Biso   1.000  H
  H354     1.0000 0.31604  0.08589  0.51132  Biso   1.000  H
  H355     1.0000 0.52087  0.25916  0.08058  Biso   1.000  H
  H356     1.0000 0.43714  0.48113  0.77666  Biso   1.000  H
  H357     1.0000 0.77749  0.57329  0.99802  Biso   1.000  H
  H358     1.0000 0.05688  0.26149  0.42178  Biso   1.000  H
  H359     1.0000 0.94207  0.50713  0.72754  Biso   1.000  H
  H360     1.0000 0.26077  0.58557  0.48649  Biso   1.000  H
  H361     1.0000 0.01691  0.71079  0.40744  Biso   1.000  H
  H362     1.0000 0.44758  0.99197  0.73036  Biso   1.000  H
  H363     1.0000 0.77009  0.39017  0.00554  Biso   1.000  H
  H364     1.0000 0.53121  0.70624  0.10026  Biso   1.000  H
  H365     1.0000 0.94369  0.00013  0.77354  Biso   1.000  H
  H366     1.0000 0.27469  0.40792  0.50487  Biso   1.000  H
  H367     1.0000 0.54332  0.21410  0.40881  Biso   1.000  H
  H368     1.0000 0.12169  0.48134  0.73269  Biso   1.000  H
  H369     1.0000 0.81297  0.88953  0.01287  Biso   1.000  H
  H370     1.0000 0.04962  0.21137  0.09962  Biso   1.000  H
  H371     1.0000 0.62407  0.49674  0.77751  Biso   1.000  H
  H372     1.0000 0.30507  0.90670  0.48245  Biso   1.000  H
  H373     1.0000 0.05278  0.25945  0.60365  Biso   1.000  H
  H374     1.0000 0.63316  0.97188  0.27529  Biso   1.000  H
  H375     1.0000 0.31389  0.58584  0.99488  Biso   1.000  H
  H376     1.0000 0.54679  0.25814  0.90699  Biso   1.000  H
  H377     1.0000 0.13917  0.99596  0.23113  Biso   1.000  H
  H378     1.0000 0.80389  0.56528  0.49380  Biso   1.000  H
  H379     1.0000 0.51496  0.75821  0.59972  Biso   1.000  H
  H380     1.0000 0.95046  0.48920  0.27209  Biso   1.000  H
  H381     1.0000 0.27360  0.08550  0.01682  Biso   1.000  H
  H382     1.0000 0.04748  0.76680  0.89917  Biso   1.000  H
  H383     1.0000 0.45806  0.45030  0.23294  Biso   1.000  H
  H384     1.0000 0.77323  0.06526  0.49122  Biso   1.000  H
  H385     1.0000 0.26879  0.43282  0.33549  Biso   1.000  H
  H386     1.0000 0.31737  0.16690  0.46966  Biso   1.000  H
  H387     1.0000 0.51072  0.30530  0.21978  Biso   1.000  H
  H388     1.0000 0.72104  0.42914  0.22397  Biso   1.000  H
  H389     1.0000 0.86036  0.19810  0.05378  Biso   1.000  H
  H390     1.0000 0.01134  0.26443  0.34072  Biso   1.000  H
  H391     1.0000 0.31437  0.97703  0.33184  Biso   1.000  H
  H392     1.0000 0.20226  0.72039  0.46603  Biso   1.000  H
  H393     1.0000 0.00796  0.75963  0.17010  Biso   1.000  H
  H394     1.0000 0.81605  0.95771  0.17892  Biso   1.000  H
  H395     1.0000 0.77531  0.65499  0.02749  Biso   1.000  H
  H396     1.0000 0.57590  0.80416  0.28447  Biso   1.000  H
  H397     1.0000 0.80396  0.51979  0.67594  Biso   1.000  H
  H398     1.0000 0.75648  0.80385  0.51800  Biso   1.000  H
  H399     1.0000 0.55477  0.65940  0.77959  Biso   1.000  H
  H400     1.0000 0.35838  0.52682  0.77946  Biso   1.000  H
  H401     1.0000 0.27361  0.82584  0.97815  Biso   1.000  H
  H402     1.0000 0.06253  0.66291  0.72694  Biso   1.000  H
  H403     1.0000 0.76002  0.94050  0.68096  Biso   1.000  H
  H404     1.0000 0.81735  0.30302  0.52850  Biso   1.000  H
  H405     1.0000 0.00642  0.22543  0.84038  Biso   1.000  H
  H406     1.0000 0.26248  0.03611  0.82863  Biso   1.000  H
  H407     1.0000 0.31615  0.31945  0.97693  Biso   1.000  H
  H408     1.0000 0.53454  0.15852  0.72462  Biso   1.000  H
  H409     1.0000 0.31813  0.44641  0.17227  Biso   1.000  H
  H410     1.0000 0.22070  0.27902  0.47138  Biso   1.000  H
  H411     1.0000 0.50922  0.20229  0.32516  Biso   1.000  H
  H412     1.0000 0.88484  0.43930  0.27478  Biso   1.000  H
  H413     1.0000 0.71723  0.24646  0.97754  Biso   1.000  H
  H414     1.0000 0.00724  0.21481  0.17916  Biso   1.000  H
  H415     1.0000 0.21946  0.97011  0.22238  Biso   1.000  H
  H416     1.0000 0.35131  0.75873  0.47212  Biso   1.000  H
  H417     1.0000 0.02018  0.65432  0.26507  Biso   1.000  H
  H418     1.0000 0.76867  0.95537  0.33403  Biso   1.000  H
  H419     1.0000 0.87291  0.75335  0.02862  Biso   1.000  H
  H420     1.0000 0.52025  0.65091  0.24258  Biso   1.000  H
  H421     1.0000 0.75819  0.51455  0.83472  Biso   1.000  H
  H422     1.0000 0.80220  0.64674  0.51592  Biso   1.000  H
  H423     1.0000 0.54970  0.76319  0.68096  Biso   1.000  H
  H424     1.0000 0.20633  0.52613  0.73024  Biso   1.000  H
  H425     1.0000 0.36433  0.71703  0.96753  Biso   1.000  H
  H426     1.0000 0.07804  0.77831  0.81458  Biso   1.000  H
  H427     1.0000 0.80840  0.99210  0.83756  Biso   1.000  H
  H428     1.0000 0.76999  0.14769  0.52377  Biso   1.000  H
  H429     1.0000 0.07917  0.32154  0.73764  Biso   1.000  H
  H430     1.0000 0.35878  0.96403  0.73395  Biso   1.000  H
  H431     1.0000 0.22122  0.21864  0.97855  Biso   1.000  H
  H432     1.0000 0.51855  0.26335  0.81786  Biso   1.000  H
  H433     1.0000 0.30531  0.01180  0.67066  Biso   1.000  H
  H434     1.0000 0.76545  0.30586  0.04049  Biso   1.000  H
  H435     1.0000 0.06640  0.71173  0.32556  Biso   1.000  H
  H436     1.0000 0.86775  0.95140  0.77386  Biso   1.000  H
  H437     1.0000 0.27167  0.31589  0.54253  Biso   1.000  H
  H438     1.0000 0.56442  0.70491  0.17683  Biso   1.000  H
  H439     1.0000 0.25820  0.46030  0.68232  Biso   1.000  H
  H440     1.0000 0.82228  0.80257  0.96189  Biso   1.000  H
  H441     1.0000 0.57733  0.15727  0.27388  Biso   1.000  H
  H442     1.0000 0.70679  0.46226  0.77446  Biso   1.000  H
  H443     1.0000 0.30107  0.82378  0.52493  Biso   1.000  H
  H444     1.0000 0.05300  0.15540  0.24111  Biso   1.000  H
  H445     1.0000 0.71462  0.00624  0.27471  Biso   1.000  H
  H446     1.0000 0.32516  0.67312  0.04056  Biso   1.000  H
  H447     1.0000 0.02350  0.25750  0.68945  Biso   1.000  H
  H448     1.0000 0.26867  0.03578  0.17705  Biso   1.000  H
  H449     1.0000 0.84927  0.70047  0.45537  Biso   1.000  H
  H450     1.0000 0.58742  0.31119  0.77752  Biso   1.000  H
  H451     1.0000 0.81569  0.47948  0.32721  Biso   1.000  H
  H452     1.0000 0.26365  0.17622  0.04991  Biso   1.000  H
  H453     1.0000 0.49361  0.81728  0.74048  Biso   1.000  H
  H454     1.0000 0.37278  0.48256  0.24223  Biso   1.000  H
  H455     1.0000 0.72043  0.20902  0.46746  Biso   1.000  H
  H456     1.0000 0.00308  0.81851  0.76759  Biso   1.000  H
  H457     1.0000 0.69474  0.74441  0.47325  Biso   1.000  H
  H458     1.0000 0.50493  0.71137  0.84098  Biso   1.000  H
  H459     1.0000 0.86312  0.47110  0.73071  Biso   1.000  H
  H460     1.0000 0.21777  0.77650  0.03515  Biso   1.000  H
  H461     1.0000 0.01133  0.71908  0.66544  Biso   1.000  H
  H462     1.0000 0.30449  0.46309  0.83546  Biso   1.000  H
  H463     1.0000 0.87777  0.24949  0.46967  Biso   1.000  H
  H464     1.0000 0.06930  0.17088  0.79170  Biso   1.000  H
  H465     1.0000 0.70820  0.00092  0.73196  Biso   1.000  H
  H466     1.0000 0.37665  0.26312  0.02412  Biso   1.000  H
  H467     1.0000 0.58170  0.21679  0.66653  Biso   1.000  H
  H468     1.0000 0.20767  0.97545  0.78012  Biso   1.000  H
  H469     1.0000 0.37601  0.21935  0.52339  Biso   1.000  H
  H470     1.0000 0.55654  0.24625  0.16347  Biso   1.000  H
  H471     1.0000 0.22554  0.49821  0.27734  Biso   1.000  H
  H472     1.0000 0.82713  0.16254  0.96844  Biso   1.000  H
  H473     1.0000 0.06973  0.30577  0.27825  Biso   1.000  H
  H474     1.0000 0.77932  0.48681  0.17788  Biso   1.000  H
  H475     1.0000 0.24984  0.66633  0.52777  Biso   1.000  H
  H476     1.0000 0.07460  0.80961  0.21699  Biso   1.000  H
  H477     1.0000 0.36715  0.03676  0.28558  Biso   1.000  H
  H478     1.0000 0.72047  0.70787  0.96988  Biso   1.000  H
  H479     1.0000 0.50622  0.75891  0.32944  Biso   1.000  H
  H480     1.0000 0.87840  0.99973  0.23647  Biso   1.000  H
  N1       1.0000 0.72052  0.15312  0.49621  Biso   1.000  N
  N2       1.0000 0.54075  0.65264  0.18585  Biso   1.000  N
  N3       1.0000 0.20994  0.49190  0.68265  Biso   1.000  N
  N4       1.0000 0.22022  0.17461  0.01446  Biso   1.000  N
  N5       1.0000 0.04289  0.66066  0.31965  Biso   1.000  N
  N6       1.0000 0.70959  0.48412  0.82703  Biso   1.000  N
  N7       1.0000 0.85028  0.65319  0.48800  Biso   1.000  N
  N8       1.0000 0.03291  0.16155  0.18492  Biso   1.000  N
  N9       1.0000 0.36046  0.98381  0.68084  Biso   1.000  N
  N10      1.0000 0.36773  0.67116  0.00322  Biso   1.000  N
  N11      1.0000 0.54629  0.15901  0.32142  Biso   1.000  N
  N12      1.0000 0.86328  0.97627  0.83104  Biso   1.000  N
  N13      1.0000 0.35015  0.81782  0.49622  Biso   1.000  N
  N14      1.0000 0.55063  0.31149  0.82026  Biso   1.000  N
  N15      1.0000 0.87037  0.46630  0.32447  Biso   1.000  N
  N16      1.0000 0.87107  0.80365  0.99712  Biso   1.000  N
  N17      1.0000 0.04734  0.31410  0.68854  Biso   1.000  N
  N18      1.0000 0.37050  0.47105  0.18842  Biso   1.000  N
  N19      1.0000 0.22196  0.31945  0.50882  Biso   1.000  N
  N20      1.0000 0.03797  0.82271  0.81749  Biso   1.000  N
  N21      1.0000 0.71940  0.98168  0.32587  Biso   1.000  N
  N22      1.0000 0.71924  0.30263  0.00802  Biso   1.000  N
  N23      1.0000 0.51809  0.81353  0.68582  Biso   1.000  N
  N24      1.0000 0.22264  0.00122  0.17613  Biso   1.000  N
  N25      1.0000 0.85405  0.49328  0.67948  Biso   1.000  N
  N26      1.0000 0.70432  0.80150  0.49547  Biso   1.000  N
  N27      1.0000 0.53150  0.66270  0.83354  Biso   1.000  N
  N28      1.0000 0.35624  0.49476  0.83147  Biso   1.000  N
  N29      1.0000 0.22375  0.82566  0.00749  Biso   1.000  N
  N30      1.0000 0.03787  0.66890  0.67158  Biso   1.000  N
  N31      1.0000 0.71304  0.97380  0.68123  Biso   1.000  N
  N32      1.0000 0.86828  0.30223  0.50175  Biso   1.000  N
  N33      1.0000 0.03421  0.17335  0.83774  Biso   1.000  N
  N34      1.0000 0.21391  0.00445  0.82948  Biso   1.000  N
  N35      1.0000 0.36770  0.31681  0.00030  Biso   1.000  N
  N36      1.0000 0.55549  0.16238  0.67351  Biso   1.000  N
  N37      1.0000 0.22463  0.47037  0.32932  Biso   1.000  N
  N38      1.0000 0.37043  0.16838  0.49907  Biso   1.000  N
  N39      1.0000 0.53838  0.30162  0.17074  Biso   1.000  N
  N40      1.0000 0.72634  0.46606  0.18032  Biso   1.000  N
  N41      1.0000 0.86759  0.15491  0.00893  Biso   1.000  N
  N42      1.0000 0.04351  0.31022  0.33267  Biso   1.000  N
  N43      1.0000 0.36281  0.00237  0.32884  Biso   1.000  N
  N44      1.0000 0.20446  0.66861  0.49529  Biso   1.000  N
  N45      1.0000 0.04067  0.80756  0.17030  Biso   1.000  N
  N46      1.0000 0.87109  0.97623  0.18508  Biso   1.000  N
  N47      1.0000 0.72240  0.65791  0.00018  Biso   1.000  N
  N48      1.0000 0.53773  0.80619  0.32922  Biso   1.000  N
  O1       1.0000 0.38289  0.53674  0.01394  Biso   1.000  O
  O2       1.0000 0.04015  0.33264  0.55568  Biso   1.000  O
  O3       1.0000 0.58486  0.98326  0.34436  Biso   1.000  O
  O4       1.0000 0.87832  0.52176  0.50282  Biso   1.000  O
  O5       1.0000 0.54172  0.33289  0.95501  Biso   1.000  O
  O6       1.0000 0.08861  0.99032  0.16048  Biso   1.000  O
  O7       1.0000 0.20064  0.04151  0.00889  Biso   1.000  O
  O8       1.0000 0.52193  0.83136  0.55135  Biso   1.000  O
  O9       1.0000 0.00251  0.49330  0.34448  Biso   1.000  O
  O10      1.0000 0.69783  0.02182  0.50539  Biso   1.000  O
  O11      1.0000 0.04384  0.83597  0.95360  Biso   1.000  O
  O12      1.0000 0.50792  0.47087  0.16151  Biso   1.000  O
  O13      1.0000 0.69766  0.43755  0.00293  Biso   1.000  O
  O14      1.0000 0.02630  0.64000  0.45261  Biso   1.000  O
  O15      1.0000 0.49622  0.98908  0.66186  Biso   1.000  O
  O16      1.0000 0.19700  0.45083  0.50267  Biso   1.000  O
  O17      1.0000 0.54706  0.63962  0.05021  Biso   1.000  O
  O18      1.0000 0.99497  0.99219  0.84613  Biso   1.000  O
  O19      1.0000 0.88538  0.93812  0.01051  Biso   1.000  O
  O20      1.0000 0.54935  0.14343  0.45783  Biso   1.000  O
  O21      1.0000 0.07606  0.49240  0.65927  Biso   1.000  O
  O22      1.0000 0.37884  0.95039  0.50220  Biso   1.000  O
  O23      1.0000 0.04392  0.14224  0.05013  Biso   1.000  O
  O24      1.0000 0.57544  0.48942  0.84712  Biso   1.000  O
  O25      1.0000 0.00445  0.97611  0.15861  Biso   1.000  O
  O26      1.0000 0.19940  0.95741  0.00212  Biso   1.000  O
  O27      1.0000 0.03838  0.14986  0.96894  Biso   1.000  O
  O28      1.0000 0.49860  0.98242  0.34612  Biso   1.000  O
  O29      1.0000 0.69546  0.93961  0.50047  Biso   1.000  O
  O30      1.0000 0.53957  0.14115  0.53937  Biso   1.000  O
  O31      1.0000 0.59171  0.48136  0.15976  Biso   1.000  O
  O32      1.0000 0.38212  0.44988  0.01215  Biso   1.000  O
  O33      1.0000 0.54036  0.64216  0.96596  Biso   1.000  O
  O34      1.0000 0.08563  0.48280  0.34430  Biso   1.000  O
  O35      1.0000 0.87875  0.43799  0.50317  Biso   1.000  O
  O36      1.0000 0.03235  0.64582  0.53650  Biso   1.000  O
  O37      1.0000 0.07843  0.99589  0.84667  Biso   1.000  O
  O38      1.0000 0.89123  0.02088  0.00084  Biso   1.000  O
  O39      1.0000 0.04707  0.83096  0.03695  Biso   1.000  O
  O40      1.0000 0.57916  0.98352  0.65985  Biso   1.000  O
  O41      1.0000 0.38867  0.03424  0.50592  Biso   1.000  O
  O42      1.0000 0.53464  0.82948  0.46714  Biso   1.000  O
  O43      1.0000 0.49107  0.48607  0.84727  Biso   1.000  O
  O44      1.0000 0.70619  0.52240  0.00242  Biso   1.000  O
  O45      1.0000 0.53767  0.33067  0.03991  Biso   1.000  O
  O46      1.0000 0.99006  0.48926  0.65783  Biso   1.000  O
  O47      1.0000 0.19193  0.53470  0.49939  Biso   1.000  O
  O48      1.0000 0.04818  0.33221  0.46913  Biso   1.000  O
  O49      1.0000 0.05401  0.94231  0.15666  Biso   1.000  O
  O50      1.0000 0.19695  0.00300  0.96203  Biso   1.000  O
  O51      1.0000 0.00166  0.14395  0.01506  Biso   1.000  O
  O52      1.0000 0.53816  0.94217  0.34696  Biso   1.000  O
  O53      1.0000 0.69691  0.97966  0.54628  Biso   1.000  O
  O54      1.0000 0.50435  0.14382  0.49288  Biso   1.000  O
  O55      1.0000 0.55419  0.43488  0.15824  Biso   1.000  O
  O56      1.0000 0.38294  0.49232  0.96872  Biso   1.000  O
  O57      1.0000 0.58684  0.63687  0.00724  Biso   1.000  O
  O58      1.0000 0.04021  0.44598  0.34477  Biso   1.000  O
  O59      1.0000 0.87622  0.48158  0.54561  Biso   1.000  O
  O60      1.0000 0.06937  0.64410  0.49016  Biso   1.000  O
  O61      1.0000 0.03439  0.03891  0.85098  Biso   1.000  O
  O62      1.0000 0.88944  0.98401  0.04944  Biso   1.000  O
  O63      1.0000 0.08837  0.83762  0.99419  Biso   1.000  O
  O64      1.0000 0.53882  0.02750  0.66100  Biso   1.000  O
  O65      1.0000 0.37986  0.99262  0.46369  Biso   1.000  O
  O66      1.0000 0.56864  0.82848  0.51518  Biso   1.000  O
  O67      1.0000 0.52707  0.52699  0.85063  Biso   1.000  O
  O68      1.0000 0.69940  0.48149  0.04627  Biso   1.000  O
  O69      1.0000 0.49857  0.33545  0.99316  Biso   1.000  O
  O70      1.0000 0.03457  0.53339  0.65941  Biso   1.000  O
  O71      1.0000 0.19764  0.49214  0.46040  Biso   1.000  O
  O72      1.0000 0.00055  0.33236  0.50862  Biso   1.000  O
  O73      1.0000 0.03805  0.44638  0.66324  Biso   1.000  O
  O74      1.0000 0.69762  0.97971  0.46133  Biso   1.000  O
  O75      1.0000 0.50058  0.64472  0.01114  Biso   1.000  O
  O76      1.0000 0.53504  0.44477  0.84426  Biso   1.000  O
  O77      1.0000 0.20140  0.99433  0.04423  Biso   1.000  O
  O78      1.0000 0.98628  0.64534  0.49873  Biso   1.000  O
  O79      1.0000 0.53565  0.94334  0.66314  Biso   1.000  O
  O80      1.0000 0.88187  0.47944  0.46166  Biso   1.000  O
  O81      1.0000 0.08532  0.15018  0.00680  Biso   1.000  O
  O82      1.0000 0.03877  0.95431  0.84351  Biso   1.000  O
  O83      1.0000 0.38435  0.49092  0.05544  Biso   1.000  O
  O84      1.0000 0.58498  0.13780  0.50364  Biso   1.000  O
  O85      1.0000 0.04568  0.52714  0.33979  Biso   1.000  O
  O86      1.0000 0.38442  0.98642  0.54753  Biso   1.000  O
  O87      1.0000 0.58503  0.32930  0.99856  Biso   1.000  O
  O88      1.0000 0.54491  0.51815  0.16063  Biso   1.000  O
  O89      1.0000 0.89145  0.96852  0.96580  Biso   1.000  O
  O90      1.0000 0.08506  0.33529  0.51322  Biso   1.000  O
  O91      1.0000 0.54092  0.02560  0.34274  Biso   1.000  O
  O92      1.0000 0.19062  0.49216  0.54532  Biso   1.000  O
  O93      1.0000 0.00150  0.83133  0.00224  Biso   1.000  O
  O94      1.0000 0.03984  0.02586  0.16480  Biso   1.000  O
  O95      1.0000 0.69709  0.47783  0.96251  Biso   1.000  O
  O96      1.0000 0.48710  0.82731  0.50532  Biso   1.000  O
  O97      1.0000 0.50658  0.19122  0.49592  Biso   1.000  O
  O98      1.0000 0.55555  0.43388  0.20697  Biso   1.000  O
  O99      1.0000 0.24679  0.49285  0.46278  Biso   1.000  O
  O100     1.0000 0.99832  0.19251  0.01583  Biso   1.000  O
  O101     1.0000 0.04238  0.44258  0.29757  Biso   1.000  O
  O102     1.0000 0.74821  0.48190  0.04295  Biso   1.000  O
  O103     1.0000 0.06795  0.69232  0.49454  Biso   1.000  O
  O104     1.0000 0.05524  0.93966  0.20616  Biso   1.000  O
  O105     1.0000 0.33097  0.99990  0.46283  Biso   1.000  O
  O106     1.0000 0.58848  0.68535  0.00300  Biso   1.000  O
  O107     1.0000 0.54448  0.94160  0.29913  Biso   1.000  O
  O108     1.0000 0.83999  0.98613  0.04848  Biso   1.000  O
  O109     1.0000 0.57149  0.77969  0.51170  Biso   1.000  O
  O110     1.0000 0.52914  0.53050  0.80282  Biso   1.000  O
  O111     1.0000 0.82812  0.47885  0.53972  Biso   1.000  O
  O112     1.0000 0.09263  0.78926  0.98944  Biso   1.000  O
  O113     1.0000 0.03382  0.53551  0.70928  Biso   1.000  O
  O114     1.0000 0.33376  0.49347  0.97232  Biso   1.000  O
  O115     1.0000 0.00503  0.28478  0.50920  Biso   1.000  O
  O116     1.0000 0.04005  0.03985  0.80217  Biso   1.000  O
  O117     1.0000 0.74557  0.96815  0.54457  Biso   1.000  O
  O118     1.0000 0.50173  0.28694  0.98799  Biso   1.000  O
  O119     1.0000 0.54302  0.02880  0.70862  Biso   1.000  O
  O120     1.0000 0.24530  0.99789  0.96185  Biso   1.000  O
  O121     1.0000 0.07522  0.49390  0.70694  Biso   1.000  O
  O122     1.0000 0.74667  0.01648  0.50822  Biso   1.000  O
  O123     1.0000 0.54528  0.68948  0.05213  Biso   1.000  O
  O124     1.0000 0.57644  0.48884  0.79828  Biso   1.000  O
  O125     1.0000 0.24816  0.03874  0.00305  Biso   1.000  O
  O126     1.0000 0.02534  0.68841  0.45343  Biso   1.000  O
  O127     1.0000 0.49518  0.99108  0.71125  Biso   1.000  O
  O128     1.0000 0.83031  0.51809  0.49561  Biso   1.000  O
  O129     1.0000 0.03957  0.19029  0.05515  Biso   1.000  O
  O130     1.0000 0.99657  0.99898  0.79868  Biso   1.000  O
  O131     1.0000 0.33495  0.53566  0.01267  Biso   1.000  O
  O132     1.0000 0.54994  0.19294  0.45631  Biso   1.000  O
  O133     1.0000 0.00268  0.48712  0.29609  Biso   1.000  O
  O134     1.0000 0.33043  0.95525  0.49599  Biso   1.000  O
  O135     1.0000 0.54829  0.28448  0.95432  Biso   1.000  O
  O136     1.0000 0.50838  0.46791  0.20972  Biso   1.000  O
  O137     1.0000 0.83656  0.94075  0.00975  Biso   1.000  O
  O138     1.0000 0.04860  0.28304  0.55538  Biso   1.000  O
  O139     1.0000 0.58406  0.98112  0.29614  Biso   1.000  O
  O140     1.0000 0.24489  0.45580  0.50931  Biso   1.000  O
  O141     1.0000 0.05106  0.78717  0.94850  Biso   1.000  O
  O142     1.0000 0.08982  0.98820  0.20977  Biso   1.000  O
  O143     1.0000 0.74671  0.43829  0.00456  Biso   1.000  O
  O144     1.0000 0.52831  0.78254  0.54918  Biso   1.000  O
  O145     1.0000 0.59176  0.48095  0.20792  Biso   1.000  O
  O146     1.0000 0.24034  0.53811  0.50154  Biso   1.000  O
  O147     1.0000 0.54454  0.19021  0.53893  Biso   1.000  O
  O148     1.0000 0.08616  0.47982  0.29464  Biso   1.000  O
  O149     1.0000 0.75347  0.52238  0.99994  Biso   1.000  O
  O150     1.0000 0.04366  0.19768  0.97184  Biso   1.000  O
  O151     1.0000 0.00863  0.97254  0.20752  Biso   1.000  O
  O152     1.0000 0.33953  0.03786  0.50516  Biso   1.000  O
  O153     1.0000 0.02755  0.69339  0.53781  Biso   1.000  O
  O154     1.0000 0.49764  0.98054  0.29811  Biso   1.000  O
  O155     1.0000 0.84143  0.02280  0.00086  Biso   1.000  O
  O156     1.0000 0.54158  0.69282  0.96819  Biso   1.000  O
  O157     1.0000 0.49123  0.48713  0.79990  Biso   1.000  O
  O158     1.0000 0.83099  0.43716  0.49510  Biso   1.000  O
  O159     1.0000 0.53071  0.78150  0.46681  Biso   1.000  O
  O160     1.0000 0.98934  0.49278  0.70617  Biso   1.000  O
  O161     1.0000 0.33443  0.45303  0.01255  Biso   1.000  O
  O162     1.0000 0.04964  0.78310  0.03382  Biso   1.000  O
  O163     1.0000 0.07852  0.00264  0.79937  Biso   1.000  O
  O164     1.0000 0.74231  0.93289  0.49711  Biso   1.000  O
  O165     1.0000 0.04756  0.28260  0.47045  Biso   1.000  O
  O166     1.0000 0.57932  0.98133  0.70895  Biso   1.000  O
  O167     1.0000 0.24828  0.95667  0.00290  Biso   1.000  O
  O168     1.0000 0.53548  0.28186  0.03659  Biso   1.000  O
  O169     1.0000 0.03454  0.02540  0.21278  Biso   1.000  O
  O170     1.0000 0.25126  0.99554  0.04430  Biso   1.000  O
  O171     1.0000 0.08316  0.19832  0.01371  Biso   1.000  O
  O172     1.0000 0.54314  0.02271  0.29491  Biso   1.000  O
  O173     1.0000 0.74488  0.98194  0.46355  Biso   1.000  O
  O174     1.0000 0.58778  0.18648  0.50005  Biso   1.000  O
  O175     1.0000 0.54567  0.51903  0.21059  Biso   1.000  O
  O176     1.0000 0.33471  0.49622  0.05720  Biso   1.000  O
  O177     1.0000 0.50296  0.69411  0.01617  Biso   1.000  O
  O178     1.0000 0.04785  0.52371  0.29145  Biso   1.000  O
  O179     1.0000 0.83428  0.47596  0.45590  Biso   1.000  O
  O180     1.0000 0.98256  0.69479  0.49369  Biso   1.000  O
  O181     1.0000 0.03926  0.95674  0.79347  Biso   1.000  O
  O182     1.0000 0.84406  0.97864  0.96509  Biso   1.000  O
  O183     1.0000 0.00856  0.78487  0.98854  Biso   1.000  O
  O184     1.0000 0.53115  0.94764  0.71227  Biso   1.000  O
  O185     1.0000 0.33455  0.99280  0.54622  Biso   1.000  O
  O186     1.0000 0.48332  0.77901  0.50163  Biso   1.000  O
  O187     1.0000 0.53581  0.44889  0.79592  Biso   1.000  O
  O188     1.0000 0.74529  0.47399  0.95840  Biso   1.000  O
  O189     1.0000 0.58285  0.28029  0.00090  Biso   1.000  O
  O190     1.0000 0.03668  0.45101  0.71152  Biso   1.000  O
  O191     1.0000 0.23911  0.50461  0.54791  Biso   1.000  O
  O192     1.0000 0.08799  0.28780  0.51547  Biso   1.000  O
