data_image0
_cell_length_a       46.6527
_cell_length_b       46.4986
_cell_length_c       46.643
_cell_angle_alpha    90
_cell_angle_beta     90
_cell_angle_gamma    90

_symmetry_space_group_name_H-M    "P 1"
_symmetry_int_tables_number       1

loop_
  _symmetry_equiv_pos_as_xyz
  'x, y, z'

loop_
  _atom_site_label
  _atom_site_occupancy
  _atom_site_fract_x
  _atom_site_fract_y
  _atom_site_fract_z
  _atom_site_thermal_displace_type
  _atom_site_B_iso_or_equiv
  _atom_site_type_symbol
  C1       1.0000 0.57223  0.97143  0.33183  Biso   1.000  C
  C2       1.0000 0.34122  0.53483  0.99486  Biso   1.000  C
  C3       1.0000 0.00983  0.30814  0.57810  Biso   1.000  C
  C4       1.0000 0.07155  0.97387  0.18827  Biso   1.000  C
  C5       1.0000 0.84464  0.54888  0.50798  Biso   1.000  C
  C6       1.0000 0.52023  0.30762  0.94407  Biso   1.000  C
  C7       1.0000 0.95544  0.48094  0.33482  Biso   1.000  C
  C8       1.0000 0.20195  0.03720  0.00236  Biso   1.000  C
  C9       1.0000 0.53507  0.80283  0.57453  Biso   1.000  C
  C10      1.0000 0.45530  0.46545  0.18879  Biso   1.000  C
  C11      1.0000 0.69117  0.04227  0.53379  Biso   1.000  C
  C12      1.0000 0.02162  0.80598  0.94118  Biso   1.000  C
  C13      1.0000 0.46023  0.99945  0.68522  Biso   1.000  C
  C14      1.0000 0.70385  0.43454  0.00998  Biso   1.000  C
  C15      1.0000 0.03479  0.66612  0.44307  Biso   1.000  C
  C16      1.0000 0.96153  0.99321  0.82918  Biso   1.000  C
  C17      1.0000 0.19654  0.41875  0.50158  Biso   1.000  C
  C18      1.0000 0.51137  0.65625  0.07436  Biso   1.000  C
  C19      1.0000 0.08794  0.49355  0.68855  Biso   1.000  C
  C20      1.0000 0.83891  0.92933  0.01532  Biso   1.000  C
  C21      1.0000 0.51433  0.15788  0.44480  Biso   1.000  C
  C22      1.0000 0.58918  0.50234  0.83617  Biso   1.000  C
  C23      1.0000 0.34273  0.91812  0.51136  Biso   1.000  C
  C24      1.0000 0.02640  0.16836  0.07572  Biso   1.000  C
  C25      1.0000 0.33166  0.02584  0.50281  Biso   1.000  C
  C26      1.0000 0.52754  0.29941  0.05153  Biso   1.000  C
  C27      1.0000 0.06283  0.47378  0.33137  Biso   1.000  C
  C28      1.0000 0.83947  0.03727  0.00886  Biso   1.000  C
  C29      1.0000 0.00754  0.30040  0.46841  Biso   1.000  C
  C30      1.0000 0.56531  0.47203  0.18971  Biso   1.000  C
  C31      1.0000 0.20409  0.52941  0.50519  Biso   1.000  C
  C32      1.0000 0.01440  0.80423  0.05187  Biso   1.000  C
  C33      1.0000 0.46454  0.96522  0.32772  Biso   1.000  C
  C34      1.0000 0.70405  0.53979  0.02841  Biso   1.000  C
  C35      1.0000 0.53067  0.79848  0.46534  Biso   1.000  C
  C36      1.0000 0.96156  0.97182  0.19006  Biso   1.000  C
  C37      1.0000 0.70683  0.93509  0.50570  Biso   1.000  C
  C38      1.0000 0.52442  0.66903  0.96664  Biso   1.000  C
  C39      1.0000 0.97746  0.49427  0.69204  Biso   1.000  C
  C40      1.0000 0.19700  0.92784  0.00688  Biso   1.000  C
  C41      1.0000 0.02736  0.67106  0.55087  Biso   1.000  C
  C42      1.0000 0.48305  0.48194  0.82961  Biso   1.000  C
  C43      1.0000 0.83219  0.43831  0.52218  Biso   1.000  C
  C44      1.0000 0.01812  0.16847  0.96596  Biso   1.000  C
  C45      1.0000 0.56956  0.98611  0.68970  Biso   1.000  C
  C46      1.0000 0.34696  0.42526  0.00510  Biso   1.000  C
  C47      1.0000 0.50531  0.16871  0.55413  Biso   1.000  C
  C48      1.0000 0.07076  0.99120  0.82646  Biso   1.000  C
  C49      1.0000 0.02066  0.04966  0.83158  Biso   1.000  C
  C50      1.0000 0.83553  0.98919  0.06875  Biso   1.000  C
  C51      1.0000 0.07166  0.79913  0.99920  Biso   1.000  C
  C52      1.0000 0.52113  0.04487  0.68189  Biso   1.000  C
  C53      1.0000 0.34069  0.96778  0.45189  Biso   1.000  C
  C54      1.0000 0.58823  0.79967  0.51169  Biso   1.000  C
  C55      1.0000 0.52610  0.54595  0.83540  Biso   1.000  C
  C56      1.0000 0.70424  0.48051  0.07465  Biso   1.000  C
  C57      1.0000 0.47197  0.30071  0.00232  Biso   1.000  C
  C58      1.0000 0.02914  0.54996  0.68742  Biso   1.000  C
  C59      1.0000 0.20087  0.47804  0.44620  Biso   1.000  C
  C60      1.0000 0.95270  0.30518  0.52110  Biso   1.000  C
  C61      1.0000 0.01664  0.91999  0.18583  Biso   1.000  C
  C62      1.0000 0.20181  0.98032  0.95175  Biso   1.000  C
  C63      1.0000 0.96569  0.16934  0.02456  Biso   1.000  C
  C64      1.0000 0.52186  0.91618  0.33432  Biso   1.000  C
  C65      1.0000 0.70078  0.97495  0.57037  Biso   1.000  C
  C66      1.0000 0.45184  0.16007  0.49365  Biso   1.000  C
  C67      1.0000 0.51526  0.41730  0.18387  Biso   1.000  C
  C68      1.0000 0.34650  0.47180  0.94657  Biso   1.000  C
  C69      1.0000 0.57327  0.66216  0.02690  Biso   1.000  C
  C70      1.0000 0.00335  0.42338  0.33769  Biso   1.000  C
  C71      1.0000 0.84302  0.50058  0.57186  Biso   1.000  C
  C72      1.0000 0.08264  0.66284  0.50152  Biso   1.000  C
  C73      1.0000 0.01155  0.53365  0.32775  Biso   1.000  C
  C74      1.0000 0.33809  0.97752  0.56013  Biso   1.000  C
  C75      1.0000 0.58090  0.30362  0.99640  Biso   1.000  C
  C76      1.0000 0.50769  0.52489  0.19283  Biso   1.000  C
  C77      1.0000 0.83546  0.97995  0.95830  Biso   1.000  C
  C78      1.0000 0.06095  0.30231  0.51898  Biso   1.000  C
  C79      1.0000 0.51713  0.02346  0.32478  Biso   1.000  C
  C80      1.0000 0.20532  0.47788  0.55639  Biso   1.000  C
  C81      1.0000 0.96280  0.80393  0.98855  Biso   1.000  C
  C82      1.0000 0.01334  0.02936  0.18869  Biso   1.000  C
  C83      1.0000 0.70992  0.49550  0.96517  Biso   1.000  C
  C84      1.0000 0.48096  0.80093  0.52033  Biso   1.000  C
  C85      1.0000 0.03376  0.43964  0.69281  Biso   1.000  C
  C86      1.0000 0.69947  0.99346  0.46482  Biso   1.000  C
  C87      1.0000 0.46617  0.66684  0.01389  Biso   1.000  C
  C88      1.0000 0.54474  0.43945  0.82844  Biso   1.000  C
  C89      1.0000 0.19883  0.98446  0.05951  Biso   1.000  C
  C90      1.0000 0.97533  0.66902  0.49451  Biso   1.000  C
  C91      1.0000 0.51066  0.93845  0.69129  Biso   1.000  C
  C92      1.0000 0.83305  0.48627  0.46500  Biso   1.000  C
  C93      1.0000 0.07456  0.16305  0.01534  Biso   1.000  C
  C94      1.0000 0.01567  0.93769  0.82394  Biso   1.000  C
  C95      1.0000 0.33929  0.48341  0.05732  Biso   1.000  C
  C96      1.0000 0.56288  0.16158  0.50143  Biso   1.000  C
  C97      1.0000 0.69017  0.07397  0.53892  Biso   1.000  C
  C98      1.0000 0.50153  0.65468  0.10518  Biso   1.000  C
  C99      1.0000 0.12109  0.49295  0.68828  Biso   1.000  C
  C100     1.0000 0.19948  0.06844  0.99673  Biso   1.000  C
  C101     1.0000 0.03727  0.66600  0.41165  Biso   1.000  C
  C102     1.0000 0.62090  0.50619  0.83598  Biso   1.000  C
  C103     1.0000 0.84601  0.57912  0.49739  Biso   1.000  C
  C104     1.0000 0.02768  0.16560  0.10737  Biso   1.000  C
  C105     1.0000 0.42816  0.00143  0.68504  Biso   1.000  C
  C106     1.0000 0.34194  0.56630  0.99122  Biso   1.000  C
  C107     1.0000 0.51638  0.15671  0.41337  Biso   1.000  C
  C108     1.0000 0.92946  0.99056  0.83076  Biso   1.000  C
  C109     1.0000 0.34697  0.88591  0.50745  Biso   1.000  C
  C110     1.0000 0.51775  0.30884  0.91273  Biso   1.000  C
  C111     1.0000 0.92228  0.48052  0.33550  Biso   1.000  C
  C112     1.0000 0.83846  0.89820  0.01111  Biso   1.000  C
  C113     1.0000 0.01670  0.30969  0.60900  Biso   1.000  C
  C114     1.0000 0.42211  0.46282  0.18870  Biso   1.000  C
  C115     1.0000 0.19690  0.38751  0.50261  Biso   1.000  C
  C116     1.0000 0.02534  0.80544  0.90904  Biso   1.000  C
  C117     1.0000 0.60369  0.96643  0.33742  Biso   1.000  C
  C118     1.0000 0.70473  0.40246  0.00924  Biso   1.000  C
  C119     1.0000 0.53346  0.80386  0.60600  Biso   1.000  C
  C120     1.0000 0.10336  0.97510  0.18640  Biso   1.000  C
  C121     1.0000 0.83432  0.98826  0.10045  Biso   1.000  C
  C122     1.0000 0.10266  0.79739  0.00090  Biso   1.000  C
  C123     1.0000 0.02497  0.08099  0.83302  Biso   1.000  C
  C124     1.0000 0.33873  0.96943  0.42096  Biso   1.000  C
  C125     1.0000 0.61847  0.80146  0.50165  Biso   1.000  C
  C126     1.0000 0.52555  0.07739  0.68392  Biso   1.000  C
  C127     1.0000 0.70088  0.48217  0.10640  Biso   1.000  C
  C128     1.0000 0.44069  0.29928  0.00088  Biso   1.000  C
  C129     1.0000 0.52288  0.57783  0.83640  Biso   1.000  C
  C130     1.0000 0.19913  0.47930  0.41392  Biso   1.000  C
  C131     1.0000 0.91976  0.30635  0.52079  Biso   1.000  C
  C132     1.0000 0.02760  0.58240  0.68585  Biso   1.000  C
  C133     1.0000 0.20005  0.98054  0.91950  Biso   1.000  C
  C134     1.0000 0.93346  0.16666  0.02502  Biso   1.000  C
  C135     1.0000 0.01979  0.88804  0.18469  Biso   1.000  C
  C136     1.0000 0.69922  0.96747  0.60181  Biso   1.000  C
  C137     1.0000 0.41983  0.15906  0.49645  Biso   1.000  C
  C138     1.0000 0.51721  0.88404  0.33561  Biso   1.000  C
  C139     1.0000 0.34656  0.47042  0.91449  Biso   1.000  C
  C140     1.0000 0.60436  0.66298  0.02603  Biso   1.000  C
  C141     1.0000 0.51809  0.38502  0.18332  Biso   1.000  C
  C142     1.0000 0.84367  0.50144  0.60496  Biso   1.000  C
  C143     1.0000 0.11499  0.66080  0.50369  Biso   1.000  C
  C144     1.0000 0.00226  0.39008  0.33881  Biso   1.000  C
  C145     1.0000 0.33500  0.48428  0.08936  Biso   1.000  C
  C146     1.0000 0.09242  0.30191  0.51256  Biso   1.000  C
  C147     1.0000 0.51548  0.05523  0.32280  Biso   1.000  C
  C148     1.0000 0.83065  0.48379  0.43442  Biso   1.000  C
  C149     1.0000 0.61277  0.30437  0.99931  Biso   1.000  C
  C150     1.0000 0.00701  0.06107  0.19146  Biso   1.000  C
  C151     1.0000 0.19712  0.98474  0.09140  Biso   1.000  C
  C152     1.0000 0.44891  0.80031  0.51902  Biso   1.000  C
  C153     1.0000 0.01567  0.56545  0.32751  Biso   1.000  C
  C154     1.0000 0.69958  0.98697  0.43261  Biso   1.000  C
  C155     1.0000 0.93189  0.80231  0.98263  Biso   1.000  C
  C156     1.0000 0.50528  0.55619  0.19518  Biso   1.000  C
  C157     1.0000 0.71245  0.49528  0.93365  Biso   1.000  C
  C158     1.0000 0.94339  0.67237  0.49708  Biso   1.000  C
  C159     1.0000 0.51121  0.90562  0.69217  Biso   1.000  C
  C160     1.0000 0.20880  0.47988  0.58896  Biso   1.000  C
  C161     1.0000 0.43448  0.66585  0.01321  Biso   1.000  C
  C162     1.0000 0.01843  0.90508  0.82210  Biso   1.000  C
  C163     1.0000 0.83648  0.97222  0.92784  Biso   1.000  C
  C164     1.0000 0.59515  0.16170  0.50099  Biso   1.000  C
  C165     1.0000 0.03722  0.40884  0.69497  Biso   1.000  C
  C166     1.0000 0.33583  0.98227  0.59190  Biso   1.000  C
  C167     1.0000 0.10694  0.16250  0.01483  Biso   1.000  C
  C168     1.0000 0.54166  0.40748  0.82678  Biso   1.000  C
  C169     1.0000 0.01963  0.80068  0.08407  Biso   1.000  C
  C170     1.0000 0.10238  0.99232  0.82668  Biso   1.000  C
  C171     1.0000 0.83833  0.06929  0.00976  Biso   1.000  C
  C172     1.0000 0.52636  0.79575  0.43400  Biso   1.000  C
  C173     1.0000 0.60096  0.98245  0.69026  Biso   1.000  C
  C174     1.0000 0.32920  0.05722  0.49875  Biso   1.000  C
  C175     1.0000 0.52316  0.29539  0.08317  Biso   1.000  C
  C176     1.0000 0.45084  0.48139  0.82781  Biso   1.000  C
  C177     1.0000 0.70308  0.57255  0.02886  Biso   1.000  C
  C178     1.0000 0.00766  0.29886  0.43612  Biso   1.000  C
  C179     1.0000 0.94581  0.49386  0.69370  Biso   1.000  C
  C180     1.0000 0.20491  0.56213  0.50806  Biso   1.000  C
  C181     1.0000 0.02183  0.17092  0.93429  Biso   1.000  C
  C182     1.0000 0.93073  0.96684  0.19166  Biso   1.000  C
  C183     1.0000 0.19608  0.89476  0.00346  Biso   1.000  C
  C184     1.0000 0.50853  0.16866  0.58560  Biso   1.000  C
  C185     1.0000 0.43240  0.96240  0.32676  Biso   1.000  C
  C186     1.0000 0.70757  0.90302  0.50051  Biso   1.000  C
  C187     1.0000 0.52620  0.67101  0.93465  Biso   1.000  C
  C188     1.0000 0.59711  0.46841  0.19021  Biso   1.000  C
  C189     1.0000 0.34686  0.39360  0.00460  Biso   1.000  C
  C190     1.0000 0.02647  0.67155  0.58288  Biso   1.000  C
  C191     1.0000 0.09444  0.47149  0.32813  Biso   1.000  C
  C192     1.0000 0.82963  0.40645  0.52095  Biso   1.000  C
  C193     1.0000 0.86349  0.97578  0.91265  Biso   1.000  C
  C194     1.0000 0.91652  0.82969  0.98715  Biso   1.000  C
  C195     1.0000 0.02436  0.88804  0.84778  Biso   1.000  C
  C196     1.0000 0.36193  0.98462  0.60795  Biso   1.000  C
  C197     1.0000 0.43013  0.82659  0.51638  Biso   1.000  C
  C198     1.0000 0.51719  0.88739  0.66733  Biso   1.000  C
  C199     1.0000 0.68743  0.49757  0.91641  Biso   1.000  C
  C200     1.0000 0.62829  0.33246  0.00058  Biso   1.000  C
  C201     1.0000 0.53693  0.39045  0.85204  Biso   1.000  C
  C202     1.0000 0.18290  0.48102  0.60623  Biso   1.000  C
  C203     1.0000 0.11074  0.32782  0.50793  Biso   1.000  C
  C204     1.0000 0.03377  0.39095  0.66891  Biso   1.000  C
  C205     1.0000 0.16768  0.98555  0.10773  Biso   1.000  C
  C206     1.0000 0.12217  0.13465  0.00894  Biso   1.000  C
  C207     1.0000 0.00949  0.07999  0.16656  Biso   1.000  C
  C208     1.0000 0.67289  0.98338  0.41742  Biso   1.000  C
  C209     1.0000 0.61259  0.13614  0.50830  Biso   1.000  C
  C210     1.0000 0.51543  0.07245  0.35000  Biso   1.000  C
  C211     1.0000 0.36041  0.47903  0.10805  Biso   1.000  C
  C212     1.0000 0.42045  0.63782  0.00517  Biso   1.000  C
  C213     1.0000 0.50354  0.57277  0.16873  Biso   1.000  C
  C214     1.0000 0.85780  0.48272  0.41847  Biso   1.000  C
  C215     1.0000 0.92618  0.64516  0.49865  Biso   1.000  C
  C216     1.0000 0.01604  0.58497  0.35259  Biso   1.000  C
  C217     1.0000 0.11883  0.98484  0.85222  Biso   1.000  C
  C218     1.0000 0.86546  0.08582  0.01160  Biso   1.000  C
  C219     1.0000 0.01872  0.82689  0.10195  Biso   1.000  C
  C220     1.0000 0.62000  0.98107  0.66375  Biso   1.000  C
  C221     1.0000 0.35605  0.07500  0.50156  Biso   1.000  C
  C222     1.0000 0.52197  0.82064  0.41681  Biso   1.000  C
  C223     1.0000 0.43427  0.47427  0.85311  Biso   1.000  C
  C224     1.0000 0.67592  0.58772  0.02992  Biso   1.000  C
  C225     1.0000 0.52107  0.32066  0.10175  Biso   1.000  C
  C226     1.0000 0.92849  0.49571  0.66711  Biso   1.000  C
  C227     1.0000 0.17862  0.58043  0.50773  Biso   1.000  C
  C228     1.0000 0.00394  0.32398  0.41860  Biso   1.000  C
  C229     1.0000 0.91307  0.97435  0.16681  Biso   1.000  C
  C230     1.0000 0.16971  0.87782  0.00337  Biso   1.000  C
  C231     1.0000 0.02030  0.14303  0.91708  Biso   1.000  C
  C232     1.0000 0.41531  0.96158  0.35284  Biso   1.000  C
  C233     1.0000 0.68170  0.88539  0.50140  Biso   1.000  C
  C234     1.0000 0.51746  0.14150  0.60104  Biso   1.000  C
  C235     1.0000 0.61593  0.46926  0.16464  Biso   1.000  C
  C236     1.0000 0.37312  0.37555  0.00563  Biso   1.000  C
  C237     1.0000 0.52792  0.64567  0.91671  Biso   1.000  C
  C238     1.0000 0.11238  0.47576  0.35429  Biso   1.000  C
  C239     1.0000 0.85578  0.38897  0.52169  Biso   1.000  C
  C240     1.0000 0.02532  0.64494  0.60035  Biso   1.000  C
  C241     1.0000 0.63566  0.50357  0.86353  Biso   1.000  C
  C242     1.0000 0.87295  0.59434  0.49865  Biso   1.000  C
  C243     1.0000 0.53292  0.83187  0.62174  Biso   1.000  C
  C244     1.0000 0.13422  0.48731  0.66126  Biso   1.000  C
  C245     1.0000 0.36869  0.58378  0.99626  Biso   1.000  C
  C246     1.0000 0.02672  0.83323  0.89482  Biso   1.000  C
  C247     1.0000 0.91525  0.98519  0.85840  Biso   1.000  C
  C248     1.0000 0.66471  0.08913  0.52897  Biso   1.000  C
  C249     1.0000 0.02217  0.33755  0.62340  Biso   1.000  C
  C250     1.0000 0.41265  0.99701  0.65803  Biso   1.000  C
  C251     1.0000 0.17152  0.08357  0.00012  Biso   1.000  C
  C252     1.0000 0.52478  0.33660  0.89838  Biso   1.000  C
  C253     1.0000 0.40720  0.46940  0.16212  Biso   1.000  C
  C254     1.0000 0.16931  0.37346  0.50443  Biso   1.000  C
  C255     1.0000 0.51518  0.12742  0.39956  Biso   1.000  C
  C256     1.0000 0.90841  0.48179  0.36284  Biso   1.000  C
  C257     1.0000 0.67890  0.38567  0.00798  Biso   1.000  C
  C258     1.0000 0.02134  0.13821  0.12127  Biso   1.000  C
  C259     1.0000 0.11680  0.97622  0.15863  Biso   1.000  C
  C260     1.0000 0.37384  0.87237  0.51152  Biso   1.000  C
  C261     1.0000 0.02733  0.63833  0.39846  Biso   1.000  C
  C262     1.0000 0.61959  0.97446  0.36443  Biso   1.000  C
  C263     1.0000 0.86522  0.88280  0.00321  Biso   1.000  C
  C264     1.0000 0.50229  0.62716  0.12009  Biso   1.000  C
  C265     1.0000 0.02514  0.09507  0.86164  Biso   1.000  C
  C266     1.0000 0.86071  0.98558  0.11594  Biso   1.000  C
  C267     1.0000 0.11791  0.82423  0.00634  Biso   1.000  C
  C268     1.0000 0.52449  0.09187  0.65709  Biso   1.000  C
  C269     1.0000 0.36451  0.96432  0.40343  Biso   1.000  C
  C270     1.0000 0.63364  0.82901  0.50274  Biso   1.000  C
  C271     1.0000 0.52568  0.59357  0.86318  Biso   1.000  C
  C272     1.0000 0.67148  0.47972  0.11810  Biso   1.000  C
  C273     1.0000 0.42333  0.32518  0.00206  Biso   1.000  C
  C274     1.0000 0.02817  0.59597  0.65607  Biso   1.000  C
  C275     1.0000 0.16904  0.47909  0.40052  Biso   1.000  C
  C276     1.0000 0.90502  0.33382  0.52197  Biso   1.000  C
  C277     1.0000 0.02031  0.87332  0.15729  Biso   1.000  C
  C278     1.0000 0.17257  0.98029  0.90411  Biso   1.000  C
  C279     1.0000 0.91644  0.13839  0.02398  Biso   1.000  C
  C280     1.0000 0.51908  0.87020  0.36407  Biso   1.000  C
  C281     1.0000 0.67260  0.97175  0.61623  Biso   1.000  C
  C282     1.0000 0.40540  0.13117  0.50051  Biso   1.000  C
  C283     1.0000 0.51834  0.37141  0.15472  Biso   1.000  C
  C284     1.0000 0.37620  0.47173  0.90148  Biso   1.000  C
  C285     1.0000 0.62247  0.63697  0.02887  Biso   1.000  C
  C286     1.0000 0.00453  0.37419  0.36509  Biso   1.000  C
  C287     1.0000 0.87184  0.49806  0.61859  Biso   1.000  C
  C288     1.0000 0.12977  0.63398  0.50781  Biso   1.000  C
  C289     1.0000 0.37670  0.84109  0.51107  Biso   1.000  C
  C290     1.0000 0.52716  0.33804  0.86665  Biso   1.000  C
  C291     1.0000 0.87789  0.48054  0.36486  Biso   1.000  C
  C292     1.0000 0.86321  0.85203  0.99715  Biso   1.000  C
  C293     1.0000 0.02903  0.33753  0.65321  Biso   1.000  C
  C294     1.0000 0.37653  0.47306  0.16192  Biso   1.000  C
  C295     1.0000 0.16661  0.34271  0.50347  Biso   1.000  C
  C296     1.0000 0.02832  0.83384  0.86411  Biso   1.000  C
  C297     1.0000 0.65169  0.97634  0.36376  Biso   1.000  C
  C298     1.0000 0.67962  0.35489  0.00890  Biso   1.000  C
  C299     1.0000 0.52312  0.83257  0.65175  Biso   1.000  C
  C300     1.0000 0.14777  0.97737  0.15957  Biso   1.000  C
  C301     1.0000 0.66502  0.12103  0.52535  Biso   1.000  C
  C302     1.0000 0.50347  0.62707  0.15166  Biso   1.000  C
  C303     1.0000 0.16719  0.48799  0.66004  Biso   1.000  C
  C304     1.0000 0.17445  0.11491  0.99959  Biso   1.000  C
  C305     1.0000 0.02611  0.63804  0.36745  Biso   1.000  C
  C306     1.0000 0.66688  0.50647  0.86303  Biso   1.000  C
  C307     1.0000 0.87389  0.62581  0.49276  Biso   1.000  C
  C308     1.0000 0.01939  0.13476  0.15212  Biso   1.000  C
  C309     1.0000 0.38118  0.99707  0.66021  Biso   1.000  C
  C310     1.0000 0.36743  0.61499  0.99556  Biso   1.000  C
  C311     1.0000 0.51419  0.12742  0.36803  Biso   1.000  C
  C312     1.0000 0.88348  0.98129  0.85971  Biso   1.000  C
  C313     1.0000 0.16702  0.47694  0.36991  Biso   1.000  C
  C314     1.0000 0.37391  0.12912  0.49897  Biso   1.000  C
  C315     1.0000 0.51839  0.33942  0.15492  Biso   1.000  C
  C316     1.0000 0.67110  0.47790  0.15058  Biso   1.000  C
  C317     1.0000 0.88495  0.13785  0.02302  Biso   1.000  C
  C318     1.0000 0.00573  0.34300  0.36538  Biso   1.000  C
  C319     1.0000 0.36209  0.96273  0.37211  Biso   1.000  C
  C320     1.0000 0.16106  0.63386  0.50747  Biso   1.000  C
  C321     1.0000 0.02059  0.84251  0.15681  Biso   1.000  C
  C322     1.0000 0.86040  0.97572  0.14600  Biso   1.000  C
  C323     1.0000 0.65316  0.64014  0.02693  Biso   1.000  C
  C324     1.0000 0.51392  0.83864  0.36394  Biso   1.000  C
  C325     1.0000 0.87433  0.50128  0.64907  Biso   1.000  C
  C326     1.0000 0.66468  0.82993  0.49851  Biso   1.000  C
  C327     1.0000 0.52274  0.62486  0.86366  Biso   1.000  C
  C328     1.0000 0.37938  0.47078  0.86977  Biso   1.000  C
  C329     1.0000 0.14996  0.82569  0.00194  Biso   1.000  C
  C330     1.0000 0.02696  0.62728  0.65587  Biso   1.000  C
  C331     1.0000 0.67326  0.97291  0.64708  Biso   1.000  C
  C332     1.0000 0.87419  0.33281  0.51794  Biso   1.000  C
  C333     1.0000 0.02807  0.12673  0.86352  Biso   1.000  C
  C334     1.0000 0.17329  0.98946  0.87427  Biso   1.000  C
  C335     1.0000 0.39220  0.32355  0.00292  Biso   1.000  C
  C336     1.0000 0.52185  0.12308  0.65473  Biso   1.000  C
  C337     1.0000 0.68874  0.50416  0.88563  Biso   1.000  C
  C338     1.0000 0.89575  0.64677  0.49502  Biso   1.000  C
  C339     1.0000 0.51746  0.85620  0.67149  Biso   1.000  C
  C340     1.0000 0.18603  0.48365  0.63730  Biso   1.000  C
  C341     1.0000 0.38947  0.63741  0.99843  Biso   1.000  C
  C342     1.0000 0.02697  0.85657  0.84448  Biso   1.000  C
  C343     1.0000 0.86228  0.97736  0.88112  Biso   1.000  C
  C344     1.0000 0.64301  0.14097  0.51567  Biso   1.000  C
  C345     1.0000 0.03475  0.36011  0.67263  Biso   1.000  C
  C346     1.0000 0.36018  0.99171  0.63867  Biso   1.000  C
  C347     1.0000 0.15285  0.13636  0.00299  Biso   1.000  C
  C348     1.0000 0.53109  0.35970  0.84711  Biso   1.000  C
  C349     1.0000 0.35783  0.47763  0.13876  Biso   1.000  C
  C350     1.0000 0.14223  0.32564  0.50562  Biso   1.000  C
  C351     1.0000 0.51438  0.10439  0.34814  Biso   1.000  C
  C352     1.0000 0.85679  0.47925  0.38697  Biso   1.000  C
  C353     1.0000 0.65978  0.33187  0.00595  Biso   1.000  C
  C354     1.0000 0.01403  0.11151  0.17000  Biso   1.000  C
  C355     1.0000 0.16952  0.98285  0.13873  Biso   1.000  C
  C356     1.0000 0.39995  0.82220  0.51323  Biso   1.000  C
  C357     1.0000 0.02152  0.61420  0.34760  Biso   1.000  C
  C358     1.0000 0.67287  0.97909  0.38632  Biso   1.000  C
  C359     1.0000 0.88447  0.82984  0.99076  Biso   1.000  C
  C360     1.0000 0.50363  0.60413  0.17115  Biso   1.000  C
  C361     1.0000 0.02450  0.14605  0.88675  Biso   1.000  C
  C362     1.0000 0.88159  0.97231  0.16651  Biso   1.000  C
  C363     1.0000 0.17195  0.84600  0.99984  Biso   1.000  C
  C364     1.0000 0.51868  0.14346  0.63241  Biso   1.000  C
  C365     1.0000 0.38329  0.96245  0.35086  Biso   1.000  C
  C366     1.0000 0.68441  0.85343  0.49866  Biso   1.000  C
  C367     1.0000 0.52321  0.64579  0.88543  Biso   1.000  C
  C368     1.0000 0.64719  0.47422  0.16957  Biso   1.000  C
  C369     1.0000 0.37000  0.34436  0.00150  Biso   1.000  C
  C370     1.0000 0.02516  0.64777  0.63199  Biso   1.000  C
  C371     1.0000 0.14340  0.47604  0.35143  Biso   1.000  C
  C372     1.0000 0.85373  0.35674  0.51857  Biso   1.000  C
  C373     1.0000 0.02058  0.82338  0.13269  Biso   1.000  C
  C374     1.0000 0.15134  0.99156  0.85335  Biso   1.000  C
  C375     1.0000 0.86381  0.11687  0.01769  Biso   1.000  C
  C376     1.0000 0.51755  0.81783  0.38618  Biso   1.000  C
  C377     1.0000 0.65062  0.97553  0.66702  Biso   1.000  C
  C378     1.0000 0.35296  0.10641  0.49859  Biso   1.000  C
  C379     1.0000 0.51957  0.31814  0.13277  Biso   1.000  C
  C380     1.0000 0.40314  0.47230  0.85069  Biso   1.000  C
  C381     1.0000 0.67603  0.61917  0.02877  Biso   1.000  C
  C382     1.0000 0.00647  0.32179  0.38682  Biso   1.000  C
  C383     1.0000 0.89763  0.49907  0.66947  Biso   1.000  C
  C384     1.0000 0.18178  0.61244  0.50919  Biso   1.000  C
  C385     1.0000 0.20057  0.13041  0.99177  Biso   1.000  C
  C386     1.0000 0.02202  0.15980  0.17138  Biso   1.000  C
  C387     1.0000 0.16440  0.97666  0.18689  Biso   1.000  C
  C388     1.0000 0.69030  0.13796  0.53027  Biso   1.000  C
  C389     1.0000 0.51777  0.15199  0.35044  Biso   1.000  C
  C390     1.0000 0.66754  0.97178  0.33800  Biso   1.000  C
  C391     1.0000 0.34099  0.63135  0.98894  Biso   1.000  C
  C392     1.0000 0.50382  0.65402  0.16856  Biso   1.000  C
  C393     1.0000 0.35935  0.47263  0.18664  Biso   1.000  C
  C394     1.0000 0.84812  0.64091  0.48569  Biso   1.000  C
  C395     1.0000 0.03202  0.66333  0.35005  Biso   1.000  C
  C396     1.0000 0.86028  0.47990  0.33809  Biso   1.000  C
  C397     1.0000 0.83699  0.83593  0.99925  Biso   1.000  C
  C398     1.0000 0.03019  0.80776  0.84759  Biso   1.000  C
  C399     1.0000 0.86558  0.98589  0.83370  Biso   1.000  C
  C400     1.0000 0.35222  0.82332  0.50689  Biso   1.000  C
  C401     1.0000 0.52008  0.80680  0.66970  Biso   1.000  C
  C402     1.0000 0.36600  0.99911  0.68690  Biso   1.000  C
  C403     1.0000 0.70689  0.33939  0.01006  Biso   1.000  C
  C404     1.0000 0.52038  0.31247  0.84989  Biso   1.000  C
  C405     1.0000 0.68413  0.50789  0.83693  Biso   1.000  C
  C406     1.0000 0.19161  0.32438  0.50444  Biso   1.000  C
  C407     1.0000 0.03090  0.31206  0.66944  Biso   1.000  C
  C408     1.0000 0.18370  0.48842  0.68563  Biso   1.000  C
  C409     1.0000 0.16593  0.99908  0.82733  Biso   1.000  C
  C410     1.0000 0.83698  0.13209  0.01776  Biso   1.000  C
  C411     1.0000 0.02669  0.79465  0.14565  Biso   1.000  C
  C412     1.0000 0.66443  0.97108  0.69339  Biso   1.000  C
  C413     1.0000 0.32526  0.12012  0.49849  Biso   1.000  C
  C414     1.0000 0.51368  0.79041  0.37312  Biso   1.000  C
  C415     1.0000 0.38993  0.47485  0.82278  Biso   1.000  C
  C416     1.0000 0.70315  0.63502  0.02731  Biso   1.000  C
  C417     1.0000 0.52051  0.28910  0.14665  Biso   1.000  C
  C418     1.0000 0.88413  0.49954  0.69791  Biso   1.000  C
  C419     1.0000 0.20927  0.62659  0.50864  Biso   1.000  C
  C420     1.0000 0.00913  0.29505  0.37205  Biso   1.000  C
  C421     1.0000 0.86607  0.96512  0.19241  Biso   1.000  C
  C422     1.0000 0.19810  0.82998  0.99330  Biso   1.000  C
  C423     1.0000 0.02726  0.17473  0.87292  Biso   1.000  C
  C424     1.0000 0.36780  0.96349  0.32370  Biso   1.000  C
  C425     1.0000 0.71189  0.83895  0.49395  Biso   1.000  C
  C426     1.0000 0.51544  0.17110  0.64851  Biso   1.000  C
  C427     1.0000 0.66050  0.47267  0.19669  Biso   1.000  C
  C428     1.0000 0.34362  0.32963  0.99874  Biso   1.000  C
  C429     1.0000 0.52168  0.67424  0.87169  Biso   1.000  C
  C430     1.0000 0.15573  0.47041  0.32321  Biso   1.000  C
  C431     1.0000 0.82725  0.34117  0.51323  Biso   1.000  C
  C432     1.0000 0.02367  0.67653  0.64604  Biso   1.000  C
  C433     1.0000 0.03107  0.14446  0.83818  Biso   1.000  C
  C434     1.0000 0.83277  0.97093  0.16104  Biso   1.000  C
  C435     1.0000 0.16441  0.79793  0.99562  Biso   1.000  C
  C436     1.0000 0.52192  0.13928  0.68164  Biso   1.000  C
  C437     1.0000 0.33587  0.96845  0.35672  Biso   1.000  C
  C438     1.0000 0.68021  0.80492  0.49186  Biso   1.000  C
  C439     1.0000 0.52099  0.64134  0.83763  Biso   1.000  C
  C440     1.0000 0.69698  0.47939  0.16775  Biso   1.000  C
  C441     1.0000 0.37682  0.29595  0.00004  Biso   1.000  C
  C442     1.0000 0.02567  0.64584  0.68132  Biso   1.000  C
  C443     1.0000 0.19129  0.47334  0.35187  Biso   1.000  C
  C444     1.0000 0.85740  0.30678  0.51228  Biso   1.000  C
  C445     1.0000 0.02521  0.82480  0.18159  Biso   1.000  C
  C446     1.0000 0.19994  0.99502  0.85804  Biso   1.000  C
  C447     1.0000 0.86951  0.16430  0.02301  Biso   1.000  C
  C448     1.0000 0.50723  0.82160  0.33874  Biso   1.000  C
  C449     1.0000 0.69948  0.96742  0.66337  Biso   1.000  C
  C450     1.0000 0.35716  0.15536  0.49937  Biso   1.000  C
  C451     1.0000 0.52167  0.32178  0.18175  Biso   1.000  C
  C452     1.0000 0.35379  0.47165  0.85147  Biso   1.000  C
  C453     1.0000 0.66834  0.66605  0.02161  Biso   1.000  C
  C454     1.0000 0.00776  0.32650  0.33764  Biso   1.000  C
  C455     1.0000 0.84951  0.50709  0.66814  Biso   1.000  C
  C456     1.0000 0.17713  0.66038  0.50410  Biso   1.000  C
  C457     1.0000 0.02182  0.62916  0.31977  Biso   1.000  C
  C458     1.0000 0.33364  0.99414  0.65362  Biso   1.000  C
  C459     1.0000 0.67610  0.30547  0.00747  Biso   1.000  C
  C460     1.0000 0.50552  0.61956  0.19871  Biso   1.000  C
  C461     1.0000 0.83557  0.97470  0.86651  Biso   1.000  C
  C462     1.0000 0.15519  0.29656  0.50534  Biso   1.000  C
  C463     1.0000 0.51510  0.11854  0.32052  Biso   1.000  C
  C464     1.0000 0.21351  0.48145  0.65108  Biso   1.000  C
  C465     1.0000 0.86876  0.80354  0.98861  Biso   1.000  C
  C466     1.0000 0.01673  0.12325  0.19941  Biso   1.000  C
  C467     1.0000 0.71641  0.50583  0.87012  Biso   1.000  C
  C468     1.0000 0.38599  0.79313  0.51213  Biso   1.000  C
  C469     1.0000 0.03988  0.34557  0.69990  Biso   1.000  C
  C470     1.0000 0.70119  0.97789  0.37029  Biso   1.000  C
  C471     1.0000 0.37325  0.66336  0.99766  Biso   1.000  C
  C472     1.0000 0.52824  0.34665  0.81897  Biso   1.000  C
  C473     1.0000 0.19589  0.98437  0.15487  Biso   1.000  C
  C474     1.0000 0.88131  0.67394  0.48832  Biso   1.000  C
  C475     1.0000 0.51094  0.84212  0.69921  Biso   1.000  C
  C476     1.0000 0.82975  0.47658  0.37204  Biso   1.000  C
  C477     1.0000 0.16672  0.16304  0.99761  Biso   1.000  C
  C478     1.0000 0.03028  0.84275  0.81677  Biso   1.000  C
  C479     1.0000 0.32852  0.47963  0.15188  Biso   1.000  C
  C480     1.0000 0.65875  0.16770  0.51285  Biso   1.000  C
  C481     1.0000 0.40422  0.76830  0.51580  Biso   1.000  C
  C482     1.0000 0.53197  0.36425  0.79354  Biso   1.000  C
  C483     1.0000 0.80178  0.47521  0.38938  Biso   1.000  C
  C484     1.0000 0.88418  0.77534  0.98298  Biso   1.000  C
  C485     1.0000 0.04615  0.36410  0.72538  Biso   1.000  C
  C486     1.0000 0.30400  0.48745  0.13559  Biso   1.000  C
  C487     1.0000 0.13738  0.27044  0.50870  Biso   1.000  C
  C488     1.0000 0.02810  0.86092  0.79112  Biso   1.000  C
  C489     1.0000 0.72760  0.98260  0.38581  Biso   1.000  C
  C490     1.0000 0.66105  0.27795  0.00218  Biso   1.000  C
  C491     1.0000 0.50327  0.85989  0.72362  Biso   1.000  C
  C492     1.0000 0.22338  0.98819  0.13855  Biso   1.000  C
  C493     1.0000 0.64341  0.19334  0.50456  Biso   1.000  C
  C494     1.0000 0.50794  0.60222  0.22491  Biso   1.000  C
  C495     1.0000 0.24112  0.48097  0.63452  Biso   1.000  C
  C496     1.0000 0.15346  0.19086  0.00582  Biso   1.000  C
  C497     1.0000 0.01737  0.61081  0.29469  Biso   1.000  C
  C498     1.0000 0.74342  0.50166  0.88764  Biso   1.000  C
  C499     1.0000 0.89764  0.70104  0.49121  Biso   1.000  C
  C500     1.0000 0.01223  0.10500  0.22468  Biso   1.000  C
  C501     1.0000 0.30706  0.99087  0.63754  Biso   1.000  C
  C502     1.0000 0.38719  0.69080  0.00629  Biso   1.000  C
  C503     1.0000 0.51438  0.10145  0.29278  Biso   1.000  C
  C504     1.0000 0.80966  0.96588  0.88131  Biso   1.000  C
  C505     1.0000 0.66882  0.51167  0.80990  Biso   1.000  C
  C506     1.0000 0.82063  0.62613  0.48056  Biso   1.000  C
  C507     1.0000 0.52285  0.77838  0.65396  Biso   1.000  C
  C508     1.0000 0.16895  0.49118  0.71397  Biso   1.000  C
  C509     1.0000 0.31460  0.61430  0.98098  Biso   1.000  C
  C510     1.0000 0.02809  0.78030  0.86088  Biso   1.000  C
  C511     1.0000 0.88010  0.99563  0.80741  Biso   1.000  C
  C512     1.0000 0.71677  0.12261  0.54044  Biso   1.000  C
  C513     1.0000 0.02708  0.28279  0.65681  Biso   1.000  C
  C514     1.0000 0.38146  0.00272  0.71351  Biso   1.000  C
  C515     1.0000 0.22596  0.11456  0.98285  Biso   1.000  C
  C516     1.0000 0.51416  0.28430  0.86506  Biso   1.000  C
  C517     1.0000 0.37269  0.46357  0.21320  Biso   1.000  C
  C518     1.0000 0.21962  0.33793  0.50196  Biso   1.000  C
  C519     1.0000 0.52250  0.17998  0.36371  Biso   1.000  C
  C520     1.0000 0.87389  0.48018  0.31031  Biso   1.000  C
  C521     1.0000 0.73387  0.35573  0.01241  Biso   1.000  C
  C522     1.0000 0.02634  0.18828  0.15849  Biso   1.000  C
  C523     1.0000 0.15046  0.97551  0.21403  Biso   1.000  C
  C524     1.0000 0.32378  0.83643  0.50145  Biso   1.000  C
  C525     1.0000 0.04138  0.69099  0.36289  Biso   1.000  C
  C526     1.0000 0.65139  0.96247  0.31168  Biso   1.000  C
  C527     1.0000 0.80998  0.85199  0.00791  Biso   1.000  C
  C528     1.0000 0.50217  0.68140  0.15354  Biso   1.000  C
  C529     1.0000 0.80993  0.11517  0.01248  Biso   1.000  C
  C530     1.0000 0.03065  0.77009  0.12749  Biso   1.000  C
  C531     1.0000 0.14971  0.00427  0.80089  Biso   1.000  C
  C532     1.0000 0.29985  0.10316  0.49742  Biso   1.000  C
  C533     1.0000 0.51758  0.76493  0.39076  Biso   1.000  C
  C534     1.0000 0.64583  0.97101  0.71920  Biso   1.000  C
  C535     1.0000 0.73060  0.61992  0.02971  Biso   1.000  C
  C536     1.0000 0.52183  0.26313  0.12820  Biso   1.000  C
  C537     1.0000 0.40698  0.48239  0.79741  Biso   1.000  C
  C538     1.0000 0.23392  0.60850  0.50463  Biso   1.000  C
  C539     1.0000 0.01265  0.26721  0.38999  Biso   1.000  C
  C540     1.0000 0.90147  0.49815  0.72403  Biso   1.000  C
  C541     1.0000 0.22491  0.84731  0.99074  Biso   1.000  C
  C542     1.0000 0.02657  0.20033  0.89072  Biso   1.000  C
  C543     1.0000 0.88287  0.95691  0.21885  Biso   1.000  C
  C544     1.0000 0.73730  0.85870  0.48909  Biso   1.000  C
  C545     1.0000 0.50879  0.19802  0.63170  Biso   1.000  C
  C546     1.0000 0.38553  0.96194  0.29675  Biso   1.000  C
  C547     1.0000 0.31755  0.34709  0.99836  Biso   1.000  C
  C548     1.0000 0.52313  0.70064  0.88941  Biso   1.000  C
  C549     1.0000 0.64247  0.47043  0.22256  Biso   1.000  C
  C550     1.0000 0.80150  0.35918  0.51001  Biso   1.000  C
  C551     1.0000 0.02234  0.70320  0.63043  Biso   1.000  C
  C552     1.0000 0.13706  0.46761  0.29606  Biso   1.000  C
  C553     1.0000 0.03060  0.13163  0.80952  Biso   1.000  C
  C554     1.0000 0.80558  0.97266  0.14382  Biso   1.000  C
  C555     1.0000 0.14862  0.76952  0.99438  Biso   1.000  C
  C556     1.0000 0.52734  0.12509  0.70961  Biso   1.000  C
  C557     1.0000 0.30976  0.97585  0.37470  Biso   1.000  C
  C558     1.0000 0.66437  0.77683  0.49012  Biso   1.000  C
  C559     1.0000 0.52124  0.62506  0.81038  Biso   1.000  C
  C560     1.0000 0.72510  0.48542  0.15552  Biso   1.000  C
  C561     1.0000 0.39387  0.26854  0.99965  Biso   1.000  C
  C562     1.0000 0.02564  0.63160  0.71168  Biso   1.000  C
  C563     1.0000 0.22077  0.47615  0.36421  Biso   1.000  C
  C564     1.0000 0.87268  0.27923  0.51114  Biso   1.000  C
  C565     1.0000 0.02399  0.83959  0.21065  Biso   1.000  C
  C566     1.0000 0.22789  0.99489  0.87342  Biso   1.000  C
  C567     1.0000 0.88499  0.19268  0.02292  Biso   1.000  C
  C568     1.0000 0.50139  0.83569  0.31081  Biso   1.000  C
  C569     1.0000 0.72671  0.96304  0.64751  Biso   1.000  C
  C570     1.0000 0.37027  0.18421  0.49477  Biso   1.000  C
  C571     1.0000 0.52618  0.33690  0.20939  Biso   1.000  C
  C572     1.0000 0.32492  0.46929  0.86460  Biso   1.000  C
  C573     1.0000 0.65132  0.69179  0.01788  Biso   1.000  C
  C574     1.0000 0.00211  0.34182  0.31024  Biso   1.000  C
  C575     1.0000 0.82158  0.51212  0.65421  Biso   1.000  C
  C576     1.0000 0.16252  0.68865  0.50302  Biso   1.000  C
  C577     1.0000 0.30485  0.48844  0.10269  Biso   1.000  C
  C578     1.0000 0.10628  0.27422  0.51152  Biso   1.000  C
  C579     1.0000 0.51519  0.06979  0.29556  Biso   1.000  C
  C580     1.0000 0.80251  0.48012  0.42085  Biso   1.000  C
  C581     1.0000 0.62871  0.27753  0.99995  Biso   1.000  C
  C582     1.0000 0.00818  0.07401  0.22124  Biso   1.000  C
  C583     1.0000 0.22518  0.98866  0.10752  Biso   1.000  C
  C584     1.0000 0.43522  0.77100  0.51953  Biso   1.000  C
  C585     1.0000 0.01466  0.57854  0.29969  Biso   1.000  C
  C586     1.0000 0.72685  0.98496  0.41693  Biso   1.000  C
  C587     1.0000 0.91491  0.77535  0.97924  Biso   1.000  C
  C588     1.0000 0.50479  0.57116  0.22387  Biso   1.000  C
  C589     1.0000 0.74022  0.49662  0.91890  Biso   1.000  C
  C590     1.0000 0.92906  0.70047  0.49630  Biso   1.000  C
  C591     1.0000 0.50560  0.89129  0.72020  Biso   1.000  C
  C592     1.0000 0.23687  0.47945  0.60313  Biso   1.000  C
  C593     1.0000 0.41829  0.69192  0.01344  Biso   1.000  C
  C594     1.0000 0.01978  0.89200  0.79338  Biso   1.000  C
  C595     1.0000 0.81012  0.96394  0.91268  Biso   1.000  C
  C596     1.0000 0.61091  0.18930  0.49822  Biso   1.000  C
  C597     1.0000 0.04422  0.39564  0.72235  Biso   1.000  C
  C598     1.0000 0.30759  0.98630  0.60616  Biso   1.000  C
  C599     1.0000 0.12373  0.19017  0.01446  Biso   1.000  C
  C600     1.0000 0.53972  0.39454  0.79807  Biso   1.000  C
  C601     1.0000 0.22642  0.98856  0.90426  Biso   1.000  C
  C602     1.0000 0.91610  0.19278  0.02437  Biso   1.000  C
  C603     1.0000 0.02244  0.87144  0.21126  Biso   1.000  C
  C604     1.0000 0.72680  0.96197  0.61692  Biso   1.000  C
  C605     1.0000 0.40178  0.18444  0.49395  Biso   1.000  C
  C606     1.0000 0.50815  0.86693  0.30962  Biso   1.000  C
  C607     1.0000 0.32060  0.46938  0.89617  Biso   1.000  C
  C608     1.0000 0.61904  0.69032  0.02058  Biso   1.000  C
  C609     1.0000 0.52230  0.36801  0.20879  Biso   1.000  C
  C610     1.0000 0.81814  0.51022  0.62258  Biso   1.000  C
  C611     1.0000 0.13142  0.68816  0.50327  Biso   1.000  C
  C612     1.0000 0.00113  0.37386  0.31097  Biso   1.000  C
  C613     1.0000 0.80696  0.98457  0.11503  Biso   1.000  C
  C614     1.0000 0.11756  0.76974  0.99569  Biso   1.000  C
  C615     1.0000 0.02796  0.09878  0.80752  Biso   1.000  C
  C616     1.0000 0.31051  0.97604  0.40699  Biso   1.000  C
  C617     1.0000 0.63395  0.77525  0.49358  Biso   1.000  C
  C618     1.0000 0.52728  0.09262  0.71117  Biso   1.000  C
  C619     1.0000 0.72700  0.48703  0.12474  Biso   1.000  C
  C620     1.0000 0.42552  0.27184  0.00108  Biso   1.000  C
  C621     1.0000 0.52196  0.59390  0.81037  Biso   1.000  C
  C622     1.0000 0.22381  0.47907  0.39586  Biso   1.000  C
  C623     1.0000 0.90376  0.27890  0.51717  Biso   1.000  C
  C624     1.0000 0.02404  0.59940  0.71168  Biso   1.000  C
  C625     1.0000 0.02480  0.19881  0.92075  Biso   1.000  C
  C626     1.0000 0.91485  0.95864  0.21900  Biso   1.000  C
  C627     1.0000 0.22332  0.87902  0.99527  Biso   1.000  C
  C628     1.0000 0.50383  0.19513  0.60170  Biso   1.000  C
  C629     1.0000 0.41758  0.96047  0.29901  Biso   1.000  C
  C630     1.0000 0.73530  0.89021  0.49395  Biso   1.000  C
  C631     1.0000 0.52311  0.69965  0.92087  Biso   1.000  C
  C632     1.0000 0.60989  0.46867  0.21951  Biso   1.000  C
  C633     1.0000 0.31917  0.37872  0.00054  Biso   1.000  C
  C634     1.0000 0.02449  0.70143  0.59766  Biso   1.000  C
  C635     1.0000 0.10693  0.46945  0.29987  Biso   1.000  C
  C636     1.0000 0.80316  0.39072  0.51553  Biso   1.000  C
  C637     1.0000 0.02436  0.77099  0.09673  Biso   1.000  C
  C638     1.0000 0.11731  0.00296  0.80095  Biso   1.000  C
  C639     1.0000 0.81037  0.08342  0.00824  Biso   1.000  C
  C640     1.0000 0.52377  0.76782  0.42066  Biso   1.000  C
  C641     1.0000 0.61593  0.97759  0.71728  Biso   1.000  C
  C642     1.0000 0.30187  0.07180  0.49547  Biso   1.000  C
  C643     1.0000 0.52156  0.26730  0.09696  Biso   1.000  C
  C644     1.0000 0.43752  0.48598  0.80066  Biso   1.000  C
  C645     1.0000 0.73015  0.58846  0.02954  Biso   1.000  C
  C646     1.0000 0.01208  0.26982  0.42166  Biso   1.000  C
  C647     1.0000 0.93217  0.49654  0.72180  Biso   1.000  C
  C648     1.0000 0.23174  0.57756  0.50729  Biso   1.000  C
  C649     1.0000 0.04556  0.69201  0.39477  Biso   1.000  C
  C650     1.0000 0.41325  0.00439  0.71283  Biso   1.000  C
  C651     1.0000 0.73170  0.38764  0.01106  Biso   1.000  C
  C652     1.0000 0.49870  0.68135  0.12238  Biso   1.000  C
  C653     1.0000 0.91269  0.99564  0.80545  Biso   1.000  C
  C654     1.0000 0.22308  0.36983  0.50100  Biso   1.000  C
  C655     1.0000 0.51970  0.18318  0.39541  Biso   1.000  C
  C656     1.0000 0.13824  0.49447  0.71439  Biso   1.000  C
  C657     1.0000 0.81070  0.88348  0.01316  Biso   1.000  C
  C658     1.0000 0.03079  0.19154  0.12640  Biso   1.000  C
  C659     1.0000 0.63854  0.51070  0.80925  Biso   1.000  C
  C660     1.0000 0.32218  0.86685  0.50091  Biso   1.000  C
  C661     1.0000 0.01870  0.28123  0.62599  Biso   1.000  C
  C662     1.0000 0.62068  0.95945  0.31149  Biso   1.000  C
  C663     1.0000 0.31588  0.58195  0.98218  Biso   1.000  C
  C664     1.0000 0.51378  0.28224  0.89594  Biso   1.000  C
  C665     1.0000 0.11926  0.97588  0.21502  Biso   1.000  C
  C666     1.0000 0.81868  0.59462  0.48573  Biso   1.000  C
  C667     1.0000 0.52916  0.77809  0.62271  Biso   1.000  C
  C668     1.0000 0.90621  0.47928  0.30906  Biso   1.000  C
  C669     1.0000 0.22589  0.08368  0.98657  Biso   1.000  C
  C670     1.0000 0.02510  0.77876  0.89300  Biso   1.000  C
  C671     1.0000 0.40536  0.46078  0.21451  Biso   1.000  C
  C672     1.0000 0.71552  0.09084  0.54768  Biso   1.000  C
  C673     1.0000 0.21185  0.00451  0.81161  Biso   1.000  C
  C674     1.0000 0.82292  0.17904  0.02231  Biso   1.000  C
  C675     1.0000 0.02917  0.77745  0.19104  Biso   1.000  C
  C676     1.0000 0.70943  0.96671  0.71156  Biso   1.000  C
  C677     1.0000 0.30967  0.16645  0.49904  Biso   1.000  C
  C678     1.0000 0.50642  0.77477  0.32740  Biso   1.000  C
  C679     1.0000 0.34390  0.47649  0.80441  Biso   1.000  C
  C680     1.0000 0.71491  0.67992  0.01622  Biso   1.000  C
  C681     1.0000 0.52296  0.27449  0.19390  Biso   1.000  C
  C682     1.0000 0.83783  0.50454  0.71398  Biso   1.000  C
  C683     1.0000 0.22523  0.67262  0.50783  Biso   1.000  C
  C684     1.0000 0.01178  0.27915  0.32527  Biso   1.000  C
  C685     1.0000 0.81777  0.96510  0.20686  Biso   1.000  C
  C686     1.0000 0.21191  0.78306  0.98995  Biso   1.000  C
  C687     1.0000 0.03837  0.19115  0.82779  Biso   1.000  C
  C688     1.0000 0.31979  0.96395  0.31116  Biso   1.000  C
  C689     1.0000 0.72826  0.79438  0.48320  Biso   1.000  C
  C690     1.0000 0.51821  0.18657  0.69398  Biso   1.000  C
  C691     1.0000 0.70668  0.47844  0.21380  Biso   1.000  C
  C692     1.0000 0.32921  0.28272  0.99636  Biso   1.000  C
  C693     1.0000 0.51919  0.68914  0.82585  Biso   1.000  C
  C694     1.0000 0.20179  0.47089  0.30528  Biso   1.000  C
  C695     1.0000 0.81004  0.29475  0.50968  Biso   1.000  C
  C696     1.0000 0.02612  0.69373  0.69125  Biso   1.000  C
  C697     1.0000 0.71439  0.97147  0.32342  Biso   1.000  C
  C698     1.0000 0.32512  0.67676  0.99047  Biso   1.000  C
  C699     1.0000 0.03972  0.29868  0.71631  Biso   1.000  C
  C700     1.0000 0.21043  0.97820  0.20160  Biso   1.000  C
  C701     1.0000 0.83581  0.68797  0.47925  Biso   1.000  C
  C702     1.0000 0.52305  0.30062  0.80108  Biso   1.000  C
  C703     1.0000 0.81284  0.47682  0.32556  Biso   1.000  C
  C704     1.0000 0.21350  0.17700  0.98992  Biso   1.000  C
  C705     1.0000 0.51545  0.79537  0.71493  Biso   1.000  C
  C706     1.0000 0.31038  0.47328  0.19641  Biso   1.000  C
  C707     1.0000 0.70522  0.18310  0.51910  Biso   1.000  C
  C708     1.0000 0.03555  0.79705  0.79992  Biso   1.000  C
  C709     1.0000 0.31699  0.00167  0.69978  Biso   1.000  C
  C710     1.0000 0.72164  0.29317  0.01469  Biso   1.000  C
  C711     1.0000 0.02819  0.67389  0.30239  Biso   1.000  C
  C712     1.0000 0.81812  0.98073  0.82188  Biso   1.000  C
  C713     1.0000 0.20200  0.27693  0.50519  Biso   1.000  C
  C714     1.0000 0.50569  0.66598  0.21580  Biso   1.000  C
  C715     1.0000 0.23080  0.48445  0.69745  Biso   1.000  C
  C716     1.0000 0.82309  0.78884  0.99848  Biso   1.000  C
  C717     1.0000 0.51961  0.16469  0.30315  Biso   1.000  C
  C718     1.0000 0.73062  0.50840  0.82327  Biso   1.000  C
  C719     1.0000 0.34013  0.77602  0.50671  Biso   1.000  C
  C720     1.0000 0.01903  0.16925  0.21972  Biso   1.000  C
  C721     1.0000 0.52021  0.77905  0.29964  Biso   1.000  C
  C722     1.0000 0.31745  0.49468  0.80631  Biso   1.000  C
  C723     1.0000 0.78658  0.29588  0.52904  Biso   1.000  C
  C724     1.0000 0.01747  0.74912  0.18429  Biso   1.000  C
  C725     1.0000 0.81527  0.52601  0.71354  Biso   1.000  C
  C726     1.0000 0.30584  0.28611  0.97676  Biso   1.000  C
  C727     1.0000 0.00155  0.24891  0.33131  Biso   1.000  C
  C728     1.0000 0.23737  0.02393  0.81659  Biso   1.000  C
  C729     1.0000 0.75686  0.79850  0.49663  Biso   1.000  C
  C730     1.0000 0.50774  0.27898  0.22172  Biso   1.000  C
  C731     1.0000 0.73549  0.94664  0.71067  Biso   1.000  C
  C732     1.0000 0.24034  0.78778  0.97401  Biso   1.000  C
  C733     1.0000 0.50547  0.18401  0.72257  Biso   1.000  C
  C734     1.0000 0.70344  0.45912  0.23968  Biso   1.000  C
  C735     1.0000 0.22662  0.69872  0.48866  Biso   1.000  C
  C736     1.0000 0.02213  0.21784  0.82873  Biso   1.000  C
  C737     1.0000 0.23008  0.45507  0.30919  Biso   1.000  C
  C738     1.0000 0.73912  0.68298  0.03646  Biso   1.000  C
  C739     1.0000 0.04835  0.71604  0.68692  Biso   1.000  C
  C740     1.0000 0.78922  0.95300  0.20248  Biso   1.000  C
  C741     1.0000 0.28303  0.16529  0.48352  Biso   1.000  C
  C742     1.0000 0.53515  0.68483  0.79806  Biso   1.000  C
  C743     1.0000 0.29201  0.95020  0.31716  Biso   1.000  C
  C744     1.0000 0.82505  0.20147  0.04443  Biso   1.000  C
  C745     1.0000 0.05253  0.69372  0.29910  Biso   1.000  C
  C746     1.0000 0.28780  0.01393  0.69429  Biso   1.000  C
  C747     1.0000 0.75070  0.29514  0.00296  Biso   1.000  C
  C748     1.0000 0.52242  0.69343  0.21261  Biso   1.000  C
  C749     1.0000 0.82512  0.97480  0.79124  Biso   1.000  C
  C750     1.0000 0.22780  0.27684  0.52601  Biso   1.000  C
  C751     1.0000 0.53593  0.16113  0.27677  Biso   1.000  C
  C752     1.0000 0.25382  0.46307  0.69542  Biso   1.000  C
  C753     1.0000 0.79354  0.79294  0.98786  Biso   1.000  C
  C754     1.0000 0.03085  0.16210  0.24708  Biso   1.000  C
  C755     1.0000 0.72655  0.48960  0.79684  Biso   1.000  C
  C756     1.0000 0.31380  0.77991  0.52353  Biso   1.000  C
  C757     1.0000 0.01910  0.27535  0.71814  Biso   1.000  C
  C758     1.0000 0.70874  0.98196  0.29425  Biso   1.000  C
  C759     1.0000 0.29652  0.67085  0.00133  Biso   1.000  C
  C760     1.0000 0.54624  0.30049  0.77854  Biso   1.000  C
  C761     1.0000 0.23592  0.99644  0.20560  Biso   1.000  C
  C762     1.0000 0.84114  0.71506  0.46282  Biso   1.000  C
  C763     1.0000 0.49326  0.79629  0.73797  Biso   1.000  C
  C764     1.0000 0.78789  0.49690  0.32934  Biso   1.000  C
  C765     1.0000 0.24304  0.17116  0.99941  Biso   1.000  C
  C766     1.0000 0.01602  0.80146  0.77470  Biso   1.000  C
  C767     1.0000 0.31539  0.48323  0.22675  Biso   1.000  C
  C768     1.0000 0.70851  0.20077  0.49351  Biso   1.000  C
  C769     1.0000 0.50448  0.71694  0.82957  Biso   1.000  C
  C770     1.0000 0.83947  0.48204  0.73599  Biso   1.000  C
  C771     1.0000 0.72487  0.76967  0.46264  Biso   1.000  C
  C772     1.0000 0.00859  0.69212  0.71772  Biso   1.000  C
  C773     1.0000 0.34845  0.46441  0.77546  Biso   1.000  C
  C774     1.0000 0.20848  0.75506  0.00386  Biso   1.000  C
  C775     1.0000 0.05942  0.18866  0.80316  Biso   1.000  C
  C776     1.0000 0.70435  0.98351  0.73797  Biso   1.000  C
  C777     1.0000 0.81220  0.26882  0.49056  Biso   1.000  C
  C778     1.0000 0.53484  0.21294  0.68825  Biso   1.000  C
  C779     1.0000 0.20753  0.99210  0.78255  Biso   1.000  C
  C780     1.0000 0.32883  0.25537  0.01265  Biso   1.000  C
  C781     1.0000 0.53636  0.24661  0.18955  Biso   1.000  C
  C782     1.0000 0.19651  0.48357  0.27612  Biso   1.000  C
  C783     1.0000 0.31430  0.19152  0.51783  Biso   1.000  C
  C784     1.0000 0.02606  0.28365  0.29863  Biso   1.000  C
  C785     1.0000 0.73275  0.49792  0.21298  Biso   1.000  C
  C786     1.0000 0.79917  0.18135  0.00201  Biso   1.000  C
  C787     1.0000 0.04795  0.78068  0.21731  Biso   1.000  C
  C788     1.0000 0.32513  0.97685  0.28253  Biso   1.000  C
  C789     1.0000 0.25004  0.66968  0.52761  Biso   1.000  C
  C790     1.0000 0.49105  0.74770  0.33186  Biso   1.000  C
  C791     1.0000 0.82278  0.97752  0.23575  Biso   1.000  C
  C792     1.0000 0.71301  0.69873  0.99088  Biso   1.000  C
  C793     1.0000 0.50409  0.19230  0.30766  Biso   1.000  C
  C794     1.0000 0.28203  0.45954  0.18998  Biso   1.000  C
  C795     1.0000 0.19817  0.25093  0.48760  Biso   1.000  C
  C796     1.0000 0.00562  0.19758  0.21481  Biso   1.000  C
  C797     1.0000 0.81220  0.45907  0.29878  Biso   1.000  C
  C798     1.0000 0.71590  0.26593  0.02976  Biso   1.000  C
  C799     1.0000 0.00802  0.67227  0.27798  Biso   1.000  C
  C800     1.0000 0.20868  0.95381  0.22001  Biso   1.000  C
  C801     1.0000 0.34285  0.74909  0.49122  Biso   1.000  C
  C802     1.0000 0.48973  0.66114  0.24328  Biso   1.000  C
  C803     1.0000 0.74376  0.95886  0.32595  Biso   1.000  C
  C804     1.0000 0.83009  0.76123  0.01250  Biso   1.000  C
  C805     1.0000 0.53828  0.77477  0.71609  Biso   1.000  C
  C806     1.0000 0.75653  0.52493  0.82646  Biso   1.000  C
  C807     1.0000 0.80792  0.68468  0.49223  Biso   1.000  C
  C808     1.0000 0.05526  0.77134  0.80047  Biso   1.000  C
  C809     1.0000 0.23194  0.50554  0.72055  Biso   1.000  C
  C810     1.0000 0.33089  0.70612  0.97980  Biso   1.000  C
  C811     1.0000 0.06150  0.29835  0.73846  Biso   1.000  C
  C812     1.0000 0.78732  0.98648  0.82698  Biso   1.000  C
  C813     1.0000 0.72540  0.18806  0.54268  Biso   1.000  C
  C814     1.0000 0.50324  0.27640  0.79931  Biso   1.000  C
  C815     1.0000 0.32232  0.99251  0.72972  Biso   1.000  C
  C816     1.0000 0.20918  0.20575  0.97744  Biso   1.000  C
  C817     1.0000 0.02286  0.23817  0.80551  Biso   1.000  C
  C818     1.0000 0.76696  0.95445  0.22536  Biso   1.000  C
  C819     1.0000 0.26281  0.76784  0.97576  Biso   1.000  C
  C820     1.0000 0.51187  0.20514  0.74344  Biso   1.000  C
  C821     1.0000 0.26990  0.95302  0.29566  Biso   1.000  C
  C822     1.0000 0.77777  0.77722  0.49143  Biso   1.000  C
  C823     1.0000 0.53219  0.70606  0.77644  Biso   1.000  C
  C824     1.0000 0.72222  0.46123  0.26242  Biso   1.000  C
  C825     1.0000 0.28369  0.26481  0.97425  Biso   1.000  C
  C826     1.0000 0.05178  0.73748  0.70776  Biso   1.000  C
  C827     1.0000 0.25100  0.45683  0.28807  Biso   1.000  C
  C828     1.0000 0.76619  0.27305  0.53093  Biso   1.000  C
  C829     1.0000 0.02104  0.72773  0.20389  Biso   1.000  C
  C830     1.0000 0.25724  0.02895  0.79322  Biso   1.000  C
  C831     1.0000 0.80778  0.22576  0.04312  Biso   1.000  C
  C832     1.0000 0.52086  0.75628  0.28040  Biso   1.000  C
  C833     1.0000 0.75730  0.95223  0.73268  Biso   1.000  C
  C834     1.0000 0.26402  0.18897  0.48292  Biso   1.000  C
  C835     1.0000 0.50862  0.25844  0.24270  Biso   1.000  C
  C836     1.0000 0.29847  0.49784  0.78283  Biso   1.000  C
  C837     1.0000 0.75801  0.70459  0.03238  Biso   1.000  C
  C838     1.0000 0.00748  0.22600  0.31282  Biso   1.000  C
  C839     1.0000 0.79459  0.52567  0.73615  Biso   1.000  C
  C840     1.0000 0.24944  0.71820  0.49050  Biso   1.000  C
  C841     1.0000 0.22923  0.99665  0.76113  Biso   1.000  C
  C842     1.0000 0.78116  0.20478  0.00189  Biso   1.000  C
  C843     1.0000 0.05134  0.75760  0.23516  Biso   1.000  C
  C844     1.0000 0.72684  0.98512  0.75796  Biso   1.000  C
  C845     1.0000 0.29447  0.21388  0.51784  Biso   1.000  C
  C846     1.0000 0.48961  0.72547  0.31196  Biso   1.000  C
  C847     1.0000 0.32763  0.46667  0.75341  Biso   1.000  C
  C848     1.0000 0.73446  0.72124  0.98775  Biso   1.000  C
  C849     1.0000 0.53697  0.22548  0.21111  Biso   1.000  C
  C850     1.0000 0.81913  0.48204  0.75811  Biso   1.000  C
  C851     1.0000 0.27254  0.69165  0.52866  Biso   1.000  C
  C852     1.0000 0.03008  0.26084  0.27881  Biso   1.000  C
  C853     1.0000 0.80232  0.97665  0.25796  Biso   1.000  C
  C854     1.0000 0.23072  0.73580  0.00306  Biso   1.000  C
  C855     1.0000 0.05983  0.20930  0.78114  Biso   1.000  C
  C856     1.0000 0.30250  0.97689  0.26258  Biso   1.000  C
  C857     1.0000 0.74784  0.74977  0.45757  Biso   1.000  C
  C858     1.0000 0.53897  0.23365  0.70949  Biso   1.000  C
  C859     1.0000 0.75337  0.49765  0.23540  Biso   1.000  C
  C860     1.0000 0.30565  0.23741  0.01321  Biso   1.000  C
  C861     1.0000 0.50525  0.73929  0.80923  Biso   1.000  C
  C862     1.0000 0.21879  0.48221  0.25489  Biso   1.000  C
  C863     1.0000 0.79171  0.24706  0.49163  Biso   1.000  C
  C864     1.0000 0.01334  0.71488  0.73607  Biso   1.000  C
  C865     1.0000 0.74902  0.48698  0.77650  Biso   1.000  C
  C866     1.0000 0.81947  0.73639  0.46168  Biso   1.000  C
  C867     1.0000 0.49425  0.77535  0.75857  Biso   1.000  C
  C868     1.0000 0.27860  0.46438  0.71455  Biso   1.000  C
  C869     1.0000 0.27536  0.69242  0.99848  Biso   1.000  C
  C870     1.0000 0.01614  0.78123  0.75091  Biso   1.000  C
  C871     1.0000 0.80395  0.97139  0.76956  Biso   1.000  C
  C872     1.0000 0.73077  0.22118  0.49122  Biso   1.000  C
  C873     1.0000 0.02059  0.25380  0.73833  Biso   1.000  C
  C874     1.0000 0.26760  0.01979  0.71656  Biso   1.000  C
  C875     1.0000 0.26467  0.19312  0.99936  Biso   1.000  C
  C876     1.0000 0.54649  0.28022  0.75733  Biso   1.000  C
  C877     1.0000 0.29397  0.48031  0.24806  Biso   1.000  C
  C878     1.0000 0.24859  0.25570  0.52335  Biso   1.000  C
  C879     1.0000 0.53572  0.18341  0.25701  Biso   1.000  C
  C880     1.0000 0.76604  0.49894  0.30952  Biso   1.000  C
  C881     1.0000 0.77226  0.27362  0.00637  Biso   1.000  C
  C882     1.0000 0.03122  0.18187  0.26979  Biso   1.000  C
  C883     1.0000 0.25614  0.99296  0.22683  Biso   1.000  C
  C884     1.0000 0.29268  0.75941  0.52486  Biso   1.000  C
  C885     1.0000 0.05588  0.71089  0.27439  Biso   1.000  C
  C886     1.0000 0.72777  0.97807  0.27032  Biso   1.000  C
  C887     1.0000 0.77253  0.77006  0.99182  Biso   1.000  C
  C888     1.0000 0.52227  0.71327  0.23517  Biso   1.000  C
  C889     1.0000 0.76276  0.95785  0.30227  Biso   1.000  C
  C890     1.0000 0.30830  0.72722  0.97844  Biso   1.000  C
  C891     1.0000 0.06212  0.27570  0.75906  Biso   1.000  C
  C892     1.0000 0.22969  0.95018  0.24233  Biso   1.000  C
  C893     1.0000 0.78635  0.70386  0.48874  Biso   1.000  C
  C894     1.0000 0.50617  0.25460  0.77934  Biso   1.000  C
  C895     1.0000 0.78924  0.46056  0.27976  Biso   1.000  C
  C896     1.0000 0.23005  0.22750  0.97998  Biso   1.000  C
  C897     1.0000 0.53857  0.75507  0.73830  Biso   1.000  C
  C898     1.0000 0.26020  0.46034  0.21105  Biso   1.000  C
  C899     1.0000 0.74666  0.20897  0.54139  Biso   1.000  C
  C900     1.0000 0.05500  0.75233  0.77733  Biso   1.000  C
  C901     1.0000 0.30127  0.99828  0.75102  Biso   1.000  C
  C902     1.0000 0.73655  0.24577  0.03310  Biso   1.000  C
  C903     1.0000 0.01050  0.69196  0.25478  Biso   1.000  C
  C904     1.0000 0.76662  0.98440  0.80515  Biso   1.000  C
  C905     1.0000 0.22029  0.23082  0.48596  Biso   1.000  C
  C906     1.0000 0.49137  0.68304  0.26515  Biso   1.000  C
  C907     1.0000 0.25553  0.50487  0.73859  Biso   1.000  C
  C908     1.0000 0.80740  0.74161  0.01788  Biso   1.000  C
  C909     1.0000 0.50335  0.21118  0.28365  Biso   1.000  C
  C910     1.0000 0.77666  0.52207  0.80502  Biso   1.000  C
  C911     1.0000 0.31946  0.72860  0.49097  Biso   1.000  C
  C912     1.0000 0.00557  0.21725  0.23776  Biso   1.000  C
  C913     1.0000 0.79654  0.50349  0.75718  Biso   1.000  C
  C914     1.0000 0.77259  0.75424  0.47288  Biso   1.000  C
  C915     1.0000 0.51673  0.73201  0.78237  Biso   1.000  C
  C916     1.0000 0.30344  0.48350  0.75733  Biso   1.000  C
  C917     1.0000 0.25764  0.74121  0.98843  Biso   1.000  C
  C918     1.0000 0.03456  0.73692  0.73217  Biso   1.000  C
  C919     1.0000 0.75338  0.97100  0.75527  Biso   1.000  C
  C920     1.0000 0.77076  0.24819  0.51335  Biso   1.000  C
  C921     1.0000 0.04165  0.23381  0.78297  Biso   1.000  C
  C922     1.0000 0.25227  0.01548  0.76595  Biso   1.000  C
  C923     1.0000 0.28267  0.24093  0.99274  Biso   1.000  C
  C924     1.0000 0.52607  0.23144  0.73623  Biso   1.000  C
  C925     1.0000 0.24479  0.46973  0.26248  Biso   1.000  C
  C926     1.0000 0.27049  0.21411  0.49870  Biso   1.000  C
  C927     1.0000 0.52202  0.23190  0.23830  Biso   1.000  C
  C928     1.0000 0.74611  0.48074  0.26019  Biso   1.000  C
  C929     1.0000 0.78468  0.22502  0.02354  Biso   1.000  C
  C930     1.0000 0.01976  0.23279  0.28596  Biso   1.000  C
  C931     1.0000 0.27580  0.96529  0.26881  Biso   1.000  C
  C932     1.0000 0.27150  0.71440  0.50947  Biso   1.000  C
  C933     1.0000 0.03565  0.73174  0.23010  Biso   1.000  C
  C934     1.0000 0.77541  0.96237  0.25283  Biso   1.000  C
  C935     1.0000 0.75643  0.72216  0.00871  Biso   1.000  C
  C936     1.0000 0.50632  0.72929  0.28625  Biso   1.000  C
  C937     1.0000 0.76515  0.24989  0.02300  Biso   1.000  C
  C938     1.0000 0.03437  0.71078  0.25348  Biso   1.000  C
  C939     1.0000 0.27609  0.01399  0.74478  Biso   1.000  C
  C940     1.0000 0.24464  0.23252  0.50477  Biso   1.000  C
  C941     1.0000 0.50742  0.70870  0.26153  Biso   1.000  C
  C942     1.0000 0.77424  0.97667  0.77714  Biso   1.000  C
  C943     1.0000 0.77984  0.74544  0.00655  Biso   1.000  C
  C944     1.0000 0.51916  0.20830  0.25946  Biso   1.000  C
  C945     1.0000 0.27917  0.48505  0.73611  Biso   1.000  C
  C946     1.0000 0.29542  0.73472  0.50759  Biso   1.000  C
  C947     1.0000 0.01951  0.20893  0.26410  Biso   1.000  C
  C948     1.0000 0.77335  0.50417  0.78148  Biso   1.000  C
  C949     1.0000 0.28135  0.71965  0.98769  Biso   1.000  C
  C950     1.0000 0.04172  0.25486  0.75903  Biso   1.000  C
  C951     1.0000 0.75369  0.96394  0.27516  Biso   1.000  C
  C952     1.0000 0.79270  0.72973  0.47375  Biso   1.000  C
  C953     1.0000 0.52752  0.25578  0.75864  Biso   1.000  C
  C954     1.0000 0.25293  0.96909  0.24556  Biso   1.000  C
  C955     1.0000 0.25788  0.22072  0.98923  Biso   1.000  C
  C956     1.0000 0.51766  0.75478  0.76063  Biso   1.000  C
  C957     1.0000 0.76600  0.48118  0.28469  Biso   1.000  C
  C958     1.0000 0.74906  0.22487  0.51440  Biso   1.000  C
  C959     1.0000 0.03433  0.75794  0.75577  Biso   1.000  C
  C960     1.0000 0.26627  0.47165  0.23967  Biso   1.000  C
  Cu1      1.0000 0.03130  0.49449  0.66250  Biso   1.000  Cu
  Cu2      1.0000 0.67410  0.98474  0.51766  Biso   1.000  Cu
  Cu3      1.0000 0.51854  0.63757  0.01729  Biso   1.000  Cu
  Cu4      1.0000 0.53407  0.49070  0.85920  Biso   1.000  Cu
  Cu5      1.0000 0.17330  0.98445  0.00416  Biso   1.000  Cu
  Cu6      1.0000 0.02845  0.63997  0.49888  Biso   1.000  Cu
  Cu7      1.0000 0.51588  0.99018  0.66116  Biso   1.000  Cu
  Cu8      1.0000 0.86569  0.49071  0.51539  Biso   1.000  Cu
  Cu9      1.0000 0.01954  0.14034  0.02072  Biso   1.000  Cu
  Cu10     1.0000 0.01734  0.99213  0.85326  Biso   1.000  Cu
  Cu11     1.0000 0.37117  0.48079  0.00099  Biso   1.000  Cu
  Cu12     1.0000 0.50838  0.13416  0.50158  Biso   1.000  Cu
  Cu13     1.0000 0.01053  0.48111  0.35979  Biso   1.000  Cu
  Cu14     1.0000 0.36647  0.97508  0.50650  Biso   1.000  Cu
  Cu15     1.0000 0.52450  0.33113  0.00106  Biso   1.000  Cu
  Cu16     1.0000 0.50787  0.47189  0.16094  Biso   1.000  Cu
  Cu17     1.0000 0.86535  0.98350  0.01377  Biso   1.000  Cu
  Cu18     1.0000 0.00734  0.33179  0.52154  Biso   1.000  Cu
  Cu19     1.0000 0.51755  0.97233  0.35520  Biso   1.000  Cu
  Cu20     1.0000 0.17408  0.47683  0.50272  Biso   1.000  Cu
  Cu21     1.0000 0.01861  0.83091  0.99705  Biso   1.000  Cu
  Cu22     1.0000 0.01549  0.97652  0.16103  Biso   1.000  Cu
  Cu23     1.0000 0.67800  0.48653  0.01681  Biso   1.000  Cu
  Cu24     1.0000 0.53419  0.82958  0.51822  Biso   1.000  Cu
  Cu25     1.0000 0.22877  0.98134  0.00696  Biso   1.000  Cu
  Cu26     1.0000 0.02186  0.19470  0.02157  Biso   1.000  Cu
  Cu27     1.0000 0.01807  0.97343  0.21533  Biso   1.000  Cu
  Cu28     1.0000 0.72650  0.99285  0.51985  Biso   1.000  Cu
  Cu29     1.0000 0.50781  0.18889  0.49576  Biso   1.000  Cu
  Cu30     1.0000 0.52009  0.96750  0.30120  Biso   1.000  Cu
  Cu31     1.0000 0.31716  0.47826  0.00164  Biso   1.000  Cu
  Cu32     1.0000 0.52080  0.69111  0.02375  Biso   1.000  Cu
  Cu33     1.0000 0.50963  0.46763  0.21376  Biso   1.000  Cu
  Cu34     1.0000 0.81129  0.49522  0.51981  Biso   1.000  Cu
  Cu35     1.0000 0.03089  0.69571  0.49715  Biso   1.000  Cu
  Cu36     1.0000 0.00863  0.47747  0.30478  Biso   1.000  Cu
  Cu37     1.0000 0.81136  0.98414  0.01223  Biso   1.000  Cu
  Cu38     1.0000 0.01576  0.77624  0.99527  Biso   1.000  Cu
  Cu39     1.0000 0.01497  0.99555  0.80019  Biso   1.000  Cu
  Cu40     1.0000 0.31183  0.96880  0.50677  Biso   1.000  Cu
  Cu41     1.0000 0.53377  0.77334  0.52046  Biso   1.000  Cu
  Cu42     1.0000 0.51320  0.99369  0.71454  Biso   1.000  Cu
  Cu43     1.0000 0.73101  0.48779  0.02232  Biso   1.000  Cu
  Cu44     1.0000 0.52830  0.27722  0.99777  Biso   1.000  Cu
  Cu45     1.0000 0.53815  0.49397  0.80625  Biso   1.000  Cu
  Cu46     1.0000 0.22799  0.47402  0.49852  Biso   1.000  Cu
  Cu47     1.0000 0.00598  0.27771  0.52476  Biso   1.000  Cu
  Cu48     1.0000 0.03593  0.49341  0.71814  Biso   1.000  Cu
  H1       1.0000 0.27303  0.76325  0.53733  Biso   1.000  H
  H2       1.0000 0.56278  0.27855  0.73868  Biso   1.000  H
  H3       1.0000 0.74904  0.51514  0.31405  Biso   1.000  H
  H4       1.0000 0.75098  0.77512  0.98417  Biso   1.000  H
  H5       1.0000 0.00464  0.23714  0.73927  Biso   1.000  H
  H6       1.0000 0.29883  0.48866  0.26855  Biso   1.000  H
  H7       1.0000 0.26889  0.25898  0.53478  Biso   1.000  H
  H8       1.0000 0.00217  0.78224  0.73321  Biso   1.000  H
  H9       1.0000 0.72270  0.98609  0.24867  Biso   1.000  H
  H10      1.0000 0.79371  0.27672  0.99665  Biso   1.000  H
  H11      1.0000 0.47700  0.77453  0.77354  Biso   1.000  H
  H12      1.0000 0.27239  0.01034  0.22834  Biso   1.000  H
  H13      1.0000 0.73121  0.23460  0.47333  Biso   1.000  H
  H14      1.0000 0.53243  0.73383  0.22969  Biso   1.000  H
  H15      1.0000 0.29533  0.44906  0.71315  Biso   1.000  H
  H16      1.0000 0.28657  0.18780  0.00740  Biso   1.000  H
  H17      1.0000 0.07584  0.72365  0.27190  Biso   1.000  H
  H18      1.0000 0.74787  0.47174  0.75978  Biso   1.000  H
  H19      1.0000 0.82162  0.75503  0.44678  Biso   1.000  H
  H20      1.0000 0.04072  0.17941  0.29022  Biso   1.000  H
  H21      1.0000 0.24794  0.03021  0.71317  Biso   1.000  H
  H22      1.0000 0.25345  0.68756  0.00549  Biso   1.000  H
  H23      1.0000 0.55106  0.18151  0.23860  Biso   1.000  H
  H24      1.0000 0.81112  0.96271  0.74889  Biso   1.000  H
  H25      1.0000 0.27604  0.04218  0.79722  Biso   1.000  H
  H26      1.0000 0.81326  0.24577  0.05480  Biso   1.000  H
  H27      1.0000 0.01021  0.70775  0.19903  Biso   1.000  H
  H28      1.0000 0.77626  0.93856  0.73310  Biso   1.000  H
  H29      1.0000 0.24468  0.18648  0.46985  Biso   1.000  H
  H30      1.0000 0.53223  0.75998  0.26120  Biso   1.000  H
  H31      1.0000 0.27973  0.51071  0.78668  Biso   1.000  H
  H32      1.0000 0.77420  0.70709  0.04940  Biso   1.000  H
  H33      1.0000 0.49661  0.26385  0.26100  Biso   1.000  H
  H34      1.0000 0.77699  0.54149  0.73592  Biso   1.000  H
  H35      1.0000 0.25206  0.73656  0.47520  Biso   1.000  H
  H36      1.0000 0.00161  0.20374  0.31431  Biso   1.000  H
  H37      1.0000 0.74518  0.94508  0.22007  Biso   1.000  H
  H38      1.0000 0.28316  0.77350  0.96507  Biso   1.000  H
  H39      1.0000 0.01114  0.25803  0.80758  Biso   1.000  H
  H40      1.0000 0.24736  0.94318  0.30189  Biso   1.000  H
  H41      1.0000 0.80006  0.77926  0.50232  Biso   1.000  H
  H42      1.0000 0.50660  0.19824  0.76567  Biso   1.000  H
  H43      1.0000 0.71826  0.44731  0.28180  Biso   1.000  H
  H44      1.0000 0.26725  0.26857  0.95720  Biso   1.000  H
  H45      1.0000 0.54000  0.70082  0.75451  Biso   1.000  H
  H46      1.0000 0.27110  0.44665  0.29342  Biso   1.000  H
  H47      1.0000 0.74700  0.27386  0.54426  Biso   1.000  H
  H48      1.0000 0.06748  0.75618  0.70458  Biso   1.000  H
  H49      1.0000 0.21603  0.48969  0.23276  Biso   1.000  H
  H50      1.0000 0.29923  0.23282  0.53208  Biso   1.000  H
  H51      1.0000 0.54648  0.20420  0.20573  Biso   1.000  H
  H52      1.0000 0.77192  0.51158  0.23514  Biso   1.000  H
  H53      1.0000 0.76490  0.20897  0.98606  Biso   1.000  H
  H54      1.0000 0.04018  0.26405  0.25714  Biso   1.000  H
  H55      1.0000 0.30541  0.98497  0.24019  Biso   1.000  H
  H56      1.0000 0.29227  0.68729  0.54027  Biso   1.000  H
  H57      1.0000 0.06315  0.76121  0.25548  Biso   1.000  H
  H58      1.0000 0.80289  0.98885  0.27834  Biso   1.000  H
  H59      1.0000 0.73622  0.73437  0.96858  Biso   1.000  H
  H60      1.0000 0.47447  0.70720  0.31922  Biso   1.000  H
  H61      1.0000 0.81992  0.46795  0.77620  Biso   1.000  H
  H62      1.0000 0.74601  0.73154  0.44388  Biso   1.000  H
  H63      1.0000 0.49569  0.76120  0.81336  Biso   1.000  H
  H64      1.0000 0.33253  0.45415  0.73384  Biso   1.000  H
  H65      1.0000 0.22776  0.71537  0.01402  Biso   1.000  H
  H66      1.0000 0.99860  0.71641  0.75560  Biso   1.000  H
  H67      1.0000 0.72406  0.99902  0.77738  Biso   1.000  H
  H68      1.0000 0.79458  0.22798  0.47665  Biso   1.000  H
  H69      1.0000 0.07501  0.20771  0.76313  Biso   1.000  H
  H70      1.0000 0.22224  0.98713  0.74000  Biso   1.000  H
  H71      1.0000 0.30503  0.21954  0.02753  Biso   1.000  H
  H72      1.0000 0.55334  0.25070  0.70333  Biso   1.000  H
  H73      1.0000 0.79702  0.53333  0.80469  Biso   1.000  H
  H74      1.0000 0.76666  0.69825  0.50162  Biso   1.000  H
  H75      1.0000 0.55759  0.74091  0.73838  Biso   1.000  H
  H76      1.0000 0.25533  0.52398  0.75418  Biso   1.000  H
  H77      1.0000 0.31355  0.74772  0.96839  Biso   1.000  H
  H78      1.0000 0.06959  0.73331  0.77814  Biso   1.000  H
  H79      1.0000 0.74369  0.98915  0.81039  Biso   1.000  H
  H80      1.0000 0.76210  0.21372  0.55844  Biso   1.000  H
  H81      1.0000 0.08095  0.27541  0.77305  Biso   1.000  H
  H82      1.0000 0.30888  0.99188  0.77363  Biso   1.000  H
  H83      1.0000 0.22109  0.24994  0.97494  Biso   1.000  H
  H84      1.0000 0.49121  0.23680  0.78168  Biso   1.000  H
  H85      1.0000 0.23876  0.45264  0.20707  Biso   1.000  H
  H86      1.0000 0.21955  0.21355  0.46902  Biso   1.000  H
  H87      1.0000 0.49228  0.22990  0.28831  Biso   1.000  H
  H88      1.0000 0.78761  0.44706  0.26103  Biso   1.000  H
  H89      1.0000 0.73375  0.22816  0.04850  Biso   1.000  H
  H90      1.0000 0.99199  0.23617  0.23325  Biso   1.000  H
  H91      1.0000 0.23031  0.93175  0.25636  Biso   1.000  H
  H92      1.0000 0.32081  0.70719  0.47920  Biso   1.000  H
  H93      1.0000 0.99531  0.69258  0.23757  Biso   1.000  H
  H94      1.0000 0.78343  0.94672  0.30639  Biso   1.000  H
  H95      1.0000 0.81298  0.72179  0.03092  Biso   1.000  H
  H96      1.0000 0.48112  0.67904  0.28634  Biso   1.000  H
  H97      1.0000 0.88503  0.97827  0.92471  Biso   1.000  H
  H98      1.0000 0.92795  0.84956  0.98755  Biso   1.000  H
  H99      1.0000 0.02388  0.89807  0.87013  Biso   1.000  H
  H100     1.0000 0.38469  0.98084  0.60046  Biso   1.000  H
  H101     1.0000 0.44104  0.84724  0.51926  Biso   1.000  H
  H102     1.0000 0.52421  0.89656  0.64624  Biso   1.000  H
  H103     1.0000 0.66632  0.49334  0.92475  Biso   1.000  H
  H104     1.0000 0.61891  0.35417  0.00168  Biso   1.000  H
  H105     1.0000 0.53794  0.40021  0.87360  Biso   1.000  H
  H106     1.0000 0.16009  0.48106  0.59909  Biso   1.000  H
  H107     1.0000 0.10149  0.34909  0.50871  Biso   1.000  H
  H108     1.0000 0.03219  0.40157  0.64800  Biso   1.000  H
  H109     1.0000 0.14711  0.98483  0.09621  Biso   1.000  H
  H110     1.0000 0.11049  0.11426  0.01038  Biso   1.000  H
  H111     1.0000 0.00613  0.07259  0.14463  Biso   1.000  H
  H112     1.0000 0.65128  0.98235  0.42845  Biso   1.000  H
  H113     1.0000 0.60345  0.11467  0.50826  Biso   1.000  H
  H114     1.0000 0.51862  0.06137  0.36965  Biso   1.000  H
  H115     1.0000 0.38144  0.47611  0.09830  Biso   1.000  H
  H116     1.0000 0.42942  0.61595  0.00850  Biso   1.000  H
  H117     1.0000 0.50204  0.56078  0.14769  Biso   1.000  H
  H118     1.0000 0.87887  0.48740  0.42750  Biso   1.000  H
  H119     1.0000 0.93455  0.62469  0.50628  Biso   1.000  H
  H120     1.0000 0.01467  0.57713  0.37527  Biso   1.000  H
  H121     1.0000 0.10715  0.97881  0.87111  Biso   1.000  H
  H122     1.0000 0.88637  0.07382  0.00924  Biso   1.000  H
  H123     1.0000 0.01738  0.84841  0.09241  Biso   1.000  H
  H124     1.0000 0.61087  0.98313  0.64098  Biso   1.000  H
  H125     1.0000 0.37618  0.06551  0.50472  Biso   1.000  H
  H126     1.0000 0.52395  0.84179  0.42539  Biso   1.000  H
  H127     1.0000 0.44443  0.47361  0.87403  Biso   1.000  H
  H128     1.0000 0.65562  0.57636  0.02900  Biso   1.000  H
  H129     1.0000 0.52296  0.34116  0.09223  Biso   1.000  H
  H130     1.0000 0.94107  0.49488  0.64755  Biso   1.000  H
  H131     1.0000 0.15712  0.57201  0.51146  Biso   1.000  H
  H132     1.0000 0.00337  0.34561  0.42765  Biso   1.000  H
  H133     1.0000 0.92383  0.97996  0.14606  Biso   1.000  H
  H134     1.0000 0.14841  0.88708  0.00799  Biso   1.000  H
  H135     1.0000 0.01578  0.12051  0.92670  Biso   1.000  H
  H136     1.0000 0.42737  0.96348  0.37349  Biso   1.000  H
  H137     1.0000 0.66090  0.89572  0.50262  Biso   1.000  H
  H138     1.0000 0.52050  0.12078  0.58766  Biso   1.000  H
  H139     1.0000 0.60530  0.46930  0.14386  Biso   1.000  H
  H140     1.0000 0.39347  0.38708  0.01186  Biso   1.000  H
  H141     1.0000 0.52548  0.62327  0.92476  Biso   1.000  H
  H142     1.0000 0.10214  0.47646  0.37489  Biso   1.000  H
  H143     1.0000 0.87669  0.39833  0.52399  Biso   1.000  H
  H144     1.0000 0.02376  0.62396  0.58947  Biso   1.000  H
  H145     1.0000 0.62683  0.50235  0.88587  Biso   1.000  H
  H146     1.0000 0.89385  0.58372  0.50097  Biso   1.000  H
  H147     1.0000 0.54125  0.85082  0.60999  Biso   1.000  H
  H148     1.0000 0.12213  0.48778  0.64046  Biso   1.000  H
  H149     1.0000 0.39000  0.57371  0.99924  Biso   1.000  H
  H150     1.0000 0.02416  0.85413  0.90641  Biso   1.000  H
  H151     1.0000 0.92950  0.98199  0.87660  Biso   1.000  H
  H152     1.0000 0.64587  0.07572  0.52418  Biso   1.000  H
  H153     1.0000 0.02401  0.35658  0.61118  Biso   1.000  H
  H154     1.0000 0.42250  0.98757  0.63864  Biso   1.000  H
  H155     1.0000 0.15151  0.07247  0.00567  Biso   1.000  H
  H156     1.0000 0.52994  0.35664  0.91147  Biso   1.000  H
  H157     1.0000 0.41868  0.47158  0.14004  Biso   1.000  H
  H158     1.0000 0.14931  0.38375  0.50822  Biso   1.000  H
  H159     1.0000 0.51458  0.10579  0.41092  Biso   1.000  H
  H160     1.0000 0.92068  0.48395  0.38348  Biso   1.000  H
  H161     1.0000 0.65768  0.39530  0.00721  Biso   1.000  H
  H162     1.0000 0.02029  0.12078  0.10612  Biso   1.000  H
  H163     1.0000 0.10655  0.97676  0.13825  Biso   1.000  H
  H164     1.0000 0.39385  0.88343  0.51354  Biso   1.000  H
  H165     1.0000 0.02216  0.61872  0.41173  Biso   1.000  H
  H166     1.0000 0.60809  0.97824  0.38382  Biso   1.000  H
  H167     1.0000 0.88736  0.89217  0.00329  Biso   1.000  H
  H168     1.0000 0.50515  0.60657  0.10999  Biso   1.000  H
  H169     1.0000 0.02061  0.08128  0.88050  Biso   1.000  H
  H170     1.0000 0.87936  0.98584  0.10272  Biso   1.000  H
  H171     1.0000 0.10592  0.84405  0.00934  Biso   1.000  H
  H172     1.0000 0.52524  0.07858  0.63748  Biso   1.000  H
  H173     1.0000 0.38642  0.96623  0.41215  Biso   1.000  H
  H174     1.0000 0.62184  0.84797  0.50777  Biso   1.000  H
  H175     1.0000 0.52451  0.58298  0.88420  Biso   1.000  H
  H176     1.0000 0.65275  0.47662  0.10468  Biso   1.000  H
  H177     1.0000 0.43328  0.34527  0.99900  Biso   1.000  H
  H178     1.0000 0.02987  0.58415  0.63528  Biso   1.000  H
  H179     1.0000 0.14836  0.47982  0.41344  Biso   1.000  H
  H180     1.0000 0.91686  0.35374  0.52408  Biso   1.000  H
  H181     1.0000 0.01697  0.88563  0.13763  Biso   1.000  H
  H182     1.0000 0.15305  0.97307  0.91631  Biso   1.000  H
  H183     1.0000 0.92789  0.11519  0.02498  Biso   1.000  H
  H184     1.0000 0.52723  0.88169  0.38450  Biso   1.000  H
  H185     1.0000 0.65358  0.97637  0.60357  Biso   1.000  H
  H186     1.0000 0.41682  0.11097  0.50050  Biso   1.000  H
  H187     1.0000 0.51957  0.38474  0.13590  Biso   1.000  H
  H188     1.0000 0.39596  0.47217  0.91598  Biso   1.000  H
  H189     1.0000 0.61454  0.61455  0.03260  Biso   1.000  H
  H190     1.0000 0.00260  0.38499  0.38757  Biso   1.000  H
  H191     1.0000 0.89251  0.49362  0.60798  Biso   1.000  H
  H192     1.0000 0.11698  0.61346  0.50911  Biso   1.000  H
  H193     1.0000 0.30425  0.82501  0.49446  Biso   1.000  H
  H194     1.0000 0.51019  0.26363  0.85310  Biso   1.000  H
  H195     1.0000 0.86208  0.48079  0.28996  Biso   1.000  H
  H196     1.0000 0.79050  0.83845  0.00983  Biso   1.000  H
  H197     1.0000 0.03146  0.26236  0.66702  Biso   1.000  H
  H198     1.0000 0.36000  0.45907  0.23183  Biso   1.000  H
  H199     1.0000 0.23896  0.32326  0.50295  Biso   1.000  H
  H200     1.0000 0.02889  0.76109  0.84827  Biso   1.000  H
  H201     1.0000 0.66267  0.95395  0.29129  Biso   1.000  H
  H202     1.0000 0.75652  0.34664  0.01657  Biso   1.000  H
  H203     1.0000 0.52013  0.75896  0.66745  Biso   1.000  H
  H204     1.0000 0.16204  0.97519  0.23424  Biso   1.000  H
  H205     1.0000 0.73535  0.13791  0.54337  Biso   1.000  H
  H206     1.0000 0.50316  0.70211  0.16384  Biso   1.000  H
  H207     1.0000 0.18313  0.48950  0.73315  Biso   1.000  H
  H208     1.0000 0.24482  0.12500  0.97323  Biso   1.000  H
  H209     1.0000 0.04737  0.70957  0.34861  Biso   1.000  H
  H210     1.0000 0.67854  0.51987  0.79053  Biso   1.000  H
  H211     1.0000 0.80095  0.63798  0.47189  Biso   1.000  H
  H212     1.0000 0.02896  0.20684  0.17265  Biso   1.000  H
  H213     1.0000 0.37364  0.00810  0.73508  Biso   1.000  H
  H214     1.0000 0.29295  0.62393  0.97124  Biso   1.000  H
  H215     1.0000 0.52741  0.20020  0.35172  Biso   1.000  H
  H216     1.0000 0.86737  0.00623  0.79158  Biso   1.000  H
  H217     1.0000 0.24149  0.47652  0.35306  Biso   1.000  H
  H218     1.0000 0.35684  0.20224  0.49210  Biso   1.000  H
  H219     1.0000 0.52924  0.32585  0.23022  Biso   1.000  H
  H220     1.0000 0.74633  0.48429  0.16654  Biso   1.000  H
  H221     1.0000 0.87362  0.21356  0.02080  Biso   1.000  H
  H222     1.0000 0.99514  0.33111  0.29075  Biso   1.000  H
  H223     1.0000 0.29051  0.98147  0.36339  Biso   1.000  H
  H224     1.0000 0.17319  0.70919  0.50665  Biso   1.000  H
  H225     1.0000 0.02935  0.82891  0.22985  Biso   1.000  H
  H226     1.0000 0.78337  0.96841  0.15153  Biso   1.000  H
  H227     1.0000 0.66011  0.71330  0.01173  Biso   1.000  H
  H228     1.0000 0.49298  0.82428  0.29343  Biso   1.000  H
  H229     1.0000 0.80318  0.51595  0.66555  Biso   1.000  H
  H230     1.0000 0.67540  0.75536  0.48587  Biso   1.000  H
  H231     1.0000 0.51664  0.63375  0.78991  Biso   1.000  H
  H232     1.0000 0.30500  0.46587  0.85106  Biso   1.000  H
  H233     1.0000 0.15798  0.74870  0.98876  Biso   1.000  H
  H234     1.0000 0.02598  0.64436  0.73156  Biso   1.000  H
  H235     1.0000 0.74509  0.96018  0.66042  Biso   1.000  H
  H236     1.0000 0.86054  0.25913  0.50821  Biso   1.000  H
  H237     1.0000 0.02930  0.14477  0.78919  Biso   1.000  H
  H238     1.0000 0.24805  0.00044  0.86344  Biso   1.000  H
  H239     1.0000 0.38400  0.24746  0.99648  Biso   1.000  H
  H240     1.0000 0.52918  0.13491  0.73107  Biso   1.000  H
  H241     1.0000 0.76449  0.50352  0.87470  Biso   1.000  H
  H242     1.0000 0.88775  0.72223  0.48961  Biso   1.000  H
  H243     1.0000 0.49750  0.85316  0.74544  Biso   1.000  H
  H244     1.0000 0.26347  0.48258  0.64389  Biso   1.000  H
  H245     1.0000 0.37519  0.71000  0.01070  Biso   1.000  H
  H246     1.0000 0.03447  0.85535  0.76872  Biso   1.000  H
  H247     1.0000 0.79005  0.95889  0.87069  Biso   1.000  H
  H248     1.0000 0.65381  0.21526  0.50428  Biso   1.000  H
  H249     1.0000 0.05068  0.35724  0.74697  Biso   1.000  H
  H250     1.0000 0.28609  0.99261  0.64844  Biso   1.000  H
  H251     1.0000 0.16531  0.21283  0.00644  Biso   1.000  H
  H252     1.0000 0.53207  0.35724  0.77102  Biso   1.000  H
  H253     1.0000 0.28209  0.48875  0.14672  Biso   1.000  H
  H254     1.0000 0.14660  0.24921  0.50916  Biso   1.000  H
  H255     1.0000 0.51308  0.10998  0.27194  Biso   1.000  H
  H256     1.0000 0.78211  0.46963  0.38065  Biso   1.000  H
  H257     1.0000 0.67178  0.25832  0.00075  Biso   1.000  H
  H258     1.0000 0.01024  0.11472  0.24573  Biso   1.000  H
  H259     1.0000 0.24161  0.99073  0.15304  Biso   1.000  H
  H260     1.0000 0.39696  0.74594  0.51509  Biso   1.000  H
  H261     1.0000 0.01976  0.61853  0.27283  Biso   1.000  H
  H262     1.0000 0.74787  0.98246  0.37410  Biso   1.000  H
  H263     1.0000 0.87411  0.75457  0.98008  Biso   1.000  H
  H264     1.0000 0.51332  0.61107  0.24631  Biso   1.000  H
  H265     1.0000 0.02814  0.22291  0.88156  Biso   1.000  H
  H266     1.0000 0.87011  0.94917  0.23716  Biso   1.000  H
  H267     1.0000 0.24614  0.83810  0.98540  Biso   1.000  H
  H268     1.0000 0.50649  0.21972  0.64370  Biso   1.000  H
  H269     1.0000 0.37497  0.95941  0.27529  Biso   1.000  H
  H270     1.0000 0.75694  0.84999  0.47903  Biso   1.000  H
  H271     1.0000 0.52517  0.72209  0.87863  Biso   1.000  H
  H272     1.0000 0.64837  0.47131  0.24486  Biso   1.000  H
  H273     1.0000 0.29509  0.33905  0.99478  Biso   1.000  H
  H274     1.0000 0.01736  0.72510  0.63914  Biso   1.000  H
  H275     1.0000 0.14326  0.46218  0.27284  Biso   1.000  H
  H276     1.0000 0.77949  0.35225  0.50649  Biso   1.000  H
  H277     1.0000 0.03515  0.74847  0.13503  Biso   1.000  H
  H278     1.0000 0.15955  0.01497  0.78285  Biso   1.000  H
  H279     1.0000 0.78917  0.12664  0.01367  Biso   1.000  H
  H280     1.0000 0.51629  0.74339  0.38083  Biso   1.000  H
  H281     1.0000 0.65333  0.96732  0.74060  Biso   1.000  H
  H282     1.0000 0.27881  0.11376  0.49677  Biso   1.000  H
  H283     1.0000 0.52331  0.24110  0.13848  Biso   1.000  H
  H284     1.0000 0.39525  0.48817  0.77727  Biso   1.000  H
  H285     1.0000 0.75323  0.62963  0.03031  Biso   1.000  H
  H286     1.0000 0.01543  0.24549  0.38311  Biso   1.000  H
  H287     1.0000 0.88965  0.50322  0.74369  Biso   1.000  H
  H288     1.0000 0.25407  0.61820  0.50038  Biso   1.000  H
  H289     1.0000 0.11356  0.21023  0.02112  Biso   1.000  H
  H290     1.0000 0.00828  0.06197  0.24019  Biso   1.000  H
  H291     1.0000 0.24536  0.99103  0.09653  Biso   1.000  H
  H292     1.0000 0.59782  0.20691  0.48807  Biso   1.000  H
  H293     1.0000 0.51656  0.05729  0.27446  Biso   1.000  H
  H294     1.0000 0.74660  0.98697  0.42911  Biso   1.000  H
  H295     1.0000 0.42731  0.71273  0.01900  Biso   1.000  H
  H296     1.0000 0.50751  0.55737  0.24384  Biso   1.000  H
  H297     1.0000 0.28536  0.49150  0.08826  Biso   1.000  H
  H298     1.0000 0.94252  0.71998  0.49509  Biso   1.000  H
  H299     1.0000 0.01333  0.56502  0.28074  Biso   1.000  H
  H300     1.0000 0.78247  0.47687  0.43346  Biso   1.000  H
  H301     1.0000 0.92341  0.75390  0.97555  Biso   1.000  H
  H302     1.0000 0.01885  0.90515  0.77344  Biso   1.000  H
  H303     1.0000 0.78978  0.95601  0.92482  Biso   1.000  H
  H304     1.0000 0.44844  0.75205  0.52029  Biso   1.000  H
  H305     1.0000 0.50001  0.90419  0.73894  Biso   1.000  H
  H306     1.0000 0.28823  0.98964  0.59379  Biso   1.000  H
  H307     1.0000 0.61687  0.25736  0.99812  Biso   1.000  H
  H308     1.0000 0.54227  0.40688  0.77811  Biso   1.000  H
  H309     1.0000 0.75879  0.49262  0.93180  Biso   1.000  H
  H310     1.0000 0.09546  0.25411  0.51604  Biso   1.000  H
  H311     1.0000 0.04507  0.40897  0.74210  Biso   1.000  H
  H312     1.0000 0.25668  0.47887  0.59008  Biso   1.000  H
  H313     1.0000 0.24722  0.98824  0.91583  Biso   1.000  H
  H314     1.0000 0.92682  0.21358  0.02591  Biso   1.000  H
  H315     1.0000 0.02048  0.88336  0.23201  Biso   1.000  H
  H316     1.0000 0.74598  0.95688  0.60558  Biso   1.000  H
  H317     1.0000 0.41044  0.20605  0.48969  Biso   1.000  H
  H318     1.0000 0.50650  0.87634  0.28735  Biso   1.000  H
  H319     1.0000 0.30032  0.46474  0.90602  Biso   1.000  H
  H320     1.0000 0.60703  0.70984  0.01587  Biso   1.000  H
  H321     1.0000 0.51990  0.37902  0.22849  Biso   1.000  H
  H322     1.0000 0.79661  0.51479  0.61339  Biso   1.000  H
  H323     1.0000 0.12236  0.70894  0.50157  Biso   1.000  H
  H324     1.0000 0.99484  0.38603  0.29158  Biso   1.000  H
  H325     1.0000 0.78680  0.98830  0.10287  Biso   1.000  H
  H326     1.0000 0.10756  0.74796  0.99207  Biso   1.000  H
  H327     1.0000 0.02955  0.08797  0.78680  Biso   1.000  H
  H328     1.0000 0.29075  0.98158  0.41826  Biso   1.000  H
  H329     1.0000 0.62061  0.75682  0.48602  Biso   1.000  H
  H330     1.0000 0.53003  0.08291  0.73202  Biso   1.000  H
  H331     1.0000 0.74842  0.48996  0.11416  Biso   1.000  H
  H332     1.0000 0.43955  0.25244  0.99964  Biso   1.000  H
  H333     1.0000 0.52001  0.58276  0.78938  Biso   1.000  H
  H334     1.0000 0.24657  0.48266  0.40488  Biso   1.000  H
  H335     1.0000 0.91450  0.25726  0.52007  Biso   1.000  H
  H336     1.0000 0.01994  0.58709  0.73081  Biso   1.000  H
  H337     1.0000 0.02288  0.21899  0.93416  Biso   1.000  H
  H338     1.0000 0.92521  0.95455  0.23911  Biso   1.000  H
  H339     1.0000 0.24470  0.88991  0.99028  Biso   1.000  H
  H340     1.0000 0.49990  0.21612  0.59207  Biso   1.000  H
  H341     1.0000 0.42885  0.95816  0.27835  Biso   1.000  H
  H342     1.0000 0.75521  0.90218  0.49454  Biso   1.000  H
  H343     1.0000 0.52073  0.71951  0.93257  Biso   1.000  H
  H344     1.0000 0.59597  0.46738  0.23707  Biso   1.000  H
  H345     1.0000 0.29768  0.38868  0.99855  Biso   1.000  H
  H346     1.0000 0.02431  0.72056  0.58279  Biso   1.000  H
  H347     1.0000 0.09108  0.46770  0.28108  Biso   1.000  H
  H348     1.0000 0.78388  0.40222  0.51218  Biso   1.000  H
  H349     1.0000 0.02732  0.75094  0.08270  Biso   1.000  H
  H350     1.0000 0.10671  0.01361  0.78287  Biso   1.000  H
  H351     1.0000 0.78972  0.07233  0.00462  Biso   1.000  H
  H352     1.0000 0.52690  0.74928  0.43632  Biso   1.000  H
  H353     1.0000 0.60234  0.97499  0.73576  Biso   1.000  H
  H354     1.0000 0.28103  0.05844  0.49315  Biso   1.000  H
  H355     1.0000 0.51711  0.24831  0.08328  Biso   1.000  H
  H356     1.0000 0.44920  0.49073  0.78248  Biso   1.000  H
  H357     1.0000 0.75290  0.57714  0.03308  Biso   1.000  H
  H358     1.0000 0.01491  0.25186  0.43609  Biso   1.000  H
  H359     1.0000 0.94583  0.49445  0.73981  Biso   1.000  H
  H360     1.0000 0.25222  0.56675  0.51117  Biso   1.000  H
  H361     1.0000 0.05362  0.71183  0.40476  Biso   1.000  H
  H362     1.0000 0.42405  0.00742  0.73332  Biso   1.000  H
  H363     1.0000 0.75164  0.39884  0.00999  Biso   1.000  H
  H364     1.0000 0.49422  0.70147  0.11068  Biso   1.000  H
  H365     1.0000 0.92162  0.00017  0.78363  Biso   1.000  H
  H366     1.0000 0.24474  0.37822  0.49918  Biso   1.000  H
  H367     1.0000 0.52262  0.20536  0.40452  Biso   1.000  H
  H368     1.0000 0.12700  0.49876  0.73481  Biso   1.000  H
  H369     1.0000 0.79092  0.89496  0.01668  Biso   1.000  H
  H370     1.0000 0.03581  0.21199  0.11835  Biso   1.000  H
  H371     1.0000 0.63067  0.51481  0.78767  Biso   1.000  H
  H372     1.0000 0.30061  0.87623  0.50012  Biso   1.000  H
  H373     1.0000 0.01489  0.26155  0.61525  Biso   1.000  H
  H374     1.0000 0.60953  0.95555  0.29116  Biso   1.000  H
  H375     1.0000 0.29735  0.57058  0.97399  Biso   1.000  H
  H376     1.0000 0.50668  0.26124  0.90611  Biso   1.000  H
  H377     1.0000 0.10743  0.97950  0.23565  Biso   1.000  H
  H378     1.0000 0.80026  0.58088  0.47959  Biso   1.000  H
  H379     1.0000 0.52991  0.75595  0.61498  Biso   1.000  H
  H380     1.0000 0.91799  0.47673  0.28810  Biso   1.000  H
  H381     1.0000 0.24558  0.07106  0.98002  Biso   1.000  H
  H382     1.0000 0.02161  0.75863  0.90532  Biso   1.000  H
  H383     1.0000 0.41796  0.45071  0.23260  Biso   1.000  H
  H384     1.0000 0.73585  0.08117  0.55448  Biso   1.000  H
  H385     1.0000 0.23319  0.44160  0.32809  Biso   1.000  H
  H386     1.0000 0.27908  0.14788  0.46796  Biso   1.000  H
  H387     1.0000 0.49399  0.29771  0.22748  Biso   1.000  H
  H388     1.0000 0.68637  0.44120  0.24595  Biso   1.000  H
  H389     1.0000 0.84269  0.20125  0.05984  Biso   1.000  H
  H390     1.0000 0.98575  0.24646  0.34864  Biso   1.000  H
  H391     1.0000 0.28493  0.93680  0.33430  Biso   1.000  H
  H392     1.0000 0.21068  0.70275  0.47254  Biso   1.000  H
  H393     1.0000 0.00491  0.74562  0.16537  Biso   1.000  H
  H394     1.0000 0.78207  0.94294  0.18256  Biso   1.000  H
  H395     1.0000 0.74016  0.66984  0.05629  Biso   1.000  H
  H396     1.0000 0.53122  0.79958  0.29326  Biso   1.000  H
  H397     1.0000 0.81943  0.54101  0.69754  Biso   1.000  H
  H398     1.0000 0.75906  0.81595  0.51008  Biso   1.000  H
  H399     1.0000 0.54904  0.66746  0.79430  Biso   1.000  H
  H400     1.0000 0.31324  0.50681  0.82642  Biso   1.000  H
  H401     1.0000 0.23870  0.80682  0.95846  Biso   1.000  H
  H402     1.0000 0.06118  0.71943  0.66724  Biso   1.000  H
  H403     1.0000 0.74071  0.93075  0.69444  Biso   1.000  H
  H404     1.0000 0.78644  0.31355  0.54547  Biso   1.000  H
  H405     1.0000 0.00733  0.22142  0.84669  Biso   1.000  H
  H406     1.0000 0.24137  0.03671  0.83579  Biso   1.000  H
  H407     1.0000 0.30472  0.30389  0.96178  Biso   1.000  H
  H408     1.0000 0.48887  0.16681  0.72731  Biso   1.000  H
  H409     1.0000 0.27980  0.44974  0.16831  Biso   1.000  H
  H410     1.0000 0.17848  0.24875  0.47500  Biso   1.000  H
  H411     1.0000 0.49097  0.19715  0.32612  Biso   1.000  H
  H412     1.0000 0.83156  0.44628  0.29622  Biso   1.000  H
  H413     1.0000 0.69295  0.26106  0.03798  Biso   1.000  H
  H414     1.0000 0.99526  0.20027  0.19530  Biso   1.000  H
  H415     1.0000 0.19100  0.93764  0.21882  Biso   1.000  H
  H416     1.0000 0.36338  0.74434  0.47990  Biso   1.000  H
  H417     1.0000 0.99087  0.65881  0.28024  Biso   1.000  H
  H418     1.0000 0.74840  0.94787  0.34519  Biso   1.000  H
  H419     1.0000 0.85049  0.75645  0.02302  Biso   1.000  H
  H420     1.0000 0.47656  0.64174  0.24736  Biso   1.000  H
  H421     1.0000 0.76138  0.53901  0.84684  Biso   1.000  H
  H422     1.0000 0.80207  0.66582  0.50657  Biso   1.000  H
  H423     1.0000 0.55467  0.77400  0.69781  Biso   1.000  H
  H424     1.0000 0.21632  0.52361  0.72299  Biso   1.000  H
  H425     1.0000 0.35292  0.70983  0.97115  Biso   1.000  H
  H426     1.0000 0.07160  0.76583  0.81749  Biso   1.000  H
  H427     1.0000 0.78130  0.99192  0.84771  Biso   1.000  H
  H428     1.0000 0.72423  0.17683  0.56325  Biso   1.000  H
  H429     1.0000 0.07972  0.31325  0.73830  Biso   1.000  H
  H430     1.0000 0.34199  0.97865  0.73465  Biso   1.000  H
  H431     1.0000 0.18936  0.20948  0.96779  Biso   1.000  H
  H432     1.0000 0.48574  0.27466  0.81446  Biso   1.000  H
  H433     1.0000 0.28024  0.02066  0.67345  Biso   1.000  H
  H434     1.0000 0.75455  0.31292  0.98790  Biso   1.000  H
  H435     1.0000 0.06917  0.69319  0.31415  Biso   1.000  H
  H436     1.0000 0.84565  0.96872  0.78079  Biso   1.000  H
  H437     1.0000 0.23077  0.29422  0.54234  Biso   1.000  H
  H438     1.0000 0.53551  0.69697  0.19355  Biso   1.000  H
  H439     1.0000 0.25327  0.44589  0.67781  Biso   1.000  H
  H440     1.0000 0.78799  0.81108  0.97534  Biso   1.000  H
  H441     1.0000 0.55008  0.14405  0.27305  Biso   1.000  H
  H442     1.0000 0.70796  0.47446  0.79359  Biso   1.000  H
  H443     1.0000 0.31234  0.79738  0.53918  Biso   1.000  H
  H444     1.0000 0.04179  0.14159  0.25120  Biso   1.000  H
  H445     1.0000 0.68934  0.99332  0.28978  Biso   1.000  H
  H446     1.0000 0.28909  0.64959  0.00889  Biso   1.000  H
  H447     1.0000 0.00072  0.27485  0.70332  Biso   1.000  H
  H448     1.0000 0.23924  0.01611  0.19161  Biso   1.000  H
  H449     1.0000 0.85999  0.72026  0.45062  Biso   1.000  H
  H450     1.0000 0.56443  0.31543  0.77785  Biso   1.000  H
  H451     1.0000 0.78635  0.50906  0.34951  Biso   1.000  H
  H452     1.0000 0.25105  0.14968  0.00969  Biso   1.000  H
  H453     1.0000 0.47531  0.81177  0.73761  Biso   1.000  H
  H454     1.0000 0.33498  0.49463  0.23157  Biso   1.000  H
  H455     1.0000 0.69425  0.19868  0.47603  Biso   1.000  H
  H456     1.0000 0.00356  0.82044  0.77185  Biso   1.000  H
  H457     1.0000 0.70339  0.76683  0.45298  Biso   1.000  H
  H458     1.0000 0.49058  0.72098  0.84837  Biso   1.000  H
  H459     1.0000 0.85445  0.46462  0.73722  Biso   1.000  H
  H460     1.0000 0.18905  0.74921  0.01623  Biso   1.000  H
  H461     1.0000 0.99198  0.67650  0.72253  Biso   1.000  H
  H462     1.0000 0.36835  0.45076  0.77230  Biso   1.000  H
  H463     1.0000 0.83002  0.26692  0.47610  Biso   1.000  H
  H464     1.0000 0.07314  0.16991  0.80175  Biso   1.000  H
  H465     1.0000 0.68536  0.99826  0.74252  Biso   1.000  H
  H466     1.0000 0.34578  0.24987  0.02837  Biso   1.000  H
  H467     1.0000 0.54871  0.21655  0.66820  Biso   1.000  H
  H468     1.0000 0.18928  0.97717  0.78018  Biso   1.000  H
  H469     1.0000 0.33249  0.19314  0.53456  Biso   1.000  H
  H470     1.0000 0.54827  0.24305  0.16884  Biso   1.000  H
  H471     1.0000 0.17555  0.49380  0.27239  Biso   1.000  H
  H472     1.0000 0.79842  0.16564  0.98308  Biso   1.000  H
  H473     1.0000 0.03373  0.30601  0.28969  Biso   1.000  H
  H474     1.0000 0.73809  0.51438  0.19865  Biso   1.000  H
  H475     1.0000 0.25126  0.65332  0.54359  Biso   1.000  H
  H476     1.0000 0.05975  0.80077  0.22313  Biso   1.000  H
  H477     1.0000 0.34501  0.98925  0.27603  Biso   1.000  H
  H478     1.0000 0.69441  0.69484  0.97750  Biso   1.000  H
  H479     1.0000 0.47981  0.74691  0.35228  Biso   1.000  H
  H480     1.0000 0.84306  0.98973  0.23931  Biso   1.000  H
  N1       1.0000 0.68522  0.16430  0.52085  Biso   1.000  N
  N2       1.0000 0.50530  0.64754  0.19528  Biso   1.000  N
  N3       1.0000 0.21024  0.48356  0.67866  Biso   1.000  N
  N4       1.0000 0.19372  0.15714  0.99241  Biso   1.000  N
  N5       1.0000 0.02733  0.65624  0.32425  Biso   1.000  N
  N6       1.0000 0.71118  0.50828  0.84296  Biso   1.000  N
  N7       1.0000 0.85438  0.66855  0.48281  Biso   1.000  N
  N8       1.0000 0.01966  0.15138  0.19768  Biso   1.000  N
  N9       1.0000 0.33775  0.99782  0.68072  Biso   1.000  N
  N10      1.0000 0.34492  0.65864  0.99186  Biso   1.000  N
  N11      1.0000 0.51765  0.14573  0.32401  Biso   1.000  N
  N12      1.0000 0.83937  0.98057  0.83896  Biso   1.000  N
  N13      1.0000 0.35894  0.79547  0.50661  Biso   1.000  N
  N14      1.0000 0.52366  0.31890  0.82260  Biso   1.000  N
  N15      1.0000 0.83413  0.47700  0.34427  Biso   1.000  N
  N16      1.0000 0.84221  0.80840  0.99419  Biso   1.000  N
  N17      1.0000 0.03708  0.31776  0.69624  Biso   1.000  N
  N18      1.0000 0.33253  0.47570  0.17960  Biso   1.000  N
  N19      1.0000 0.18414  0.29833  0.50479  Biso   1.000  N
  N20      1.0000 0.03282  0.81474  0.82061  Biso   1.000  N
  N21      1.0000 0.69523  0.97310  0.34308  Biso   1.000  N
  N22      1.0000 0.70274  0.31206  0.01070  Biso   1.000  N
  N23      1.0000 0.51564  0.81490  0.69579  Biso   1.000  N
  N24      1.0000 0.19177  0.98063  0.18210  Biso   1.000  N
  N25      1.0000 0.85660  0.50306  0.69407  Biso   1.000  N
  N26      1.0000 0.70791  0.81112  0.49023  Biso   1.000  N
  N27      1.0000 0.52051  0.66873  0.84465  Biso   1.000  N
  N28      1.0000 0.36143  0.47371  0.82458  Biso   1.000  N
  N29      1.0000 0.19152  0.80282  0.99201  Biso   1.000  N
  N30      1.0000 0.02455  0.67287  0.67315  Biso   1.000  N
  N31      1.0000 0.69212  0.96693  0.69036  Biso   1.000  N
  N32      1.0000 0.83080  0.31374  0.51084  Biso   1.000  N
  N33      1.0000 0.03315  0.17180  0.84638  Biso   1.000  N
  N34      1.0000 0.19305  0.99869  0.83154  Biso   1.000  N
  N35      1.0000 0.34887  0.30223  0.99761  Biso   1.000  N
  N36      1.0000 0.51861  0.16641  0.67572  Biso   1.000  N
  N37      1.0000 0.18308  0.47032  0.32488  Biso   1.000  N
  N38      1.0000 0.32996  0.14794  0.49974  Biso   1.000  N
  N39      1.0000 0.52014  0.29468  0.17488  Biso   1.000  N
  N40      1.0000 0.68865  0.47546  0.19352  Biso   1.000  N
  N41      1.0000 0.84215  0.15957  0.02114  Biso   1.000  N
  N42      1.0000 0.00961  0.29919  0.34406  Biso   1.000  N
  N43      1.0000 0.34039  0.96584  0.32920  Biso   1.000  N
  N44      1.0000 0.20451  0.65411  0.50602  Biso   1.000  N
  N45      1.0000 0.02758  0.79790  0.17403  Biso   1.000  N
  N46      1.0000 0.83799  0.96664  0.18851  Biso   1.000  N
  N47      1.0000 0.69589  0.66116  0.02247  Biso   1.000  N
  N48      1.0000 0.50815  0.79453  0.34643  Biso   1.000  N
  O1       1.0000 0.36595  0.52307  0.99944  Biso   1.000  O
  O2       1.0000 0.00950  0.33203  0.56418  Biso   1.000  O
  O3       1.0000 0.55767  0.97159  0.35575  Biso   1.000  O
  O4       1.0000 0.86792  0.53436  0.50999  Biso   1.000  O
  O5       1.0000 0.51874  0.32934  0.95943  Biso   1.000  O
  O6       1.0000 0.05803  0.97571  0.16459  Biso   1.000  O
  O7       1.0000 0.17736  0.02575  0.00453  Biso   1.000  O
  O8       1.0000 0.53605  0.82649  0.56128  Biso   1.000  O
  O9       1.0000 0.96859  0.48161  0.35775  Biso   1.000  O
  O10      1.0000 0.66895  0.02796  0.52608  Biso   1.000  O
  O11      1.0000 0.01776  0.83064  0.95236  Biso   1.000  O
  O12      1.0000 0.46734  0.46643  0.16329  Biso   1.000  O
  O13      1.0000 0.67928  0.44556  0.00763  Biso   1.000  O
  O14      1.0000 0.02900  0.64350  0.45598  Biso   1.000  O
  O15      1.0000 0.47166  0.99489  0.66021  Biso   1.000  O
  O16      1.0000 0.17378  0.43331  0.50647  Biso   1.000  O
  O17      1.0000 0.51276  0.63351  0.06043  Biso   1.000  O
  O18      1.0000 0.97615  0.98924  0.85261  Biso   1.000  O
  O19      1.0000 0.86363  0.94269  0.01171  Biso   1.000  O
  O20      1.0000 0.51562  0.13396  0.45748  Biso   1.000  O
  O21      1.0000 0.07515  0.49378  0.66492  Biso   1.000  O
  O22      1.0000 0.36516  0.93418  0.51026  Biso   1.000  O
  O23      1.0000 0.02240  0.14540  0.06041  Biso   1.000  O
  O24      1.0000 0.57666  0.49876  0.85945  Biso   1.000  O
  O25      1.0000 0.97245  0.97622  0.16549  Biso   1.000  O
  O26      1.0000 0.17410  0.94206  0.00598  Biso   1.000  O
  O27      1.0000 0.01615  0.14331  0.97792  Biso   1.000  O
  O28      1.0000 0.47579  0.97305  0.35129  Biso   1.000  O
  O29      1.0000 0.68173  0.94394  0.50712  Biso   1.000  O
  O30      1.0000 0.50159  0.14335  0.54287  Biso   1.000  O
  O31      1.0000 0.55113  0.47418  0.16512  Biso   1.000  O
  O32      1.0000 0.37054  0.43958  0.00187  Biso   1.000  O
  O33      1.0000 0.52300  0.64378  0.97773  Biso   1.000  O
  O34      1.0000 0.05213  0.47405  0.35690  Biso   1.000  O
  O35      1.0000 0.85787  0.44770  0.52292  Biso   1.000  O
  O36      1.0000 0.02822  0.64577  0.54002  Biso   1.000  O
  O37      1.0000 0.05937  0.99371  0.85185  Biso   1.000  O
  O38      1.0000 0.86379  0.02528  0.01392  Biso   1.000  O
  O39      1.0000 0.01303  0.82816  0.03977  Biso   1.000  O
  O40      1.0000 0.55774  0.98314  0.66617  Biso   1.000  O
  O41      1.0000 0.35759  0.01592  0.50292  Biso   1.000  O
  O42      1.0000 0.53662  0.82303  0.47538  Biso   1.000  O
  O43      1.0000 0.49375  0.48089  0.85465  Biso   1.000  O
  O44      1.0000 0.68030  0.52515  0.02582  Biso   1.000  O
  O45      1.0000 0.52481  0.32418  0.04149  Biso   1.000  O
  O46      1.0000 0.99027  0.49478  0.66708  Biso   1.000  O
  O47      1.0000 0.17975  0.51837  0.50419  Biso   1.000  O
  O48      1.0000 0.00702  0.32621  0.47816  Biso   1.000  O
  O49      1.0000 0.01584  0.93421  0.16269  Biso   1.000  O
  O50      1.0000 0.17760  0.98284  0.96244  Biso   1.000  O
  O51      1.0000 0.97877  0.14513  0.02412  Biso   1.000  O
  O52      1.0000 0.52195  0.93075  0.35793  Biso   1.000  O
  O53      1.0000 0.67546  0.97597  0.55827  Biso   1.000  O
  O54      1.0000 0.46496  0.13597  0.49655  Biso   1.000  O
  O55      1.0000 0.51460  0.42955  0.16058  Biso   1.000  O
  O56      1.0000 0.36866  0.47924  0.95988  Biso   1.000  O
  O57      1.0000 0.56002  0.63772  0.02311  Biso   1.000  O
  O58      1.0000 0.00668  0.43708  0.36129  Biso   1.000  O
  O59      1.0000 0.86532  0.49659  0.55718  Biso   1.000  O
  O60      1.0000 0.06811  0.63916  0.50063  Biso   1.000  O
  O61      1.0000 0.01652  0.03426  0.85449  Biso   1.000  O
  O62      1.0000 0.86040  0.98840  0.05754  Biso   1.000  O
  O63      1.0000 0.05946  0.82429  0.99843  Biso   1.000  O
  O64      1.0000 0.51941  0.03088  0.65813  Biso   1.000  O
  O65      1.0000 0.36653  0.96959  0.46222  Biso   1.000  O
  O66      1.0000 0.57629  0.82408  0.51871  Biso   1.000  O
  O67      1.0000 0.52742  0.53260  0.85903  Biso   1.000  O
  O68      1.0000 0.68120  0.48056  0.05882  Biso   1.000  O
  O69      1.0000 0.48244  0.32638  0.00385  Biso   1.000  O
  O70      1.0000 0.03157  0.53872  0.66361  Biso   1.000  O
  O71      1.0000 0.17678  0.47702  0.46007  Biso   1.000  O
  O72      1.0000 0.96708  0.32850  0.52392  Biso   1.000  O
  O73      1.0000 0.03416  0.45171  0.66853  Biso   1.000  O
  O74      1.0000 0.67446  0.99081  0.47671  Biso   1.000  O
  O75      1.0000 0.47841  0.64316  0.01490  Biso   1.000  O
  O76      1.0000 0.54117  0.45117  0.85279  Biso   1.000  O
  O77      1.0000 0.17511  0.98861  0.04588  Biso   1.000  O
  O78      1.0000 0.98575  0.64441  0.49968  Biso   1.000  O
  O79      1.0000 0.50951  0.95000  0.66648  Biso   1.000  O
  O80      1.0000 0.85839  0.48499  0.47661  Biso   1.000  O
  O81      1.0000 0.06206  0.13941  0.01882  Biso   1.000  O
  O82      1.0000 0.02061  0.94921  0.84860  Biso   1.000  O
  O83      1.0000 0.36456  0.48327  0.04479  Biso   1.000  O
  O84      1.0000 0.54956  0.13807  0.50585  Biso   1.000  O
  O85      1.0000 0.01224  0.52131  0.35176  Biso   1.000  O
  O86      1.0000 0.36286  0.97963  0.54958  Biso   1.000  O
  O87      1.0000 0.56695  0.32764  0.99694  Biso   1.000  O
  O88      1.0000 0.50791  0.51337  0.16857  Biso   1.000  O
  O89      1.0000 0.85902  0.98546  0.97088  Biso   1.000  O
  O90      1.0000 0.04878  0.32755  0.52124  Biso   1.000  O
  O91      1.0000 0.52050  0.01233  0.34935  Biso   1.000  O
  O92      1.0000 0.18011  0.47773  0.54650  Biso   1.000  O
  O93      1.0000 0.97535  0.82823  0.99356  Biso   1.000  O
  O94      1.0000 0.01489  0.02007  0.16379  Biso   1.000  O
  O95      1.0000 0.68358  0.49790  0.97577  Biso   1.000  O
  O96      1.0000 0.49352  0.82526  0.51912  Biso   1.000  O
  O97      1.0000 0.46375  0.18500  0.48953  Biso   1.000  O
  O98      1.0000 0.51248  0.42784  0.20960  Biso   1.000  O
  O99      1.0000 0.22612  0.47695  0.45672  Biso   1.000  O
  O100     1.0000 0.97829  0.19384  0.02147  Biso   1.000  O
  O101     1.0000 0.00520  0.43630  0.31405  Biso   1.000  O
  O102     1.0000 0.72920  0.47912  0.06266  Biso   1.000  O
  O103     1.0000 0.07113  0.68743  0.50036  Biso   1.000  O
  O104     1.0000 0.01781  0.93160  0.21011  Biso   1.000  O
  O105     1.0000 0.31806  0.96694  0.46646  Biso   1.000  O
  O106     1.0000 0.56041  0.68590  0.03010  Biso   1.000  O
  O107     1.0000 0.52492  0.92585  0.30742  Biso   1.000  O
  O108     1.0000 0.81231  0.99073  0.05520  Biso   1.000  O
  O109     1.0000 0.57659  0.77433  0.51340  Biso   1.000  O
  O110     1.0000 0.52872  0.53499  0.81069  Biso   1.000  O
  O111     1.0000 0.81732  0.50158  0.55998  Biso   1.000  O
  O112     1.0000 0.05738  0.77536  0.00014  Biso   1.000  O
  O113     1.0000 0.02900  0.53678  0.71142  Biso   1.000  O
  O114     1.0000 0.32261  0.46962  0.95907  Biso   1.000  O
  O115     1.0000 0.96506  0.28064  0.51904  Biso   1.000  O
  O116     1.0000 0.02282  0.03883  0.80647  Biso   1.000  O
  O117     1.0000 0.72550  0.97992  0.55893  Biso   1.000  O
  O118     1.0000 0.48676  0.27606  0.00185  Biso   1.000  O
  O119     1.0000 0.51856  0.03248  0.70491  Biso   1.000  O
  O120     1.0000 0.22592  0.97918  0.96397  Biso   1.000  O
  O121     1.0000 0.07609  0.49341  0.71184  Biso   1.000  O
  O122     1.0000 0.71594  0.03062  0.53544  Biso   1.000  O
  O123     1.0000 0.51514  0.68133  0.06335  Biso   1.000  O
  O124     1.0000 0.57653  0.50297  0.81368  Biso   1.000  O
  O125     1.0000 0.22556  0.02593  0.00576  Biso   1.000  O
  O126     1.0000 0.03709  0.69050  0.45449  Biso   1.000  O
  O127     1.0000 0.47209  0.99876  0.70951  Biso   1.000  O
  O128     1.0000 0.81949  0.53771  0.51267  Biso   1.000  O
  O129     1.0000 0.02848  0.19264  0.06492  Biso   1.000  O
  O130     1.0000 0.97277  0.99839  0.80560  Biso   1.000  O
  O131     1.0000 0.31752  0.52171  0.99493  Biso   1.000  O
  O132     1.0000 0.51282  0.18316  0.45481  Biso   1.000  O
  O133     1.0000 0.96718  0.47940  0.31091  Biso   1.000  O
  O134     1.0000 0.31730  0.92820  0.51102  Biso   1.000  O
  O135     1.0000 0.52466  0.28257  0.95493  Biso   1.000  O
  O136     1.0000 0.46821  0.46744  0.21186  Biso   1.000  O
  O137     1.0000 0.81459  0.94128  0.01816  Biso   1.000  O
  O138     1.0000 0.00631  0.28328  0.56733  Biso   1.000  O
  O139     1.0000 0.56288  0.97174  0.30581  Biso   1.000  O
  O140     1.0000 0.22228  0.43026  0.49752  Biso   1.000  O
  O141     1.0000 0.02469  0.78149  0.95354  Biso   1.000  O
  O142     1.0000 0.06082  0.97188  0.21380  Biso   1.000  O
  O143     1.0000 0.72704  0.44776  0.01502  Biso   1.000  O
  O144     1.0000 0.53603  0.77881  0.56173  Biso   1.000  O
  O145     1.0000 0.55296  0.47133  0.21398  Biso   1.000  O
  O146     1.0000 0.22735  0.51697  0.50348  Biso   1.000  O
  O147     1.0000 0.50559  0.19187  0.53916  Biso   1.000  O
  O148     1.0000 0.04959  0.47593  0.30798  Biso   1.000  O
  O149     1.0000 0.72960  0.52837  0.02860  Biso   1.000  O
  O150     1.0000 0.01880  0.19219  0.97976  Biso   1.000  O
  O151     1.0000 0.97603  0.96986  0.21397  Biso   1.000  O
  O152     1.0000 0.30796  0.01149  0.50747  Biso   1.000  O
  O153     1.0000 0.02438  0.69513  0.53849  Biso   1.000  O
  O154     1.0000 0.47792  0.96165  0.30291  Biso   1.000  O
  O155     1.0000 0.81569  0.02474  0.00407  Biso   1.000  O
  O156     1.0000 0.52253  0.69305  0.98098  Biso   1.000  O
  O157     1.0000 0.49746  0.48420  0.80604  Biso   1.000  O
  O158     1.0000 0.81019  0.45341  0.52156  Biso   1.000  O
  O159     1.0000 0.52878  0.77505  0.47870  Biso   1.000  O
  O160     1.0000 0.99176  0.49269  0.71611  Biso   1.000  O
  O161     1.0000 0.32146  0.43694  0.00779  Biso   1.000  O
  O162     1.0000 0.01305  0.78021  0.03733  Biso   1.000  O
  O163     1.0000 0.05607  0.98788  0.80294  Biso   1.000  O
  O164     1.0000 0.72892  0.95199  0.50738  Biso   1.000  O
  O165     1.0000 0.00558  0.27700  0.48205  Biso   1.000  O
  O166     1.0000 0.55563  0.99019  0.71381  Biso   1.000  O
  O167     1.0000 0.22389  0.93832  0.00846  Biso   1.000  O
  O168     1.0000 0.53219  0.27676  0.03841  Biso   1.000  O
  O169     1.0000 0.01808  0.01623  0.21221  Biso   1.000  O
  O170     1.0000 0.22445  0.97960  0.04843  Biso   1.000  O
  O171     1.0000 0.06168  0.18786  0.01511  Biso   1.000  O
  O172     1.0000 0.51636  0.01033  0.30110  Biso   1.000  O
  O173     1.0000 0.72301  0.00044  0.47797  Biso   1.000  O
  O174     1.0000 0.55031  0.18600  0.49844  Biso   1.000  O
  O175     1.0000 0.50943  0.51173  0.21571  Biso   1.000  O
  O176     1.0000 0.31683  0.48172  0.04136  Biso   1.000  O
  O177     1.0000 0.47854  0.69165  0.01452  Biso   1.000  O
  O178     1.0000 0.01169  0.52059  0.30374  Biso   1.000  O
  O179     1.0000 0.81049  0.49273  0.47807  Biso   1.000  O
  O180     1.0000 0.98967  0.69165  0.49022  Biso   1.000  O
  O181     1.0000 0.00993  0.95137  0.80057  Biso   1.000  O
  O182     1.0000 0.81063  0.97610  0.97049  Biso   1.000  O
  O183     1.0000 0.97501  0.78026  0.98999  Biso   1.000  O
  O184     1.0000 0.50906  0.95242  0.71561  Biso   1.000  O
  O185     1.0000 0.31425  0.97400  0.54697  Biso   1.000  O
  O186     1.0000 0.49321  0.77715  0.52178  Biso   1.000  O
  O187     1.0000 0.54671  0.45374  0.80551  Biso   1.000  O
  O188     1.0000 0.73208  0.49369  0.98011  Biso   1.000  O
  O189     1.0000 0.57036  0.27963  0.99327  Biso   1.000  O
  O190     1.0000 0.03199  0.45092  0.71725  Biso   1.000  O
  O191     1.0000 0.22705  0.47348  0.54066  Biso   1.000  O
  O192     1.0000 0.04690  0.27942  0.52402  Biso   1.000  O
