data_image0
_cell_length_a       46.8253
_cell_length_b       46.6248
_cell_length_c       46.6255
_cell_angle_alpha    90
_cell_angle_beta     90
_cell_angle_gamma    90

_symmetry_space_group_name_H-M    "P 1"
_symmetry_int_tables_number       1

loop_
  _symmetry_equiv_pos_as_xyz
  'x, y, z'

loop_
  _atom_site_label
  _atom_site_occupancy
  _atom_site_fract_x
  _atom_site_fract_y
  _atom_site_fract_z
  _atom_site_thermal_displace_type
  _atom_site_B_iso_or_equiv
  _atom_site_type_symbol
  C1       1.0000 0.57185  0.97402  0.32873  Biso   1.000  C
  C2       1.0000 0.32703  0.53089  0.00786  Biso   1.000  C
  C3       1.0000 0.02035  0.29027  0.55219  Biso   1.000  C
  C4       1.0000 0.06970  0.98470  0.18603  Biso   1.000  C
  C5       1.0000 0.82516  0.52043  0.49893  Biso   1.000  C
  C6       1.0000 0.52085  0.29463  0.94681  Biso   1.000  C
  C7       1.0000 0.96047  0.48699  0.32510  Biso   1.000  C
  C8       1.0000 0.19236  0.02701  0.99879  Biso   1.000  C
  C9       1.0000 0.51165  0.79397  0.56366  Biso   1.000  C
  C10      1.0000 0.45662  0.47908  0.18275  Biso   1.000  C
  C11      1.0000 0.69660  0.02119  0.52046  Biso   1.000  C
  C12      1.0000 0.99885  0.79298  0.96054  Biso   1.000  C
  C13      1.0000 0.45170  0.98671  0.68632  Biso   1.000  C
  C14      1.0000 0.69254  0.41629  0.00808  Biso   1.000  C
  C15      1.0000 0.00616  0.65610  0.46152  Biso   1.000  C
  C16      1.0000 0.94922  0.96356  0.82829  Biso   1.000  C
  C17      1.0000 0.19421  0.42563  0.51434  Biso   1.000  C
  C18      1.0000 0.51075  0.64926  0.06484  Biso   1.000  C
  C19      1.0000 0.05758  0.47835  0.68562  Biso   1.000  C
  C20      1.0000 0.82979  0.91561  0.02185  Biso   1.000  C
  C21      1.0000 0.52123  0.15045  0.44660  Biso   1.000  C
  C22      1.0000 0.56557  0.48451  0.82869  Biso   1.000  C
  C23      1.0000 0.32770  0.92487  0.50637  Biso   1.000  C
  C24      1.0000 0.01139  0.15260  0.05287  Biso   1.000  C
  C25      1.0000 0.32806  0.03349  0.49445  Biso   1.000  C
  C26      1.0000 0.50824  0.28845  0.05148  Biso   1.000  C
  C27      1.0000 0.06853  0.47553  0.33164  Biso   1.000  C
  C28      1.0000 0.83383  0.02300  0.01478  Biso   1.000  C
  C29      1.0000 0.01705  0.29548  0.44463  Biso   1.000  C
  C30      1.0000 0.56389  0.46790  0.18142  Biso   1.000  C
  C31      1.0000 0.18996  0.53464  0.51407  Biso   1.000  C
  C32      1.0000 0.02517  0.79145  0.06887  Biso   1.000  C
  C33      1.0000 0.46362  0.97578  0.33110  Biso   1.000  C
  C34      1.0000 0.69619  0.52460  0.99594  Biso   1.000  C
  C35      1.0000 0.49905  0.79189  0.45613  Biso   1.000  C
  C36      1.0000 0.96253  0.97162  0.19287  Biso   1.000  C
  C37      1.0000 0.69171  0.91416  0.50723  Biso   1.000  C
  C38      1.0000 0.51801  0.65607  0.95568  Biso   1.000  C
  C39      1.0000 0.95337  0.45359  0.67995  Biso   1.000  C
  C40      1.0000 0.19107  0.91972  0.99976  Biso   1.000  C
  C41      1.0000 0.00177  0.65029  0.57173  Biso   1.000  C
  C42      1.0000 0.45673  0.47536  0.82577  Biso   1.000  C
  C43      1.0000 0.82688  0.41205  0.49373  Biso   1.000  C
  C44      1.0000 0.01771  0.14942  0.94052  Biso   1.000  C
  C45      1.0000 0.55972  0.97135  0.68806  Biso   1.000  C
  C46      1.0000 0.33022  0.42195  0.00770  Biso   1.000  C
  C47      1.0000 0.51458  0.15636  0.55346  Biso   1.000  C
  C48      1.0000 0.05857  0.96211  0.82026  Biso   1.000  C
  C49      1.0000 0.00726  0.01941  0.82014  Biso   1.000  C
  C50      1.0000 0.83083  0.96742  0.07126  Biso   1.000  C
  C51      1.0000 0.06659  0.79169  0.00300  Biso   1.000  C
  C52      1.0000 0.51197  0.03490  0.68645  Biso   1.000  C
  C53      1.0000 0.32899  0.97431  0.44812  Biso   1.000  C
  C54      1.0000 0.55891  0.79029  0.50338  Biso   1.000  C
  C55      1.0000 0.50493  0.53515  0.82716  Biso   1.000  C
  C56      1.0000 0.69472  0.47437  0.05507  Biso   1.000  C
  C57      1.0000 0.45848  0.29529  0.99264  Biso   1.000  C
  C58      1.0000 0.99067  0.51539  0.68775  Biso   1.000  C
  C59      1.0000 0.19550  0.47703  0.46122  Biso   1.000  C
  C60      1.0000 0.96125  0.29060  0.49719  Biso   1.000  C
  C61      1.0000 0.02107  0.92119  0.18999  Biso   1.000  C
  C62      1.0000 0.18885  0.97550  0.94640  Biso   1.000  C
  C63      1.0000 0.95926  0.14992  0.99298  Biso   1.000  C
  C64      1.0000 0.51948  0.91979  0.33175  Biso   1.000  C
  C65      1.0000 0.69128  0.96445  0.56878  Biso   1.000  C
  C66      1.0000 0.46209  0.15512  0.49267  Biso   1.000  C
  C67      1.0000 0.50905  0.41615  0.17871  Biso   1.000  C
  C68      1.0000 0.33012  0.47065  0.95177  Biso   1.000  C
  C69      1.0000 0.56929  0.64937  0.01304  Biso   1.000  C
  C70      1.0000 0.01199  0.42549  0.32323  Biso   1.000  C
  C71      1.0000 0.82582  0.46601  0.55202  Biso   1.000  C
  C72      1.0000 0.05802  0.65836  0.52178  Biso   1.000  C
  C73      1.0000 0.01926  0.53413  0.33107  Biso   1.000  C
  C74      1.0000 0.32659  0.98175  0.55494  Biso   1.000  C
  C75      1.0000 0.56754  0.28951  0.00883  Biso   1.000  C
  C76      1.0000 0.51538  0.52526  0.18751  Biso   1.000  C
  C77      1.0000 0.83114  0.96334  0.96268  Biso   1.000  C
  C78      1.0000 0.07119  0.29798  0.49351  Biso   1.000  C
  C79      1.0000 0.52095  0.02808  0.32492  Biso   1.000  C
  C80      1.0000 0.19456  0.48182  0.56820  Biso   1.000  C
  C81      1.0000 0.96031  0.79442  0.02922  Biso   1.000  C
  C82      1.0000 0.00769  0.03038  0.18719  Biso   1.000  C
  C83      1.0000 0.69861  0.46714  0.94893  Biso   1.000  C
  C84      1.0000 0.44948  0.79138  0.51737  Biso   1.000  C
  C85      1.0000 0.02341  0.41193  0.68378  Biso   1.000  C
  C86      1.0000 0.69688  0.97316  0.46165  Biso   1.000  C
  C87      1.0000 0.46065  0.65298  0.00226  Biso   1.000  C
  C88      1.0000 0.52179  0.42634  0.82795  Biso   1.000  C
  C89      1.0000 0.19000  0.97178  0.05501  Biso   1.000  C
  C90      1.0000 0.94904  0.65058  0.51667  Biso   1.000  C
  C91      1.0000 0.49731  0.92571  0.68588  Biso   1.000  C
  C92      1.0000 0.83041  0.46476  0.44402  Biso   1.000  C
  C93      1.0000 0.06781  0.15016  0.99883  Biso   1.000  C
  C94      1.0000 0.00244  0.90831  0.82557  Biso   1.000  C
  C95      1.0000 0.32914  0.47953  0.06306  Biso   1.000  C
  C96      1.0000 0.57182  0.15269  0.50649  Biso   1.000  C
  C97      1.0000 0.69769  0.05341  0.51955  Biso   1.000  C
  C98      1.0000 0.50679  0.65048  0.09602  Biso   1.000  C
  C99      1.0000 0.08934  0.47780  0.68667  Biso   1.000  C
  C100     1.0000 0.19485  0.05887  0.99172  Biso   1.000  C
  C101     1.0000 0.00634  0.65712  0.43079  Biso   1.000  C
  C102     1.0000 0.59617  0.47691  0.82915  Biso   1.000  C
  C103     1.0000 0.82312  0.55258  0.49882  Biso   1.000  C
  C104     1.0000 0.00820  0.15423  0.08392  Biso   1.000  C
  C105     1.0000 0.41945  0.98918  0.68619  Biso   1.000  C
  C106     1.0000 0.32760  0.56226  0.01340  Biso   1.000  C
  C107     1.0000 0.51938  0.15199  0.41481  Biso   1.000  C
  C108     1.0000 0.91893  0.96235  0.83166  Biso   1.000  C
  C109     1.0000 0.32697  0.89301  0.50710  Biso   1.000  C
  C110     1.0000 0.52170  0.29658  0.91470  Biso   1.000  C
  C111     1.0000 0.92891  0.48508  0.32022  Biso   1.000  C
  C112     1.0000 0.83038  0.88291  0.02596  Biso   1.000  C
  C113     1.0000 0.03272  0.28932  0.58383  Biso   1.000  C
  C114     1.0000 0.42336  0.48297  0.18624  Biso   1.000  C
  C115     1.0000 0.19683  0.39425  0.51135  Biso   1.000  C
  C116     1.0000 0.99327  0.79100  0.92901  Biso   1.000  C
  C117     1.0000 0.60467  0.97132  0.32965  Biso   1.000  C
  C118     1.0000 0.69316  0.38428  0.01059  Biso   1.000  C
  C119     1.0000 0.50955  0.79585  0.59488  Biso   1.000  C
  C120     1.0000 0.10222  0.98926  0.18562  Biso   1.000  C
  C121     1.0000 0.83068  0.97070  0.10183  Biso   1.000  C
  C122     1.0000 0.09837  0.79176  0.00197  Biso   1.000  C
  C123     1.0000 0.01046  0.05061  0.81914  Biso   1.000  C
  C124     1.0000 0.33108  0.97039  0.41616  Biso   1.000  C
  C125     1.0000 0.59107  0.78984  0.49937  Biso   1.000  C
  C126     1.0000 0.51522  0.06656  0.68382  Biso   1.000  C
  C127     1.0000 0.69332  0.47306  0.08700  Biso   1.000  C
  C128     1.0000 0.42618  0.29533  0.99323  Biso   1.000  C
  C129     1.0000 0.50592  0.56813  0.82736  Biso   1.000  C
  C130     1.0000 0.19563  0.47631  0.42856  Biso   1.000  C
  C131     1.0000 0.92893  0.28918  0.49059  Biso   1.000  C
  C132     1.0000 0.99402  0.54677  0.69181  Biso   1.000  C
  C133     1.0000 0.18934  0.97375  0.91418  Biso   1.000  C
  C134     1.0000 0.92807  0.14916  0.99543  Biso   1.000  C
  C135     1.0000 0.02280  0.88935  0.19086  Biso   1.000  C
  C136     1.0000 0.69138  0.96183  0.60105  Biso   1.000  C
  C137     1.0000 0.43024  0.15650  0.48979  Biso   1.000  C
  C138     1.0000 0.52041  0.88753  0.33047  Biso   1.000  C
  C139     1.0000 0.32991  0.47055  0.91958  Biso   1.000  C
  C140     1.0000 0.60088  0.65019  0.01217  Biso   1.000  C
  C141     1.0000 0.50849  0.38397  0.17798  Biso   1.000  C
  C142     1.0000 0.82461  0.45859  0.58305  Biso   1.000  C
  C143     1.0000 0.09037  0.65778  0.52687  Biso   1.000  C
  C144     1.0000 0.00945  0.39358  0.32038  Biso   1.000  C
  C145     1.0000 0.32838  0.48362  0.09507  Biso   1.000  C
  C146     1.0000 0.10243  0.29910  0.49301  Biso   1.000  C
  C147     1.0000 0.51916  0.05968  0.32213  Biso   1.000  C
  C148     1.0000 0.83152  0.46484  0.41245  Biso   1.000  C
  C149     1.0000 0.59939  0.28901  0.01153  Biso   1.000  C
  C150     1.0000 0.00249  0.06115  0.18317  Biso   1.000  C
  C151     1.0000 0.19161  0.96916  0.08726  Biso   1.000  C
  C152     1.0000 0.41694  0.79204  0.52208  Biso   1.000  C
  C153     1.0000 0.02288  0.56491  0.33258  Biso   1.000  C
  C154     1.0000 0.69756  0.96990  0.42895  Biso   1.000  C
  C155     1.0000 0.92915  0.79435  0.03064  Biso   1.000  C
  C156     1.0000 0.51944  0.55879  0.18996  Biso   1.000  C
  C157     1.0000 0.69759  0.46302  0.91735  Biso   1.000  C
  C158     1.0000 0.91771  0.64872  0.50822  Biso   1.000  C
  C159     1.0000 0.49521  0.89280  0.68544  Biso   1.000  C
  C160     1.0000 0.19248  0.48449  0.59962  Biso   1.000  C
  C161     1.0000 0.42716  0.65231  0.00090  Biso   1.000  C
  C162     1.0000 0.99728  0.87643  0.82509  Biso   1.000  C
  C163     1.0000 0.82799  0.96196  0.93103  Biso   1.000  C
  C164     1.0000 0.60431  0.15204  0.50826  Biso   1.000  C
  C165     1.0000 0.03510  0.38010  0.68233  Biso   1.000  C
  C166     1.0000 0.32500  0.98547  0.58727  Biso   1.000  C
  C167     1.0000 0.09889  0.15234  0.99594  Biso   1.000  C
  C168     1.0000 0.52750  0.39538  0.82607  Biso   1.000  C
  C169     1.0000 0.02698  0.79178  0.10058  Biso   1.000  C
  C170     1.0000 0.08968  0.97128  0.81869  Biso   1.000  C
  C171     1.0000 0.83415  0.05524  0.01208  Biso   1.000  C
  C172     1.0000 0.50295  0.78990  0.42394  Biso   1.000  C
  C173     1.0000 0.59185  0.96958  0.68995  Biso   1.000  C
  C174     1.0000 0.33081  0.06496  0.49181  Biso   1.000  C
  C175     1.0000 0.51324  0.28845  0.08315  Biso   1.000  C
  C176     1.0000 0.42480  0.47123  0.82560  Biso   1.000  C
  C177     1.0000 0.69588  0.55707  0.99114  Biso   1.000  C
  C178     1.0000 0.01777  0.29701  0.41126  Biso   1.000  C
  C179     1.0000 0.92025  0.45066  0.67966  Biso   1.000  C
  C180     1.0000 0.18918  0.56647  0.51787  Biso   1.000  C
  C181     1.0000 0.02286  0.14744  0.90794  Biso   1.000  C
  C182     1.0000 0.92956  0.97008  0.19470  Biso   1.000  C
  C183     1.0000 0.19152  0.88678  0.99657  Biso   1.000  C
  C184     1.0000 0.52292  0.15719  0.58504  Biso   1.000  C
  C185     1.0000 0.43191  0.97703  0.33001  Biso   1.000  C
  C186     1.0000 0.69149  0.88227  0.50536  Biso   1.000  C
  C187     1.0000 0.50948  0.65908  0.92564  Biso   1.000  C
  C188     1.0000 0.59684  0.47280  0.18020  Biso   1.000  C
  C189     1.0000 0.33074  0.39080  0.01045  Biso   1.000  C
  C190     1.0000 0.00436  0.64758  0.60296  Biso   1.000  C
  C191     1.0000 0.10147  0.47538  0.33164  Biso   1.000  C
  C192     1.0000 0.83026  0.38162  0.48669  Biso   1.000  C
  C193     1.0000 0.85453  0.96407  0.91409  Biso   1.000  C
  C194     1.0000 0.91031  0.81983  0.02877  Biso   1.000  C
  C195     1.0000 0.99917  0.86319  0.85330  Biso   1.000  C
  C196     1.0000 0.35234  0.98904  0.60400  Biso   1.000  C
  C197     1.0000 0.40353  0.81928  0.51667  Biso   1.000  C
  C198     1.0000 0.49824  0.87583  0.65878  Biso   1.000  C
  C199     1.0000 0.66871  0.46661  0.90236  Biso   1.000  C
  C200     1.0000 0.61555  0.31517  0.01143  Biso   1.000  C
  C201     1.0000 0.52353  0.37771  0.85107  Biso   1.000  C
  C202     1.0000 0.16431  0.48425  0.61332  Biso   1.000  C
  C203     1.0000 0.11818  0.32565  0.49760  Biso   1.000  C
  C204     1.0000 0.03585  0.36405  0.65436  Biso   1.000  C
  C205     1.0000 0.16799  0.97746  0.10532  Biso   1.000  C
  C206     1.0000 0.11508  0.12632  0.99370  Biso   1.000  C
  C207     1.0000 0.00007  0.07623  0.15375  Biso   1.000  C
  C208     1.0000 0.66992  0.97262  0.41252  Biso   1.000  C
  C209     1.0000 0.61821  0.12461  0.51274  Biso   1.000  C
  C210     1.0000 0.52096  0.07748  0.34695  Biso   1.000  C
  C211     1.0000 0.35543  0.48458  0.11055  Biso   1.000  C
  C212     1.0000 0.41195  0.62579  0.00514  Biso   1.000  C
  C213     1.0000 0.52035  0.57509  0.16364  Biso   1.000  C
  C214     1.0000 0.85807  0.46952  0.39594  Biso   1.000  C
  C215     1.0000 0.90252  0.62109  0.50577  Biso   1.000  C
  C216     1.0000 0.02178  0.58122  0.36009  Biso   1.000  C
  C217     1.0000 0.10802  0.96784  0.84558  Biso   1.000  C
  C218     1.0000 0.86023  0.07061  0.00834  Biso   1.000  C
  C219     1.0000 0.02791  0.81819  0.11539  Biso   1.000  C
  C220     1.0000 0.61109  0.96894  0.66453  Biso   1.000  C
  C221     1.0000 0.35990  0.07808  0.48651  Biso   1.000  C
  C222     1.0000 0.50580  0.81816  0.40776  Biso   1.000  C
  C223     1.0000 0.40922  0.47008  0.85229  Biso   1.000  C
  C224     1.0000 0.66947  0.57328  0.99394  Biso   1.000  C
  C225     1.0000 0.51537  0.31561  0.09823  Biso   1.000  C
  C226     1.0000 0.90426  0.45157  0.65179  Biso   1.000  C
  C227     1.0000 0.16152  0.58160  0.52241  Biso   1.000  C
  C228     1.0000 0.01318  0.32369  0.39520  Biso   1.000  C
  C229     1.0000 0.91267  0.97142  0.16847  Biso   1.000  C
  C230     1.0000 0.16342  0.87150  0.99679  Biso   1.000  C
  C231     1.0000 0.02021  0.11925  0.89371  Biso   1.000  C
  C232     1.0000 0.41453  0.97641  0.35641  Biso   1.000  C
  C233     1.0000 0.66369  0.86673  0.50638  Biso   1.000  C
  C234     1.0000 0.52198  0.13034  0.60260  Biso   1.000  C
  C235     1.0000 0.61387  0.47314  0.15366  Biso   1.000  C
  C236     1.0000 0.35796  0.37449  0.00442  Biso   1.000  C
  C237     1.0000 0.50905  0.63274  0.90756  Biso   1.000  C
  C238     1.0000 0.11625  0.47446  0.36006  Biso   1.000  C
  C239     1.0000 0.85900  0.36660  0.48958  Biso   1.000  C
  C240     1.0000 0.00410  0.61989  0.61825  Biso   1.000  C
  C241     1.0000 0.61406  0.47236  0.85570  Biso   1.000  C
  C242     1.0000 0.85075  0.56763  0.50420  Biso   1.000  C
  C243     1.0000 0.50740  0.82421  0.60951  Biso   1.000  C
  C244     1.0000 0.10774  0.47880  0.66053  Biso   1.000  C
  C245     1.0000 0.35472  0.57616  0.01260  Biso   1.000  C
  C246     1.0000 0.99052  0.81634  0.90970  Biso   1.000  C
  C247     1.0000 0.90497  0.96273  0.85967  Biso   1.000  C
  C248     1.0000 0.66929  0.07091  0.52148  Biso   1.000  C
  C249     1.0000 0.02795  0.31466  0.60093  Biso   1.000  C
  C250     1.0000 0.40453  0.98730  0.65842  Biso   1.000  C
  C251     1.0000 0.16667  0.07408  0.99102  Biso   1.000  C
  C252     1.0000 0.52091  0.32357  0.90050  Biso   1.000  C
  C253     1.0000 0.40478  0.48554  0.16017  Biso   1.000  C
  C254     1.0000 0.16778  0.37896  0.50988  Biso   1.000  C
  C255     1.0000 0.52119  0.12637  0.39813  Biso   1.000  C
  C256     1.0000 0.91246  0.47615  0.34563  Biso   1.000  C
  C257     1.0000 0.66612  0.36712  0.01238  Biso   1.000  C
  C258     1.0000 0.00507  0.12754  0.10145  Biso   1.000  C
  C259     1.0000 0.11836  0.98663  0.15883  Biso   1.000  C
  C260     1.0000 0.35322  0.87558  0.50997  Biso   1.000  C
  C261     1.0000 0.01066  0.63037  0.41292  Biso   1.000  C
  C262     1.0000 0.62042  0.97598  0.35632  Biso   1.000  C
  C263     1.0000 0.85756  0.86784  0.02781  Biso   1.000  C
  C264     1.0000 0.51072  0.62386  0.11249  Biso   1.000  C
  C265     1.0000 0.01383  0.06803  0.84480  Biso   1.000  C
  C266     1.0000 0.85915  0.97083  0.11517  Biso   1.000  C
  C267     1.0000 0.11337  0.81904  0.00464  Biso   1.000  C
  C268     1.0000 0.51594  0.08140  0.65572  Biso   1.000  C
  C269     1.0000 0.36110  0.96830  0.40253  Biso   1.000  C
  C270     1.0000 0.60979  0.81575  0.50324  Biso   1.000  C
  C271     1.0000 0.50961  0.58424  0.85343  Biso   1.000  C
  C272     1.0000 0.66546  0.47296  0.10263  Biso   1.000  C
  C273     1.0000 0.41015  0.32294  0.99850  Biso   1.000  C
  C274     1.0000 0.00014  0.56490  0.66670  Biso   1.000  C
  C275     1.0000 0.16903  0.47621  0.41216  Biso   1.000  C
  C276     1.0000 0.91097  0.31458  0.48939  Biso   1.000  C
  C277     1.0000 0.02396  0.87260  0.16497  Biso   1.000  C
  C278     1.0000 0.16230  0.96780  0.89901  Biso   1.000  C
  C279     1.0000 0.91256  0.12188  0.00168  Biso   1.000  C
  C280     1.0000 0.51583  0.87237  0.35832  Biso   1.000  C
  C281     1.0000 0.66274  0.96485  0.61678  Biso   1.000  C
  C282     1.0000 0.41446  0.13015  0.48932  Biso   1.000  C
  C283     1.0000 0.50892  0.36876  0.15002  Biso   1.000  C
  C284     1.0000 0.35693  0.47328  0.90460  Biso   1.000  C
  C285     1.0000 0.61717  0.62252  0.00874  Biso   1.000  C
  C286     1.0000 0.00867  0.37657  0.34634  Biso   1.000  C
  C287     1.0000 0.85193  0.45694  0.59989  Biso   1.000  C
  C288     1.0000 0.10819  0.63255  0.53130  Biso   1.000  C
  C289     1.0000 0.35159  0.84403  0.51162  Biso   1.000  C
  C290     1.0000 0.52164  0.32375  0.86977  Biso   1.000  C
  C291     1.0000 0.87905  0.47494  0.34333  Biso   1.000  C
  C292     1.0000 0.85724  0.83625  0.02909  Biso   1.000  C
  C293     1.0000 0.03363  0.31238  0.63190  Biso   1.000  C
  C294     1.0000 0.37429  0.48193  0.16429  Biso   1.000  C
  C295     1.0000 0.16980  0.34721  0.50618  Biso   1.000  C
  C296     1.0000 0.99216  0.81299  0.87926  Biso   1.000  C
  C297     1.0000 0.65130  0.97049  0.35721  Biso   1.000  C
  C298     1.0000 0.66918  0.33558  0.01390  Biso   1.000  C
  C299     1.0000 0.50326  0.82351  0.64016  Biso   1.000  C
  C300     1.0000 0.14927  0.98326  0.15995  Biso   1.000  C
  C301     1.0000 0.67061  0.10192  0.51504  Biso   1.000  C
  C302     1.0000 0.51708  0.62660  0.14355  Biso   1.000  C
  C303     1.0000 0.13956  0.48084  0.66409  Biso   1.000  C
  C304     1.0000 0.16839  0.10548  0.99240  Biso   1.000  C
  C305     1.0000 0.01082  0.63212  0.38156  Biso   1.000  C
  C306     1.0000 0.64522  0.46740  0.85077  Biso   1.000  C
  C307     1.0000 0.84949  0.59945  0.50289  Biso   1.000  C
  C308     1.0000 0.00199  0.12981  0.13189  Biso   1.000  C
  C309     1.0000 0.37294  0.98820  0.65832  Biso   1.000  C
  C310     1.0000 0.35740  0.60699  0.00634  Biso   1.000  C
  C311     1.0000 0.52031  0.12872  0.36648  Biso   1.000  C
  C312     1.0000 0.87295  0.96105  0.86011  Biso   1.000  C
  C313     1.0000 0.17023  0.48116  0.38061  Biso   1.000  C
  C314     1.0000 0.38187  0.13067  0.49194  Biso   1.000  C
  C315     1.0000 0.50854  0.33560  0.15208  Biso   1.000  C
  C316     1.0000 0.66620  0.47450  0.13301  Biso   1.000  C
  C317     1.0000 0.88053  0.12188  0.00310  Biso   1.000  C
  C318     1.0000 0.00757  0.34597  0.34369  Biso   1.000  C
  C319     1.0000 0.36009  0.97130  0.37154  Biso   1.000  C
  C320     1.0000 0.14021  0.63330  0.53086  Biso   1.000  C
  C321     1.0000 0.02645  0.84187  0.16607  Biso   1.000  C
  C322     1.0000 0.85882  0.97026  0.14758  Biso   1.000  C
  C323     1.0000 0.64897  0.62407  0.00711  Biso   1.000  C
  C324     1.0000 0.51326  0.84048  0.35741  Biso   1.000  C
  C325     1.0000 0.85175  0.45384  0.63110  Biso   1.000  C
  C326     1.0000 0.64148  0.81343  0.50102  Biso   1.000  C
  C327     1.0000 0.50846  0.61597  0.85352  Biso   1.000  C
  C328     1.0000 0.35708  0.47026  0.87342  Biso   1.000  C
  C329     1.0000 0.14552  0.81680  0.00398  Biso   1.000  C
  C330     1.0000 0.00121  0.59583  0.66900  Biso   1.000  C
  C331     1.0000 0.66485  0.96443  0.64790  Biso   1.000  C
  C332     1.0000 0.88031  0.31205  0.49043  Biso   1.000  C
  C333     1.0000 0.02005  0.09894  0.84140  Biso   1.000  C
  C334     1.0000 0.16162  0.97330  0.86818  Biso   1.000  C
  C335     1.0000 0.37840  0.32074  0.99943  Biso   1.000  C
  C336     1.0000 0.52172  0.11275  0.65489  Biso   1.000  C
  C337     1.0000 0.66850  0.46367  0.87093  Biso   1.000  C
  C338     1.0000 0.87052  0.62202  0.50209  Biso   1.000  C
  C339     1.0000 0.49849  0.84469  0.66099  Biso   1.000  C
  C340     1.0000 0.16246  0.48288  0.64364  Biso   1.000  C
  C341     1.0000 0.38107  0.62754  0.00454  Biso   1.000  C
  C342     1.0000 0.99407  0.83232  0.85509  Biso   1.000  C
  C343     1.0000 0.85289  0.96081  0.88315  Biso   1.000  C
  C344     1.0000 0.64966  0.12478  0.51235  Biso   1.000  C
  C345     1.0000 0.03534  0.33287  0.65458  Biso   1.000  C
  C346     1.0000 0.35118  0.98976  0.63553  Biso   1.000  C
  C347     1.0000 0.14666  0.12686  0.99141  Biso   1.000  C
  C348     1.0000 0.52275  0.34694  0.84959  Biso   1.000  C
  C349     1.0000 0.35403  0.48296  0.14281  Biso   1.000  C
  C350     1.0000 0.15043  0.32432  0.50135  Biso   1.000  C
  C351     1.0000 0.52123  0.10768  0.34443  Biso   1.000  C
  C352     1.0000 0.85735  0.47241  0.36419  Biso   1.000  C
  C353     1.0000 0.64765  0.31402  0.01254  Biso   1.000  C
  C354     1.0000 0.99896  0.10797  0.15410  Biso   1.000  C
  C355     1.0000 0.16925  0.97694  0.13803  Biso   1.000  C
  C356     1.0000 0.37217  0.82104  0.51403  Biso   1.000  C
  C357     1.0000 0.01581  0.61189  0.36022  Biso   1.000  C
  C358     1.0000 0.67230  0.96964  0.38069  Biso   1.000  C
  C359     1.0000 0.87903  0.81582  0.03070  Biso   1.000  C
  C360     1.0000 0.51963  0.60581  0.16570  Biso   1.000  C
  C361     1.0000 0.02081  0.12119  0.86206  Biso   1.000  C
  C362     1.0000 0.88088  0.96963  0.16979  Biso   1.000  C
  C363     1.0000 0.16513  0.83922  0.00090  Biso   1.000  C
  C364     1.0000 0.52446  0.13343  0.63278  Biso   1.000  C
  C365     1.0000 0.38341  0.97621  0.35286  Biso   1.000  C
  C366     1.0000 0.66285  0.83465  0.50294  Biso   1.000  C
  C367     1.0000 0.50811  0.63596  0.87713  Biso   1.000  C
  C368     1.0000 0.64437  0.47439  0.15465  Biso   1.000  C
  C369     1.0000 0.35629  0.34225  0.00194  Biso   1.000  C
  C370     1.0000 0.00193  0.61848  0.64919  Biso   1.000  C
  C371     1.0000 0.14845  0.47966  0.35927  Biso   1.000  C
  C372     1.0000 0.85803  0.33454  0.48851  Biso   1.000  C
  C373     1.0000 0.02704  0.81847  0.14644  Biso   1.000  C
  C374     1.0000 0.13952  0.97323  0.84561  Biso   1.000  C
  C375     1.0000 0.85929  0.10178  0.00666  Biso   1.000  C
  C376     1.0000 0.50972  0.81866  0.37767  Biso   1.000  C
  C377     1.0000 0.64190  0.96671  0.66788  Biso   1.000  C
  C378     1.0000 0.35942  0.10921  0.49136  Biso   1.000  C
  C379     1.0000 0.51038  0.31376  0.12939  Biso   1.000  C
  C380     1.0000 0.37864  0.47011  0.85261  Biso   1.000  C
  C381     1.0000 0.66994  0.60311  0.00129  Biso   1.000  C
  C382     1.0000 0.01048  0.32305  0.36424  Biso   1.000  C
  C383     1.0000 0.87280  0.45082  0.65376  Biso   1.000  C
  C384     1.0000 0.16281  0.61212  0.52804  Biso   1.000  C
  C385     1.0000 0.19502  0.12065  0.99090  Biso   1.000  C
  C386     1.0000 0.00273  0.15707  0.14837  Biso   1.000  C
  C387     1.0000 0.16640  0.98130  0.18729  Biso   1.000  C
  C388     1.0000 0.69928  0.11703  0.51373  Biso   1.000  C
  C389     1.0000 0.51985  0.15621  0.35207  Biso   1.000  C
  C390     1.0000 0.66664  0.96506  0.33224  Biso   1.000  C
  C391     1.0000 0.33151  0.62333  0.00402  Biso   1.000  C
  C392     1.0000 0.51582  0.65341  0.15780  Biso   1.000  C
  C393     1.0000 0.35940  0.48069  0.19079  Biso   1.000  C
  C394     1.0000 0.82323  0.61503  0.49894  Biso   1.000  C
  C395     1.0000 0.00752  0.65957  0.36629  Biso   1.000  C
  C396     1.0000 0.86409  0.47824  0.31668  Biso   1.000  C
  C397     1.0000 0.83101  0.82087  0.03164  Biso   1.000  C
  C398     1.0000 0.99077  0.78482  0.86666  Biso   1.000  C
  C399     1.0000 0.85671  0.95621  0.83487  Biso   1.000  C
  C400     1.0000 0.32471  0.83055  0.50928  Biso   1.000  C
  C401     1.0000 0.50202  0.79795  0.65513  Biso   1.000  C
  C402     1.0000 0.35703  0.98899  0.68504  Biso   1.000  C
  C403     1.0000 0.69635  0.32104  0.01134  Biso   1.000  C
  C404     1.0000 0.52397  0.29777  0.85247  Biso   1.000  C
  C405     1.0000 0.65816  0.46727  0.82218  Biso   1.000  C
  C406     1.0000 0.19848  0.33200  0.50675  Biso   1.000  C
  C407     1.0000 0.03746  0.28579  0.64653  Biso   1.000  C
  C408     1.0000 0.15246  0.48101  0.69227  Biso   1.000  C
  C409     1.0000 0.15381  0.97904  0.81796  Biso   1.000  C
  C410     1.0000 0.83254  0.11726  0.00623  Biso   1.000  C
  C411     1.0000 0.02634  0.79318  0.16350  Biso   1.000  C
  C412     1.0000 0.65578  0.96444  0.69686  Biso   1.000  C
  C413     1.0000 0.33392  0.12656  0.49407  Biso   1.000  C
  C414     1.0000 0.50797  0.79161  0.36006  Biso   1.000  C
  C415     1.0000 0.36349  0.47170  0.82520  Biso   1.000  C
  C416     1.0000 0.69717  0.61772  0.00569  Biso   1.000  C
  C417     1.0000 0.50891  0.28613  0.14454  Biso   1.000  C
  C418     1.0000 0.85602  0.44988  0.68019  Biso   1.000  C
  C419     1.0000 0.18958  0.62923  0.52698  Biso   1.000  C
  C420     1.0000 0.01157  0.29771  0.34621  Biso   1.000  C
  C421     1.0000 0.86622  0.96929  0.19666  Biso   1.000  C
  C422     1.0000 0.19376  0.82364  0.00240  Biso   1.000  C
  C423     1.0000 0.02681  0.14691  0.84607  Biso   1.000  C
  C424     1.0000 0.36998  0.97684  0.32445  Biso   1.000  C
  C425     1.0000 0.68933  0.81948  0.49670  Biso   1.000  C
  C426     1.0000 0.52721  0.16223  0.64794  Biso   1.000  C
  C427     1.0000 0.66032  0.47476  0.18184  Biso   1.000  C
  C428     1.0000 0.32996  0.32691  0.00463  Biso   1.000  C
  C429     1.0000 0.50809  0.66413  0.86264  Biso   1.000  C
  C430     1.0000 0.16505  0.48410  0.33341  Biso   1.000  C
  C431     1.0000 0.83099  0.31762  0.48373  Biso   1.000  C
  C432     1.0000 0.00522  0.64395  0.66649  Biso   1.000  C
  C433     1.0000 0.02353  0.11246  0.81343  Biso   1.000  C
  C434     1.0000 0.83226  0.97042  0.16329  Biso   1.000  C
  C435     1.0000 0.16175  0.78897  0.00536  Biso   1.000  C
  C436     1.0000 0.52369  0.12917  0.68098  Biso   1.000  C
  C437     1.0000 0.33421  0.97089  0.35267  Biso   1.000  C
  C438     1.0000 0.65563  0.78664  0.49393  Biso   1.000  C
  C439     1.0000 0.50722  0.63248  0.82768  Biso   1.000  C
  C440     1.0000 0.69339  0.47713  0.14864  Biso   1.000  C
  C441     1.0000 0.36211  0.29413  0.99794  Biso   1.000  C
  C442     1.0000 0.99958  0.60910  0.69698  Biso   1.000  C
  C443     1.0000 0.19758  0.48551  0.36598  Biso   1.000  C
  C444     1.0000 0.86429  0.28458  0.48765  Biso   1.000  C
  C445     1.0000 0.02557  0.82701  0.19418  Biso   1.000  C
  C446     1.0000 0.18671  0.97872  0.85111  Biso   1.000  C
  C447     1.0000 0.86303  0.14781  0.00080  Biso   1.000  C
  C448     1.0000 0.51673  0.82574  0.32924  Biso   1.000  C
  C449     1.0000 0.69075  0.96201  0.66468  Biso   1.000  C
  C450     1.0000 0.36688  0.15829  0.49450  Biso   1.000  C
  C451     1.0000 0.50733  0.31868  0.17814  Biso   1.000  C
  C452     1.0000 0.33069  0.46978  0.85765  Biso   1.000  C
  C453     1.0000 0.66465  0.65055  0.00928  Biso   1.000  C
  C454     1.0000 0.00506  0.33243  0.31533  Biso   1.000  C
  C455     1.0000 0.82477  0.45370  0.64552  Biso   1.000  C
  C456     1.0000 0.15495  0.66004  0.52739  Biso   1.000  C
  C457     1.0000 0.01354  0.62716  0.33391  Biso   1.000  C
  C458     1.0000 0.32308  0.98811  0.65114  Biso   1.000  C
  C459     1.0000 0.66283  0.28696  0.01235  Biso   1.000  C
  C460     1.0000 0.51879  0.62152  0.19266  Biso   1.000  C
  C461     1.0000 0.82505  0.95735  0.86869  Biso   1.000  C
  C462     1.0000 0.16799  0.29887  0.49781  Biso   1.000  C
  C463     1.0000 0.52026  0.12231  0.31760  Biso   1.000  C
  C464     1.0000 0.18894  0.48367  0.66107  Biso   1.000  C
  C465     1.0000 0.86535  0.78824  0.03120  Biso   1.000  C
  C466     1.0000 0.99825  0.12547  0.18044  Biso   1.000  C
  C467     1.0000 0.69258  0.45899  0.85185  Biso   1.000  C
  C468     1.0000 0.35431  0.79543  0.51250  Biso   1.000  C
  C469     1.0000 0.03744  0.31716  0.68039  Biso   1.000  C
  C470     1.0000 0.69928  0.96382  0.36644  Biso   1.000  C
  C471     1.0000 0.36518  0.65382  0.99885  Biso   1.000  C
  C472     1.0000 0.52768  0.33144  0.82148  Biso   1.000  C
  C473     1.0000 0.19675  0.97228  0.15172  Biso   1.000  C
  C474     1.0000 0.85512  0.64805  0.50022  Biso   1.000  C
  C475     1.0000 0.49568  0.83039  0.68837  Biso   1.000  C
  C476     1.0000 0.83078  0.47114  0.34768  Biso   1.000  C
  C477     1.0000 0.16059  0.15414  0.98999  Biso   1.000  C
  C478     1.0000 0.99123  0.81395  0.82913  Biso   1.000  C
  C479     1.0000 0.32637  0.48337  0.15855  Biso   1.000  C
  C480     1.0000 0.66795  0.15161  0.50992  Biso   1.000  C
  C481     1.0000 0.36723  0.76689  0.51862  Biso   1.000  C
  C482     1.0000 0.53002  0.34891  0.79546  Biso   1.000  C
  C483     1.0000 0.80365  0.46614  0.36457  Biso   1.000  C
  C484     1.0000 0.88400  0.76219  0.03075  Biso   1.000  C
  C485     1.0000 0.03958  0.33190  0.70800  Biso   1.000  C
  C486     1.0000 0.29941  0.48434  0.14125  Biso   1.000  C
  C487     1.0000 0.15138  0.27134  0.49432  Biso   1.000  C
  C488     1.0000 0.99026  0.82592  0.79992  Biso   1.000  C
  C489     1.0000 0.72566  0.96093  0.38333  Biso   1.000  C
  C490     1.0000 0.64598  0.25939  0.00977  Biso   1.000  C
  C491     1.0000 0.49012  0.84789  0.71382  Biso   1.000  C
  C492     1.0000 0.22029  0.96333  0.13281  Biso   1.000  C
  C493     1.0000 0.65215  0.17809  0.50736  Biso   1.000  C
  C494     1.0000 0.52257  0.60419  0.22044  Biso   1.000  C
  C495     1.0000 0.21736  0.48770  0.64833  Biso   1.000  C
  C496     1.0000 0.14468  0.18087  0.99367  Biso   1.000  C
  C497     1.0000 0.01661  0.61200  0.30646  Biso   1.000  C
  C498     1.0000 0.72083  0.45593  0.86774  Biso   1.000  C
  C499     1.0000 0.87078  0.67518  0.50214  Biso   1.000  C
  C500     1.0000 0.99725  0.10972  0.20853  Biso   1.000  C
  C501     1.0000 0.29580  0.98446  0.63387  Biso   1.000  C
  C502     1.0000 0.38108  0.68085  0.99810  Biso   1.000  C
  C503     1.0000 0.51924  0.10458  0.29125  Biso   1.000  C
  C504     1.0000 0.79829  0.95613  0.88415  Biso   1.000  C
  C505     1.0000 0.63961  0.47198  0.79661  Biso   1.000  C
  C506     1.0000 0.79579  0.59968  0.49691  Biso   1.000  C
  C507     1.0000 0.50292  0.76902  0.64162  Biso   1.000  C
  C508     1.0000 0.13506  0.47929  0.71723  Biso   1.000  C
  C509     1.0000 0.30266  0.61052  0.00852  Biso   1.000  C
  C510     1.0000 0.98997  0.75923  0.88383  Biso   1.000  C
  C511     1.0000 0.87078  0.95456  0.80724  Biso   1.000  C
  C512     1.0000 0.72740  0.09908  0.51396  Biso   1.000  C
  C513     1.0000 0.03955  0.25985  0.62773  Biso   1.000  C
  C514     1.0000 0.37221  0.98917  0.71189  Biso   1.000  C
  C515     1.0000 0.22195  0.10545  0.99291  Biso   1.000  C
  C516     1.0000 0.52829  0.26988  0.86667  Biso   1.000  C
  C517     1.0000 0.37761  0.47750  0.21670  Biso   1.000  C
  C518     1.0000 0.22434  0.34842  0.51218  Biso   1.000  C
  C519     1.0000 0.51893  0.18292  0.36844  Biso   1.000  C
  C520     1.0000 0.88162  0.48663  0.29146  Biso   1.000  C
  C521     1.0000 0.72323  0.33807  0.00767  Biso   1.000  C
  C522     1.0000 0.00731  0.18315  0.13107  Biso   1.000  C
  C523     1.0000 0.15104  0.98840  0.21421  Biso   1.000  C
  C524     1.0000 0.29735  0.84719  0.50406  Biso   1.000  C
  C525     1.0000 0.00215  0.68576  0.38302  Biso   1.000  C
  C526     1.0000 0.65267  0.96249  0.30407  Biso   1.000  C
  C527     1.0000 0.80292  0.83679  0.03059  Biso   1.000  C
  C528     1.0000 0.50961  0.67988  0.14166  Biso   1.000  C
  C529     1.0000 0.80649  0.10047  0.01194  Biso   1.000  C
  C530     1.0000 0.02701  0.76554  0.14806  Biso   1.000  C
  C531     1.0000 0.13626  0.98345  0.79224  Biso   1.000  C
  C532     1.0000 0.30735  0.11242  0.50082  Biso   1.000  C
  C533     1.0000 0.50381  0.76398  0.37555  Biso   1.000  C
  C534     1.0000 0.63674  0.96345  0.72265  Biso   1.000  C
  C535     1.0000 0.72508  0.60259  0.99933  Biso   1.000  C
  C536     1.0000 0.50722  0.25876  0.12900  Biso   1.000  C
  C537     1.0000 0.37817  0.46942  0.79693  Biso   1.000  C
  C538     1.0000 0.21768  0.61356  0.52148  Biso   1.000  C
  C539     1.0000 0.01656  0.27130  0.36160  Biso   1.000  C
  C540     1.0000 0.87279  0.44864  0.70650  Biso   1.000  C
  C541     1.0000 0.21948  0.83992  0.00161  Biso   1.000  C
  C542     1.0000 0.03198  0.17377  0.86334  Biso   1.000  C
  C543     1.0000 0.88389  0.96827  0.22263  Biso   1.000  C
  C544     1.0000 0.71734  0.83461  0.49529  Biso   1.000  C
  C545     1.0000 0.53175  0.18812  0.63030  Biso   1.000  C
  C546     1.0000 0.38810  0.97968  0.29853  Biso   1.000  C
  C547     1.0000 0.30423  0.34429  0.01407  Biso   1.000  C
  C548     1.0000 0.50785  0.69071  0.87997  Biso   1.000  C
  C549     1.0000 0.64389  0.47237  0.20903  Biso   1.000  C
  C550     1.0000 0.80413  0.33353  0.47777  Biso   1.000  C
  C551     1.0000 0.01089  0.67158  0.65260  Biso   1.000  C
  C552     1.0000 0.14931  0.48197  0.30628  Biso   1.000  C
  C553     1.0000 0.02011  0.09513  0.78879  Biso   1.000  C
  C554     1.0000 0.80416  0.97312  0.14841  Biso   1.000  C
  C555     1.0000 0.14579  0.76200  0.00599  Biso   1.000  C
  C556     1.0000 0.52260  0.11409  0.70935  Biso   1.000  C
  C557     1.0000 0.30488  0.97073  0.36586  Biso   1.000  C
  C558     1.0000 0.63695  0.76123  0.49174  Biso   1.000  C
  C559     1.0000 0.50452  0.61606  0.80104  Biso   1.000  C
  C560     1.0000 0.72048  0.47675  0.13341  Biso   1.000  C
  C561     1.0000 0.37970  0.26780  0.99239  Biso   1.000  C
  C562     1.0000 0.99444  0.59260  0.72363  Biso   1.000  C
  C563     1.0000 0.22540  0.48693  0.38276  Biso   1.000  C
  C564     1.0000 0.88153  0.25834  0.48864  Biso   1.000  C
  C565     1.0000 0.02248  0.84402  0.21986  Biso   1.000  C
  C566     1.0000 0.21447  0.98023  0.86631  Biso   1.000  C
  C567     1.0000 0.87880  0.17450  0.99184  Biso   1.000  C
  C568     1.0000 0.52255  0.84160  0.30297  Biso   1.000  C
  C569     1.0000 0.71768  0.96171  0.64893  Biso   1.000  C
  C570     1.0000 0.38285  0.18452  0.49328  Biso   1.000  C
  C571     1.0000 0.50803  0.33562  0.20437  Biso   1.000  C
  C572     1.0000 0.30190  0.46917  0.87243  Biso   1.000  C
  C573     1.0000 0.64809  0.67661  0.01209  Biso   1.000  C
  C574     1.0000 0.00355  0.35086  0.28981  Biso   1.000  C
  C575     1.0000 0.79702  0.45293  0.62948  Biso   1.000  C
  C576     1.0000 0.13753  0.68758  0.53005  Biso   1.000  C
  C577     1.0000 0.30142  0.48434  0.11020  Biso   1.000  C
  C578     1.0000 0.11966  0.27183  0.49349  Biso   1.000  C
  C579     1.0000 0.51810  0.07337  0.29411  Biso   1.000  C
  C580     1.0000 0.80415  0.46219  0.39573  Biso   1.000  C
  C581     1.0000 0.61415  0.26058  0.01062  Biso   1.000  C
  C582     1.0000 0.99878  0.07855  0.20903  Biso   1.000  C
  C583     1.0000 0.21927  0.96250  0.10165  Biso   1.000  C
  C584     1.0000 0.39893  0.76656  0.52542  Biso   1.000  C
  C585     1.0000 0.02176  0.58069  0.30543  Biso   1.000  C
  C586     1.0000 0.72500  0.96476  0.41419  Biso   1.000  C
  C587     1.0000 0.91509  0.76557  0.03193  Biso   1.000  C
  C588     1.0000 0.52063  0.57267  0.21857  Biso   1.000  C
  C589     1.0000 0.72355  0.45902  0.89927  Biso   1.000  C
  C590     1.0000 0.90154  0.67561  0.50710  Biso   1.000  C
  C591     1.0000 0.49117  0.87837  0.71247  Biso   1.000  C
  C592     1.0000 0.21901  0.48777  0.61715  Biso   1.000  C
  C593     1.0000 0.41250  0.68045  0.99853  Biso   1.000  C
  C594     1.0000 0.99237  0.85850  0.79816  Biso   1.000  C
  C595     1.0000 0.80026  0.95737  0.91568  Biso   1.000  C
  C596     1.0000 0.62010  0.17884  0.50551  Biso   1.000  C
  C597     1.0000 0.03960  0.36370  0.70894  Biso   1.000  C
  C598     1.0000 0.29669  0.98223  0.60238  Biso   1.000  C
  C599     1.0000 0.11400  0.18062  0.99693  Biso   1.000  C
  C600     1.0000 0.53259  0.37982  0.79928  Biso   1.000  C
  C601     1.0000 0.21583  0.97914  0.89768  Biso   1.000  C
  C602     1.0000 0.91031  0.17415  0.99045  Biso   1.000  C
  C603     1.0000 0.02286  0.87499  0.21927  Biso   1.000  C
  C604     1.0000 0.71867  0.96023  0.61708  Biso   1.000  C
  C605     1.0000 0.41398  0.18395  0.49224  Biso   1.000  C
  C606     1.0000 0.52482  0.87327  0.30264  Biso   1.000  C
  C607     1.0000 0.30236  0.46778  0.90307  Biso   1.000  C
  C608     1.0000 0.61675  0.67639  0.01348  Biso   1.000  C
  C609     1.0000 0.50928  0.36680  0.20572  Biso   1.000  C
  C610     1.0000 0.79699  0.45265  0.59797  Biso   1.000  C
  C611     1.0000 0.10460  0.68592  0.52631  Biso   1.000  C
  C612     1.0000 0.00491  0.38249  0.29179  Biso   1.000  C
  C613     1.0000 0.80385  0.97384  0.11694  Biso   1.000  C
  C614     1.0000 0.11423  0.76284  0.00458  Biso   1.000  C
  C615     1.0000 0.01223  0.06500  0.78985  Biso   1.000  C
  C616     1.0000 0.30493  0.96809  0.39742  Biso   1.000  C
  C617     1.0000 0.60575  0.76244  0.49286  Biso   1.000  C
  C618     1.0000 0.51610  0.08279  0.70937  Biso   1.000  C
  C619     1.0000 0.72133  0.47343  0.10315  Biso   1.000  C
  C620     1.0000 0.41128  0.26831  0.99291  Biso   1.000  C
  C621     1.0000 0.50584  0.58429  0.80052  Biso   1.000  C
  C622     1.0000 0.22381  0.48156  0.41411  Biso   1.000  C
  C623     1.0000 0.91315  0.26063  0.49012  Biso   1.000  C
  C624     1.0000 0.98984  0.56065  0.72034  Biso   1.000  C
  C625     1.0000 0.02869  0.17469  0.89437  Biso   1.000  C
  C626     1.0000 0.91553  0.96871  0.22171  Biso   1.000  C
  C627     1.0000 0.21909  0.87101  0.99950  Biso   1.000  C
  C628     1.0000 0.52987  0.18514  0.59853  Biso   1.000  C
  C629     1.0000 0.41833  0.98229  0.30236  Biso   1.000  C
  C630     1.0000 0.71755  0.86591  0.49946  Biso   1.000  C
  C631     1.0000 0.50859  0.68708  0.91149  Biso   1.000  C
  C632     1.0000 0.61163  0.46932  0.20838  Biso   1.000  C
  C633     1.0000 0.30387  0.37603  0.01755  Biso   1.000  C
  C634     1.0000 0.00839  0.67389  0.62065  Biso   1.000  C
  C635     1.0000 0.11812  0.47662  0.30468  Biso   1.000  C
  C636     1.0000 0.80452  0.36503  0.48055  Biso   1.000  C
  C637     1.0000 0.02655  0.76476  0.11667  Biso   1.000  C
  C638     1.0000 0.10521  0.97913  0.79154  Biso   1.000  C
  C639     1.0000 0.80702  0.06971  0.01218  Biso   1.000  C
  C640     1.0000 0.50287  0.76307  0.40687  Biso   1.000  C
  C641     1.0000 0.60577  0.96642  0.71951  Biso   1.000  C
  C642     1.0000 0.30527  0.08209  0.49972  Biso   1.000  C
  C643     1.0000 0.51030  0.26035  0.09758  Biso   1.000  C
  C644     1.0000 0.41012  0.47040  0.79789  Biso   1.000  C
  C645     1.0000 0.72377  0.57258  0.98999  Biso   1.000  C
  C646     1.0000 0.01882  0.27170  0.39306  Biso   1.000  C
  C647     1.0000 0.90474  0.44587  0.70619  Biso   1.000  C
  C648     1.0000 0.21752  0.58209  0.51861  Biso   1.000  C
  C649     1.0000 0.00103  0.68454  0.41352  Biso   1.000  C
  C650     1.0000 0.40450  0.98932  0.71257  Biso   1.000  C
  C651     1.0000 0.72054  0.37047  0.00729  Biso   1.000  C
  C652     1.0000 0.50658  0.67849  0.11113  Biso   1.000  C
  C653     1.0000 0.90134  0.95991  0.80451  Biso   1.000  C
  C654     1.0000 0.22405  0.37936  0.51549  Biso   1.000  C
  C655     1.0000 0.51766  0.18172  0.40074  Biso   1.000  C
  C656     1.0000 0.10361  0.47731  0.71497  Biso   1.000  C
  C657     1.0000 0.80350  0.86772  0.02945  Biso   1.000  C
  C658     1.0000 0.00953  0.18238  0.09868  Biso   1.000  C
  C659     1.0000 0.60993  0.47449  0.80171  Biso   1.000  C
  C660     1.0000 0.29956  0.87836  0.50267  Biso   1.000  C
  C661     1.0000 0.03979  0.26122  0.59694  Biso   1.000  C
  C662     1.0000 0.62122  0.96720  0.30320  Biso   1.000  C
  C663     1.0000 0.30079  0.57805  0.01164  Biso   1.000  C
  C664     1.0000 0.52462  0.26993  0.89809  Biso   1.000  C
  C665     1.0000 0.11817  0.99149  0.21283  Biso   1.000  C
  C666     1.0000 0.79484  0.56835  0.49590  Biso   1.000  C
  C667     1.0000 0.50749  0.76916  0.61019  Biso   1.000  C
  C668     1.0000 0.91379  0.49268  0.29353  Biso   1.000  C
  C669     1.0000 0.22182  0.07475  0.99168  Biso   1.000  C
  C670     1.0000 0.99047  0.76209  0.91516  Biso   1.000  C
  C671     1.0000 0.40924  0.47823  0.21527  Biso   1.000  C
  C672     1.0000 0.72608  0.06810  0.51489  Biso   1.000  C
  C673     1.0000 0.20020  0.98428  0.80469  Biso   1.000  C
  C674     1.0000 0.81847  0.16473  0.00231  Biso   1.000  C
  C675     1.0000 0.02488  0.78371  0.21152  Biso   1.000  C
  C676     1.0000 0.70182  0.96008  0.71377  Biso   1.000  C
  C677     1.0000 0.32003  0.17427  0.49575  Biso   1.000  C
  C678     1.0000 0.51355  0.77930  0.31376  Biso   1.000  C
  C679     1.0000 0.31636  0.47128  0.81048  Biso   1.000  C
  C680     1.0000 0.71038  0.66476  0.01218  Biso   1.000  C
  C681     1.0000 0.50977  0.27165  0.19018  Biso   1.000  C
  C682     1.0000 0.80875  0.45167  0.69141  Biso   1.000  C
  C683     1.0000 0.20170  0.67527  0.52368  Biso   1.000  C
  C684     1.0000 0.00560  0.28521  0.29794  Biso   1.000  C
  C685     1.0000 0.81987  0.96616  0.20999  Biso   1.000  C
  C686     1.0000 0.20906  0.77785  0.00160  Biso   1.000  C
  C687     1.0000 0.03128  0.16011  0.79911  Biso   1.000  C
  C688     1.0000 0.32365  0.97265  0.30596  Biso   1.000  C
  C689     1.0000 0.70276  0.77431  0.49196  Biso   1.000  C
  C690     1.0000 0.52802  0.17576  0.69470  Biso   1.000  C
  C691     1.0000 0.70746  0.47499  0.19632  Biso   1.000  C
  C692     1.0000 0.31387  0.27937  0.00248  Biso   1.000  C
  C693     1.0000 0.50640  0.67842  0.81627  Biso   1.000  C
  C694     1.0000 0.21100  0.48850  0.31928  Biso   1.000  C
  C695     1.0000 0.81812  0.27105  0.48701  Biso   1.000  C
  C696     1.0000 0.99847  0.65552  0.71312  Biso   1.000  C
  C697     1.0000 0.71405  0.95770  0.32173  Biso   1.000  C
  C698     1.0000 0.31795  0.66988  0.99670  Biso   1.000  C
  C699     1.0000 0.04278  0.26921  0.69355  Biso   1.000  C
  C700     1.0000 0.21361  0.97484  0.19694  Biso   1.000  C
  C701     1.0000 0.80605  0.66097  0.49643  Biso   1.000  C
  C702     1.0000 0.52782  0.28575  0.80483  Biso   1.000  C
  C703     1.0000 0.81746  0.47371  0.29988  Biso   1.000  C
  C704     1.0000 0.20764  0.17029  0.99271  Biso   1.000  C
  C705     1.0000 0.49757  0.78453  0.70329  Biso   1.000  C
  C706     1.0000 0.31284  0.48309  0.20585  Biso   1.000  C
  C707     1.0000 0.71575  0.16162  0.50750  Biso   1.000  C
  C708     1.0000 0.98929  0.76751  0.82005  Biso   1.000  C
  C709     1.0000 0.31067  0.98777  0.69937  Biso   1.000  C
  C710     1.0000 0.71218  0.27469  0.00931  Biso   1.000  C
  C711     1.0000 0.00886  0.67516  0.31988  Biso   1.000  C
  C712     1.0000 0.81027  0.95147  0.82277  Biso   1.000  C
  C713     1.0000 0.21393  0.28548  0.49812  Biso   1.000  C
  C714     1.0000 0.51587  0.66685  0.20658  Biso   1.000  C
  C715     1.0000 0.20062  0.48169  0.70844  Biso   1.000  C
  C716     1.0000 0.81861  0.77399  0.03229  Biso   1.000  C
  C717     1.0000 0.51933  0.16910  0.30394  Biso   1.000  C
  C718     1.0000 0.70502  0.46344  0.80380  Biso   1.000  C
  C719     1.0000 0.30764  0.78487  0.50792  Biso   1.000  C
  C720     1.0000 0.99878  0.17335  0.19377  Biso   1.000  C
  C721     1.0000 0.53455  0.77984  0.29094  Biso   1.000  C
  C722     1.0000 0.31810  0.49135  0.78495  Biso   1.000  C
  C723     1.0000 0.79092  0.27742  0.50158  Biso   1.000  C
  C724     1.0000 0.00469  0.75926  0.20687  Biso   1.000  C
  C725     1.0000 0.78121  0.46934  0.68832  Biso   1.000  C
  C726     1.0000 0.28403  0.28703  0.99523  Biso   1.000  C
  C727     1.0000 0.99174  0.25783  0.30451  Biso   1.000  C
  C728     1.0000 0.22591  0.00066  0.80917  Biso   1.000  C
  C729     1.0000 0.72598  0.77585  0.51306  Biso   1.000  C
  C730     1.0000 0.49645  0.27741  0.21782  Biso   1.000  C
  C731     1.0000 0.72714  0.93958  0.71218  Biso   1.000  C
  C732     1.0000 0.23278  0.78083  0.98069  Biso   1.000  C
  C733     1.0000 0.51045  0.17326  0.72074  Biso   1.000  C
  C734     1.0000 0.70420  0.45460  0.22046  Biso   1.000  C
  C735     1.0000 0.19468  0.70105  0.50594  Biso   1.000  C
  C736     1.0000 0.01748  0.18848  0.80383  Biso   1.000  C
  C737     1.0000 0.23923  0.47481  0.32113  Biso   1.000  C
  C738     1.0000 0.73771  0.65982  0.02664  Biso   1.000  C
  C739     1.0000 0.01348  0.65270  0.74081  Biso   1.000  C
  C740     1.0000 0.79357  0.94881  0.20521  Biso   1.000  C
  C741     1.0000 0.29268  0.16892  0.48181  Biso   1.000  C
  C742     1.0000 0.52014  0.67292  0.78893  Biso   1.000  C
  C743     1.0000 0.29921  0.95337  0.30801  Biso   1.000  C
  C744     1.0000 0.82685  0.19558  0.01146  Biso   1.000  C
  C745     1.0000 0.02199  0.70342  0.32498  Biso   1.000  C
  C746     1.0000 0.28356  0.00424  0.69506  Biso   1.000  C
  C747     1.0000 0.73685  0.27587  0.02843  Biso   1.000  C
  C748     1.0000 0.52795  0.69484  0.20178  Biso   1.000  C
  C749     1.0000 0.80945  0.93164  0.79925  Biso   1.000  C
  C750     1.0000 0.23909  0.28566  0.51778  Biso   1.000  C
  C751     1.0000 0.53832  0.16589  0.27877  Biso   1.000  C
  C752     1.0000 0.22899  0.46774  0.70353  Biso   1.000  C
  C753     1.0000 0.79369  0.77934  0.01430  Biso   1.000  C
  C754     1.0000 0.01503  0.17082  0.22057  Biso   1.000  C
  C755     1.0000 0.69806  0.44988  0.77540  Biso   1.000  C
  C756     1.0000 0.27957  0.78782  0.52198  Biso   1.000  C
  C757     1.0000 0.02683  0.24335  0.68968  Biso   1.000  C
  C758     1.0000 0.71327  0.97747  0.29652  Biso   1.000  C
  C759     1.0000 0.29582  0.67322  0.01930  Biso   1.000  C
  C760     1.0000 0.54676  0.28780  0.77977  Biso   1.000  C
  C761     1.0000 0.24464  0.98234  0.18991  Biso   1.000  C
  C762     1.0000 0.80941  0.68768  0.48029  Biso   1.000  C
  C763     1.0000 0.47798  0.78671  0.72822  Biso   1.000  C
  C764     1.0000 0.78868  0.48233  0.30711  Biso   1.000  C
  C765     1.0000 0.23118  0.16632  0.01326  Biso   1.000  C
  C766     1.0000 0.97230  0.76639  0.79345  Biso   1.000  C
  C767     1.0000 0.31937  0.50027  0.23320  Biso   1.000  C
  C768     1.0000 0.71038  0.18641  0.48734  Biso   1.000  C
  C769     1.0000 0.48955  0.70591  0.82064  Biso   1.000  C
  C770     1.0000 0.81033  0.43589  0.71898  Biso   1.000  C
  C771     1.0000 0.70237  0.75088  0.47141  Biso   1.000  C
  C772     1.0000 0.98222  0.68264  0.70900  Biso   1.000  C
  C773     1.0000 0.28832  0.45457  0.81296  Biso   1.000  C
  C774     1.0000 0.20661  0.75195  0.01755  Biso   1.000  C
  C775     1.0000 0.04431  0.15322  0.77084  Biso   1.000  C
  C776     1.0000 0.69729  0.97271  0.74222  Biso   1.000  C
  C777     1.0000 0.82385  0.24319  0.47301  Biso   1.000  C
  C778     1.0000 0.54385  0.20191  0.69018  Biso   1.000  C
  C779     1.0000 0.19854  0.96523  0.77876  Biso   1.000  C
  C780     1.0000 0.31983  0.25129  0.01312  Biso   1.000  C
  C781     1.0000 0.52544  0.24505  0.18683  Biso   1.000  C
  C782     1.0000 0.20462  0.50445  0.29344  Biso   1.000  C
  C783     1.0000 0.32554  0.20189  0.50926  Biso   1.000  C
  C784     1.0000 0.01884  0.28854  0.26975  Biso   1.000  C
  C785     1.0000 0.73466  0.49159  0.19503  Biso   1.000  C
  C786     1.0000 0.78733  0.15946  0.99448  Biso   1.000  C
  C787     1.0000 0.04075  0.78512  0.23859  Biso   1.000  C
  C788     1.0000 0.32716  0.99038  0.28030  Biso   1.000  C
  C789     1.0000 0.23107  0.67411  0.53562  Biso   1.000  C
  C790     1.0000 0.49138  0.75616  0.31369  Biso   1.000  C
  C791     1.0000 0.82366  0.97933  0.23785  Biso   1.000  C
  C792     1.0000 0.70582  0.69409  0.00303  Biso   1.000  C
  C793     1.0000 0.50062  0.19508  0.30658  Biso   1.000  C
  C794     1.0000 0.28360  0.47054  0.20294  Biso   1.000  C
  C795     1.0000 0.20877  0.26243  0.47633  Biso   1.000  C
  C796     1.0000 0.98318  0.20111  0.18735  Biso   1.000  C
  C797     1.0000 0.82471  0.46536  0.27120  Biso   1.000  C
  C798     1.0000 0.70983  0.25020  0.99027  Biso   1.000  C
  C799     1.0000 0.99894  0.67010  0.29026  Biso   1.000  C
  C800     1.0000 0.20886  0.96588  0.22686  Biso   1.000  C
  C801     1.0000 0.31274  0.75656  0.49223  Biso   1.000  C
  C802     1.0000 0.50485  0.66223  0.23537  Biso   1.000  C
  C803     1.0000 0.73944  0.93755  0.32304  Biso   1.000  C
  C804     1.0000 0.81965  0.74734  0.04828  Biso   1.000  C
  C805     1.0000 0.51913  0.76038  0.70424  Biso   1.000  C
  C806     1.0000 0.73453  0.47478  0.80699  Biso   1.000  C
  C807     1.0000 0.78000  0.65919  0.51392  Biso   1.000  C
  C808     1.0000 0.00626  0.74077  0.82552  Biso   1.000  C
  C809     1.0000 0.19565  0.49406  0.73805  Biso   1.000  C
  C810     1.0000 0.31477  0.68763  0.97144  Biso   1.000  C
  C811     1.0000 0.05886  0.27057  0.72095  Biso   1.000  C
  C812     1.0000 0.78680  0.97254  0.82450  Biso   1.000  C
  C813     1.0000 0.74425  0.16143  0.52243  Biso   1.000  C
  C814     1.0000 0.51035  0.25970  0.80563  Biso   1.000  C
  C815     1.0000 0.31577  0.97330  0.72832  Biso   1.000  C
  C816     1.0000 0.20491  0.19696  0.97668  Biso   1.000  C
  C817     1.0000 0.01984  0.20972  0.78269  Biso   1.000  C
  C818     1.0000 0.77452  0.94549  0.22792  Biso   1.000  C
  C819     1.0000 0.25444  0.75974  0.98102  Biso   1.000  C
  C820     1.0000 0.51358  0.19442  0.74153  Biso   1.000  C
  C821     1.0000 0.27820  0.95460  0.28660  Biso   1.000  C
  C822     1.0000 0.74634  0.75334  0.51554  Biso   1.000  C
  C823     1.0000 0.51759  0.69427  0.76780  Biso   1.000  C
  C824     1.0000 0.72794  0.45079  0.23912  Biso   1.000  C
  C825     1.0000 0.26446  0.26550  0.99327  Biso   1.000  C
  C826     1.0000 0.01326  0.67321  0.76298  Biso   1.000  C
  C827     1.0000 0.25835  0.47692  0.29888  Biso   1.000  C
  C828     1.0000 0.77253  0.25403  0.50398  Biso   1.000  C
  C829     1.0000 0.99929  0.73994  0.22925  Biso   1.000  C
  C830     1.0000 0.24819  0.00024  0.78888  Biso   1.000  C
  C831     1.0000 0.80517  0.21613  0.01089  Biso   1.000  C
  C832     1.0000 0.53244  0.75731  0.26955  Biso   1.000  C
  C833     1.0000 0.74582  0.93738  0.73538  Biso   1.000  C
  C834     1.0000 0.27030  0.18933  0.48496  Biso   1.000  C
  C835     1.0000 0.49997  0.25791  0.24068  Biso   1.000  C
  C836     1.0000 0.29369  0.49506  0.76721  Biso   1.000  C
  C837     1.0000 0.75781  0.68163  0.03124  Biso   1.000  C
  C838     1.0000 0.99066  0.23673  0.28262  Biso   1.000  C
  C839     1.0000 0.76084  0.46940  0.70987  Biso   1.000  C
  C840     1.0000 0.21498  0.72179  0.50060  Biso   1.000  C
  C841     1.0000 0.22131  0.96735  0.75777  Biso   1.000  C
  C842     1.0000 0.76730  0.18125  0.99502  Biso   1.000  C
  C843     1.0000 0.03570  0.76414  0.26001  Biso   1.000  C
  C844     1.0000 0.71528  0.96682  0.76486  Biso   1.000  C
  C845     1.0000 0.30408  0.22225  0.50908  Biso   1.000  C
  C846     1.0000 0.49215  0.73495  0.29217  Biso   1.000  C
  C847     1.0000 0.26561  0.46035  0.79294  Biso   1.000  C
  C848     1.0000 0.72578  0.71574  0.00885  Biso   1.000  C
  C849     1.0000 0.52665  0.22564  0.20891  Biso   1.000  C
  C850     1.0000 0.78958  0.43835  0.74100  Biso   1.000  C
  C851     1.0000 0.25133  0.69516  0.52766  Biso   1.000  C
  C852     1.0000 0.01660  0.26706  0.24881  Biso   1.000  C
  C853     1.0000 0.80313  0.97544  0.26020  Biso   1.000  C
  C854     1.0000 0.22806  0.73070  0.01528  Biso   1.000  C
  C855     1.0000 0.04745  0.17598  0.75167  Biso   1.000  C
  C856     1.0000 0.30562  0.99196  0.25882  Biso   1.000  C
  C857     1.0000 0.72320  0.72845  0.47365  Biso   1.000  C
  C858     1.0000 0.54426  0.22417  0.71097  Biso   1.000  C
  C859     1.0000 0.75667  0.48808  0.21623  Biso   1.000  C
  C860     1.0000 0.29823  0.22993  0.01477  Biso   1.000  C
  C861     1.0000 0.48869  0.72484  0.79784  Biso   1.000  C
  C862     1.0000 0.22290  0.50261  0.26977  Biso   1.000  C
  C863     1.0000 0.80474  0.22081  0.47676  Biso   1.000  C
  C864     1.0000 0.98038  0.70149  0.73128  Biso   1.000  C
  C865     1.0000 0.71816  0.44684  0.75305  Biso   1.000  C
  C866     1.0000 0.78917  0.71033  0.48113  Biso   1.000  C
  C867     1.0000 0.47954  0.76626  0.75155  Biso   1.000  C
  C868     1.0000 0.24993  0.47093  0.72374  Biso   1.000  C
  C869     1.0000 0.27545  0.69547  0.01789  Biso   1.000  C
  C870     1.0000 0.97526  0.74447  0.77375  Biso   1.000  C
  C871     1.0000 0.78460  0.92949  0.78217  Biso   1.000  C
  C872     1.0000 0.73103  0.20757  0.48373  Biso   1.000  C
  C873     1.0000 0.02561  0.22159  0.70951  Biso   1.000  C
  C874     1.0000 0.26326  0.00475  0.71728  Biso   1.000  C
  C875     1.0000 0.25210  0.18791  0.01759  Biso   1.000  C
  C876     1.0000 0.54836  0.26579  0.75896  Biso   1.000  C
  C877     1.0000 0.29762  0.50269  0.25257  Biso   1.000  C
  C878     1.0000 0.25780  0.26252  0.51600  Biso   1.000  C
  C879     1.0000 0.53852  0.18747  0.25687  Biso   1.000  C
  C880     1.0000 0.76723  0.47907  0.28513  Biso   1.000  C
  C881     1.0000 0.75776  0.25412  0.02834  Biso   1.000  C
  C882     1.0000 0.01335  0.19300  0.23984  Biso   1.000  C
  C883     1.0000 0.26495  0.98246  0.21202  Biso   1.000  C
  C884     1.0000 0.25869  0.76750  0.52048  Biso   1.000  C
  C885     1.0000 0.02198  0.72493  0.30411  Biso   1.000  C
  C886     1.0000 0.73421  0.97586  0.27623  Biso   1.000  C
  C887     1.0000 0.77094  0.76028  0.01274  Biso   1.000  C
  C888     1.0000 0.52609  0.71654  0.22225  Biso   1.000  C
  C889     1.0000 0.76098  0.93686  0.30125  Biso   1.000  C
  C890     1.0000 0.29150  0.70866  0.97074  Biso   1.000  C
  C891     1.0000 0.05782  0.24845  0.74084  Biso   1.000  C
  C892     1.0000 0.23139  0.96102  0.24634  Biso   1.000  C
  C893     1.0000 0.75969  0.68170  0.51350  Biso   1.000  C
  C894     1.0000 0.51013  0.23922  0.78312  Biso   1.000  C
  C895     1.0000 0.80301  0.46425  0.24988  Biso   1.000  C
  C896     1.0000 0.22598  0.21762  0.98091  Biso   1.000  C
  C897     1.0000 0.52028  0.74183  0.72723  Biso   1.000  C
  C898     1.0000 0.26258  0.47626  0.22482  Biso   1.000  C
  C899     1.0000 0.76585  0.18000  0.51404  Biso   1.000  C
  C900     1.0000 0.00577  0.71877  0.80565  Biso   1.000  C
  C901     1.0000 0.29409  0.97454  0.74970  Biso   1.000  C
  C902     1.0000 0.73047  0.23029  0.99077  Biso   1.000  C
  C903     1.0000 0.00124  0.69183  0.26977  Biso   1.000  C
  C904     1.0000 0.76318  0.97196  0.80606  Biso   1.000  C
  C905     1.0000 0.23044  0.24132  0.47521  Biso   1.000  C
  C906     1.0000 0.50462  0.68371  0.25645  Biso   1.000  C
  C907     1.0000 0.21820  0.49566  0.75813  Biso   1.000  C
  C908     1.0000 0.79709  0.72819  0.04563  Biso   1.000  C
  C909     1.0000 0.50289  0.21575  0.28404  Biso   1.000  C
  C910     1.0000 0.75325  0.47347  0.78403  Biso   1.000  C
  C911     1.0000 0.29062  0.73625  0.49345  Biso   1.000  C
  C912     1.0000 0.98511  0.22519  0.20721  Biso   1.000  C
  C913     1.0000 0.76607  0.45636  0.73531  Biso   1.000  C
  C914     1.0000 0.74394  0.73048  0.49677  Biso   1.000  C
  C915     1.0000 0.50293  0.71964  0.77261  Biso   1.000  C
  C916     1.0000 0.26819  0.48141  0.77214  Biso   1.000  C
  C917     1.0000 0.25272  0.73537  0.99881  Biso   1.000  C
  C918     1.0000 0.99604  0.69768  0.75679  Biso   1.000  C
  C919     1.0000 0.74010  0.95135  0.76194  Biso   1.000  C
  C920     1.0000 0.77972  0.22611  0.49249  Biso   1.000  C
  C921     1.0000 0.03728  0.20419  0.75906  Biso   1.000  C
  C922     1.0000 0.24380  0.98699  0.76258  Biso   1.000  C
  C923     1.0000 0.27055  0.23658  0.00365  Biso   1.000  C
  C924     1.0000 0.53004  0.21877  0.73613  Biso   1.000  C
  C925     1.0000 0.25047  0.49197  0.27442  Biso   1.000  C
  C926     1.0000 0.27653  0.21643  0.49620  Biso   1.000  C
  C927     1.0000 0.51523  0.23319  0.23571  Biso   1.000  C
  C928     1.0000 0.75337  0.46689  0.23569  Biso   1.000  C
  C929     1.0000 0.77628  0.20942  0.00308  Biso   1.000  C
  C930     1.0000 0.00236  0.24194  0.25618  Biso   1.000  C
  C931     1.0000 0.28024  0.97375  0.26334  Biso   1.000  C
  C932     1.0000 0.24226  0.71840  0.51077  Biso   1.000  C
  C933     1.0000 0.01542  0.74091  0.25370  Biso   1.000  C
  C934     1.0000 0.77945  0.95734  0.25474  Biso   1.000  C
  C935     1.0000 0.75235  0.70878  0.02172  Biso   1.000  C
  C936     1.0000 0.51512  0.73404  0.27221  Biso   1.000  C
  C937     1.0000 0.75439  0.23181  0.00793  Biso   1.000  C
  C938     1.0000 0.01122  0.71891  0.27676  Biso   1.000  C
  C939     1.0000 0.26839  0.98979  0.74296  Biso   1.000  C
  C940     1.0000 0.25418  0.24070  0.49533  Biso   1.000  C
  C941     1.0000 0.51348  0.71156  0.24854  Biso   1.000  C
  C942     1.0000 0.76211  0.94956  0.78535  Biso   1.000  C
  C943     1.0000 0.77200  0.73349  0.02813  Biso   1.000  C
  C944     1.0000 0.52021  0.21180  0.25976  Biso   1.000  C
  C945     1.0000 0.24607  0.48506  0.74998  Biso   1.000  C
  C946     1.0000 0.26409  0.74192  0.50703  Biso   1.000  C
  C947     1.0000 0.00025  0.22002  0.23304  Biso   1.000  C
  C948     1.0000 0.74569  0.45938  0.75853  Biso   1.000  C
  C949     1.0000 0.27172  0.71120  0.99354  Biso   1.000  C
  C950     1.0000 0.04075  0.22440  0.73549  Biso   1.000  C
  C951     1.0000 0.75757  0.95576  0.27794  Biso   1.000  C
  C952     1.0000 0.76577  0.70685  0.49914  Biso   1.000  C
  C953     1.0000 0.52929  0.24120  0.76002  Biso   1.000  C
  C954     1.0000 0.25848  0.97103  0.23921  Biso   1.000  C
  C955     1.0000 0.24841  0.21408  0.00174  Biso   1.000  C
  C956     1.0000 0.49987  0.74291  0.74897  Biso   1.000  C
  C957     1.0000 0.77402  0.46707  0.25844  Biso   1.000  C
  C958     1.0000 0.75780  0.20350  0.49684  Biso   1.000  C
  C959     1.0000 0.99195  0.72040  0.77916  Biso   1.000  C
  C960     1.0000 0.27017  0.48990  0.25000  Biso   1.000  C
  Cu1      1.0000 0.00608  0.46546  0.65818  Biso   1.000  Cu
  Cu2      1.0000 0.66761  0.96880  0.51474  Biso   1.000  Cu
  Cu3      1.0000 0.51469  0.62442  0.00796  Biso   1.000  Cu
  Cu4      1.0000 0.51202  0.47924  0.85601  Biso   1.000  Cu
  Cu5      1.0000 0.16294  0.97397  0.00017  Biso   1.000  Cu
  Cu6      1.0000 0.00538  0.62590  0.51551  Biso   1.000  Cu
  Cu7      1.0000 0.50651  0.97998  0.66104  Biso   1.000  Cu
  Cu8      1.0000 0.85264  0.46573  0.49857  Biso   1.000  Cu
  Cu9      1.0000 0.01536  0.12328  0.99700  Biso   1.000  Cu
  Cu10     1.0000 0.00608  0.96428  0.84967  Biso   1.000  Cu
  Cu11     1.0000 0.35605  0.47647  0.00623  Biso   1.000  Cu
  Cu12     1.0000 0.51691  0.12630  0.50102  Biso   1.000  Cu
  Cu13     1.0000 0.01356  0.47834  0.35421  Biso   1.000  Cu
  Cu14     1.0000 0.35465  0.97849  0.50396  Biso   1.000  Cu
  Cu15     1.0000 0.51257  0.31728  0.99936  Biso   1.000  Cu
  Cu16     1.0000 0.50907  0.47280  0.15649  Biso   1.000  Cu
  Cu17     1.0000 0.85779  0.96914  0.01720  Biso   1.000  Cu
  Cu18     1.0000 0.01448  0.32149  0.49985  Biso   1.000  Cu
  Cu19     1.0000 0.51890  0.97708  0.35676  Biso   1.000  Cu
  Cu20     1.0000 0.16766  0.47833  0.51312  Biso   1.000  Cu
  Cu21     1.0000 0.01272  0.81990  0.01536  Biso   1.000  Cu
  Cu22     1.0000 0.01463  0.97402  0.16023  Biso   1.000  Cu
  Cu23     1.0000 0.66898  0.47193  0.00246  Biso   1.000  Cu
  Cu24     1.0000 0.50619  0.81944  0.51020  Biso   1.000  Cu
  Cu25     1.0000 0.21563  0.97267  0.99999  Biso   1.000  Cu
  Cu26     1.0000 0.01407  0.17632  0.99662  Biso   1.000  Cu
  Cu27     1.0000 0.01800  0.97798  0.21527  Biso   1.000  Cu
  Cu28     1.0000 0.72364  0.96672  0.51626  Biso   1.000  Cu
  Cu29     1.0000 0.51922  0.18151  0.50021  Biso   1.000  Cu
  Cu30     1.0000 0.51707  0.97371  0.30262  Biso   1.000  Cu
  Cu31     1.0000 0.30222  0.47698  0.00537  Biso   1.000  Cu
  Cu32     1.0000 0.51573  0.67737  0.01121  Biso   1.000  Cu
  Cu33     1.0000 0.51178  0.46956  0.20897  Biso   1.000  Cu
  Cu34     1.0000 0.79730  0.46646  0.49506  Biso   1.000  Cu
  Cu35     1.0000 0.00215  0.68134  0.51758  Biso   1.000  Cu
  Cu36     1.0000 0.01683  0.48186  0.29949  Biso   1.000  Cu
  Cu37     1.0000 0.80370  0.96969  0.01812  Biso   1.000  Cu
  Cu38     1.0000 0.01185  0.76747  0.01356  Biso   1.000  Cu
  Cu39     1.0000 0.00142  0.96235  0.79708  Biso   1.000  Cu
  Cu40     1.0000 0.29974  0.97986  0.50056  Biso   1.000  Cu
  Cu41     1.0000 0.50452  0.76318  0.50881  Biso   1.000  Cu
  Cu42     1.0000 0.50476  0.98062  0.71553  Biso   1.000  Cu
  Cu43     1.0000 0.72230  0.47068  0.00188  Biso   1.000  Cu
  Cu44     1.0000 0.51467  0.26360  0.99769  Biso   1.000  Cu
  Cu45     1.0000 0.51229  0.48075  0.80118  Biso   1.000  Cu
  Cu46     1.0000 0.22046  0.48147  0.51717  Biso   1.000  Cu
  Cu47     1.0000 0.01587  0.26724  0.49781  Biso   1.000  Cu
  Cu48     1.0000 0.00439  0.46268  0.71167  Biso   1.000  Cu
  H1       1.0000 0.23758  0.76880  0.53070  Biso   1.000  H
  H2       1.0000 0.56037  0.26950  0.73884  Biso   1.000  H
  H3       1.0000 0.74490  0.48395  0.29219  Biso   1.000  H
  H4       1.0000 0.75262  0.76593  0.00025  Biso   1.000  H
  H5       1.0000 0.00992  0.20412  0.70684  Biso   1.000  H
  H6       1.0000 0.30314  0.51529  0.27209  Biso   1.000  H
  H7       1.0000 0.27628  0.26023  0.53185  Biso   1.000  H
  H8       1.0000 0.96321  0.74811  0.75349  Biso   1.000  H
  H9       1.0000 0.73387  0.98895  0.25681  Biso   1.000  H
  H10      1.0000 0.77587  0.25550  0.04344  Biso   1.000  H
  H11      1.0000 0.46243  0.76963  0.76730  Biso   1.000  H
  H12      1.0000 0.28609  0.99025  0.20576  Biso   1.000  H
  H13      1.0000 0.72597  0.22629  0.47135  Biso   1.000  H
  H14      1.0000 0.53356  0.73698  0.21773  Biso   1.000  H
  H15      1.0000 0.27187  0.46376  0.71879  Biso   1.000  H
  H16      1.0000 0.26873  0.18407  0.03456  Biso   1.000  H
  H17      1.0000 0.03102  0.74662  0.30997  Biso   1.000  H
  H18      1.0000 0.71041  0.43202  0.73568  Biso   1.000  H
  H19      1.0000 0.79338  0.73106  0.47173  Biso   1.000  H
  H20      1.0000 0.02162  0.19060  0.26159  Biso   1.000  H
  H21      1.0000 0.24396  0.01688  0.71460  Biso   1.000  H
  H22      1.0000 0.25874  0.69746  0.03492  Biso   1.000  H
  H23      1.0000 0.55107  0.18403  0.23728  Biso   1.000  H
  H24      1.0000 0.78639  0.91202  0.76518  Biso   1.000  H
  H25      1.0000 0.26702  0.01288  0.78946  Biso   1.000  H
  H26      1.0000 0.80832  0.23972  0.01493  Biso   1.000  H
  H27      1.0000 0.98400  0.72218  0.22441  Biso   1.000  H
  H28      1.0000 0.76516  0.92523  0.72870  Biso   1.000  H
  H29      1.0000 0.24830  0.18422  0.47951  Biso   1.000  H
  H30      1.0000 0.54817  0.75947  0.25197  Biso   1.000  H
  H31      1.0000 0.29450  0.51224  0.75009  Biso   1.000  H
  H32      1.0000 0.77649  0.67705  0.04579  Biso   1.000  H
  H33      1.0000 0.49523  0.26395  0.26231  Biso   1.000  H
  H34      1.0000 0.74096  0.48147  0.70268  Biso   1.000  H
  H35      1.0000 0.21136  0.73979  0.48653  Biso   1.000  H
  H36      1.0000 0.98347  0.21690  0.29159  Biso   1.000  H
  H37      1.0000 0.75478  0.93060  0.22577  Biso   1.000  H
  H38      1.0000 0.27348  0.76274  0.96881  Biso   1.000  H
  H39      1.0000 0.00656  0.22922  0.78597  Biso   1.000  H
  H40      1.0000 0.25946  0.94081  0.28571  Biso   1.000  H
  H41      1.0000 0.76570  0.75449  0.52913  Biso   1.000  H
  H42      1.0000 0.50491  0.19127  0.76221  Biso   1.000  H
  H43      1.0000 0.72505  0.43388  0.25442  Biso   1.000  H
  H44      1.0000 0.24068  0.27218  0.99091  Biso   1.000  H
  H45      1.0000 0.52366  0.68749  0.74605  Biso   1.000  H
  H46      1.0000 0.27987  0.46730  0.30127  Biso   1.000  H
  H47      1.0000 0.75299  0.25678  0.51653  Biso   1.000  H
  H48      1.0000 0.02748  0.67028  0.78184  Biso   1.000  H
  H49      1.0000 0.21606  0.51344  0.25070  Biso   1.000  H
  H50      1.0000 0.30900  0.24406  0.51699  Biso   1.000  H
  H51      1.0000 0.53540  0.20415  0.20314  Biso   1.000  H
  H52      1.0000 0.77732  0.50145  0.21542  Biso   1.000  H
  H53      1.0000 0.74548  0.17732  0.99050  Biso   1.000  H
  H54      1.0000 0.02714  0.26798  0.22838  Biso   1.000  H
  H55      1.0000 0.30806  0.00679  0.23983  Biso   1.000  H
  H56      1.0000 0.27370  0.69208  0.53555  Biso   1.000  H
  H57      1.0000 0.05069  0.76591  0.27805  Biso   1.000  H
  H58      1.0000 0.80655  0.98535  0.28131  Biso   1.000  H
  H59      1.0000 0.71880  0.73883  0.00390  Biso   1.000  H
  H60      1.0000 0.47464  0.71891  0.28994  Biso   1.000  H
  H61      1.0000 0.79483  0.42785  0.76166  Biso   1.000  H
  H62      1.0000 0.72269  0.70989  0.45874  Biso   1.000  H
  H63      1.0000 0.47575  0.74392  0.80033  Biso   1.000  H
  H64      1.0000 0.24469  0.44963  0.79705  Biso   1.000  H
  H65      1.0000 0.22539  0.70978  0.02631  Biso   1.000  H
  H66      1.0000 0.96479  0.71902  0.72837  Biso   1.000  H
  H67      1.0000 0.71038  0.97363  0.78638  Biso   1.000  H
  H68      1.0000 0.81148  0.19948  0.46853  Biso   1.000  H
  H69      1.0000 0.05798  0.17014  0.73126  Biso   1.000  H
  H70      1.0000 0.22065  0.95812  0.73646  Biso   1.000  H
  H71      1.0000 0.30379  0.20866  0.02430  Biso   1.000  H
  H72      1.0000 0.55412  0.24401  0.70446  Biso   1.000  H
  H73      1.0000 0.77510  0.48240  0.78557  Biso   1.000  H
  H74      1.0000 0.74009  0.67677  0.52520  Biso   1.000  H
  H75      1.0000 0.53974  0.72750  0.72928  Biso   1.000  H
  H76      1.0000 0.21467  0.50571  0.77933  Biso   1.000  H
  H77      1.0000 0.28731  0.72222  0.95220  Biso   1.000  H
  H78      1.0000 0.01721  0.69961  0.81342  Biso   1.000  H
  H79      1.0000 0.74934  0.99102  0.80629  Biso   1.000  H
  H80      1.0000 0.78700  0.17462  0.52325  Biso   1.000  H
  H81      1.0000 0.07001  0.25201  0.76115  Biso   1.000  H
  H82      1.0000 0.29625  0.96289  0.76885  Biso   1.000  H
  H83      1.0000 0.22615  0.23744  0.96783  Biso   1.000  H
  H84      1.0000 0.49146  0.22554  0.78325  Biso   1.000  H
  H85      1.0000 0.24062  0.47239  0.22019  Biso   1.000  H
  H86      1.0000 0.23020  0.22322  0.46002  Biso   1.000  H
  H87      1.0000 0.48715  0.23350  0.28510  Biso   1.000  H
  H88      1.0000 0.80805  0.45662  0.22884  Biso   1.000  H
  H89      1.0000 0.72911  0.21470  0.97272  Biso   1.000  H
  H90      1.0000 0.97342  0.24506  0.20202  Biso   1.000  H
  H91      1.0000 0.22554  0.95758  0.26817  Biso   1.000  H
  H92      1.0000 0.29272  0.71530  0.48044  Biso   1.000  H
  H93      1.0000 0.99689  0.68663  0.24737  Biso   1.000  H
  H94      1.0000 0.77912  0.92138  0.30098  Biso   1.000  H
  H95      1.0000 0.79919  0.71036  0.06262  Biso   1.000  H
  H96      1.0000 0.49334  0.68002  0.27561  Biso   1.000  H
  H97      1.0000 0.87499  0.96403  0.92567  Biso   1.000  H
  H98      1.0000 0.91731  0.84313  0.02729  Biso   1.000  H
  H99      1.0000 0.00283  0.87831  0.87152  Biso   1.000  H
  H100     1.0000 0.37357  0.98933  0.59433  Biso   1.000  H
  H101     1.0000 0.41828  0.83735  0.51298  Biso   1.000  H
  H102     1.0000 0.49952  0.88561  0.63767  Biso   1.000  H
  H103     1.0000 0.64820  0.47071  0.91320  Biso   1.000  H
  H104     1.0000 0.60298  0.33545  0.01178  Biso   1.000  H
  H105     1.0000 0.52559  0.38334  0.87357  Biso   1.000  H
  H106     1.0000 0.14587  0.48027  0.59767  Biso   1.000  H
  H107     1.0000 0.10945  0.34813  0.49739  Biso   1.000  H
  H108     1.0000 0.03492  0.37423  0.63301  Biso   1.000  H
  H109     1.0000 0.14705  0.98377  0.09527  Biso   1.000  H
  H110     1.0000 0.10554  0.10454  0.99559  Biso   1.000  H
  H111     1.0000 0.00011  0.06419  0.13307  Biso   1.000  H
  H112     1.0000 0.64897  0.97591  0.42218  Biso   1.000  H
  H113     1.0000 0.60396  0.10695  0.51788  Biso   1.000  H
  H114     1.0000 0.52268  0.06732  0.36850  Biso   1.000  H
  H115     1.0000 0.37616  0.48362  0.09942  Biso   1.000  H
  H116     1.0000 0.42488  0.60533  0.00676  Biso   1.000  H
  H117     1.0000 0.52053  0.56338  0.14208  Biso   1.000  H
  H118     1.0000 0.87831  0.47251  0.40869  Biso   1.000  H
  H119     1.0000 0.91684  0.60219  0.50880  Biso   1.000  H
  H120     1.0000 0.02422  0.56944  0.38088  Biso   1.000  H
  H121     1.0000 0.09816  0.96469  0.86740  Biso   1.000  H
  H122     1.0000 0.88087  0.05828  0.00858  Biso   1.000  H
  H123     1.0000 0.02958  0.83772  0.10226  Biso   1.000  H
  H124     1.0000 0.60281  0.96785  0.64096  Biso   1.000  H
  H125     1.0000 0.37809  0.06464  0.47998  Biso   1.000  H
  H126     1.0000 0.50485  0.83918  0.41901  Biso   1.000  H
  H127     1.0000 0.42017  0.46757  0.87174  Biso   1.000  H
  H128     1.0000 0.64937  0.56182  0.98854  Biso   1.000  H
  H129     1.0000 0.52114  0.33645  0.08707  Biso   1.000  H
  H130     1.0000 0.91380  0.45600  0.62996  Biso   1.000  H
  H131     1.0000 0.14114  0.57032  0.52579  Biso   1.000  H
  H132     1.0000 0.01191  0.34465  0.40670  Biso   1.000  H
  H133     1.0000 0.92403  0.97172  0.14737  Biso   1.000  H
  H134     1.0000 0.14371  0.88363  0.99375  Biso   1.000  H
  H135     1.0000 0.01533  0.09927  0.90370  Biso   1.000  H
  H136     1.0000 0.42350  0.97360  0.37722  Biso   1.000  H
  H137     1.0000 0.64480  0.88037  0.50647  Biso   1.000  H
  H138     1.0000 0.51669  0.10991  0.59297  Biso   1.000  H
  H139     1.0000 0.60305  0.47559  0.13346  Biso   1.000  H
  H140     1.0000 0.37914  0.38549  0.00250  Biso   1.000  H
  H141     1.0000 0.51041  0.61084  0.91726  Biso   1.000  H
  H142     1.0000 0.10674  0.47215  0.38054  Biso   1.000  H
  H143     1.0000 0.87823  0.37823  0.49442  Biso   1.000  H
  H144     1.0000 0.00481  0.59963  0.60713  Biso   1.000  H
  H145     1.0000 0.60632  0.47203  0.87829  Biso   1.000  H
  H146     1.0000 0.87251  0.55751  0.50553  Biso   1.000  H
  H147     1.0000 0.51046  0.84456  0.59789  Biso   1.000  H
  H148     1.0000 0.09846  0.47642  0.63952  Biso   1.000  H
  H149     1.0000 0.37527  0.56271  0.01632  Biso   1.000  H
  H150     1.0000 0.98941  0.83879  0.91655  Biso   1.000  H
  H151     1.0000 0.91706  0.96217  0.88034  Biso   1.000  H
  H152     1.0000 0.64881  0.05875  0.52530  Biso   1.000  H
  H153     1.0000 0.02469  0.33662  0.59279  Biso   1.000  H
  H154     1.0000 0.41581  0.98707  0.63844  Biso   1.000  H
  H155     1.0000 0.14722  0.06227  0.99203  Biso   1.000  H
  H156     1.0000 0.52080  0.34450  0.91296  Biso   1.000  H
  H157     1.0000 0.41412  0.48934  0.13969  Biso   1.000  H
  H158     1.0000 0.14538  0.38825  0.51118  Biso   1.000  H
  H159     1.0000 0.52128  0.10512  0.40737  Biso   1.000  H
  H160     1.0000 0.92205  0.47244  0.36702  Biso   1.000  H
  H161     1.0000 0.64537  0.37693  0.01591  Biso   1.000  H
  H162     1.0000 0.00395  0.10606  0.09141  Biso   1.000  H
  H163     1.0000 0.10763  0.98284  0.13844  Biso   1.000  H
  H164     1.0000 0.37384  0.88692  0.51307  Biso   1.000  H
  H165     1.0000 0.01352  0.60965  0.42232  Biso   1.000  H
  H166     1.0000 0.61063  0.98142  0.37775  Biso   1.000  H
  H167     1.0000 0.87749  0.88068  0.02766  Biso   1.000  H
  H168     1.0000 0.50753  0.60428  0.10201  Biso   1.000  H
  H169     1.0000 0.01012  0.05921  0.86554  Biso   1.000  H
  H170     1.0000 0.87955  0.97105  0.10418  Biso   1.000  H
  H171     1.0000 0.10084  0.83910  0.00428  Biso   1.000  H
  H172     1.0000 0.51632  0.06872  0.63596  Biso   1.000  H
  H173     1.0000 0.38063  0.96723  0.41487  Biso   1.000  H
  H174     1.0000 0.60037  0.83650  0.50916  Biso   1.000  H
  H175     1.0000 0.50725  0.57383  0.87377  Biso   1.000  H
  H176     1.0000 0.64519  0.47117  0.09080  Biso   1.000  H
  H177     1.0000 0.41908  0.34488  0.99902  Biso   1.000  H
  H178     1.0000 0.00253  0.55551  0.64631  Biso   1.000  H
  H179     1.0000 0.14852  0.47262  0.42239  Biso   1.000  H
  H180     1.0000 0.92097  0.33538  0.48996  Biso   1.000  H
  H181     1.0000 0.02418  0.88343  0.14332  Biso   1.000  H
  H182     1.0000 0.14296  0.96016  0.91117  Biso   1.000  H
  H183     1.0000 0.92117  0.10090  0.00585  Biso   1.000  H
  H184     1.0000 0.51151  0.88313  0.37795  Biso   1.000  H
  H185     1.0000 0.64153  0.96842  0.60577  Biso   1.000  H
  H186     1.0000 0.42585  0.10977  0.48731  Biso   1.000  H
  H187     1.0000 0.50748  0.37909  0.12939  Biso   1.000  H
  H188     1.0000 0.37721  0.47597  0.91700  Biso   1.000  H
  H189     1.0000 0.60408  0.60262  0.00979  Biso   1.000  H
  H190     1.0000 0.00926  0.38248  0.36956  Biso   1.000  H
  H191     1.0000 0.87185  0.45884  0.58826  Biso   1.000  H
  H192     1.0000 0.09738  0.61113  0.53129  Biso   1.000  H
  H193     1.0000 0.27627  0.83583  0.49990  Biso   1.000  H
  H194     1.0000 0.53239  0.25013  0.85406  Biso   1.000  H
  H195     1.0000 0.87278  0.48989  0.26970  Biso   1.000  H
  H196     1.0000 0.78212  0.82734  0.03520  Biso   1.000  H
  H197     1.0000 0.04550  0.23716  0.63687  Biso   1.000  H
  H198     1.0000 0.36892  0.47422  0.23776  Biso   1.000  H
  H199     1.0000 0.24711  0.33955  0.51250  Biso   1.000  H
  H200     1.0000 0.98819  0.73926  0.87331  Biso   1.000  H
  H201     1.0000 0.66397  0.95550  0.28518  Biso   1.000  H
  H202     1.0000 0.74306  0.32827  0.00240  Biso   1.000  H
  H203     1.0000 0.50085  0.75028  0.65599  Biso   1.000  H
  H204     1.0000 0.16090  0.99147  0.23700  Biso   1.000  H
  H205     1.0000 0.74848  0.10875  0.51298  Biso   1.000  H
  H206     1.0000 0.51027  0.70178  0.15237  Biso   1.000  H
  H207     1.0000 0.14589  0.47789  0.73900  Biso   1.000  H
  H208     1.0000 0.24387  0.11768  0.99118  Biso   1.000  H
  H209     1.0000 0.99552  0.70450  0.37054  Biso   1.000  H
  H210     1.0000 0.64667  0.47081  0.77505  Biso   1.000  H
  H211     1.0000 0.77522  0.61080  0.49480  Biso   1.000  H
  H212     1.0000 0.00977  0.20271  0.14355  Biso   1.000  H
  H213     1.0000 0.36178  0.98750  0.73329  Biso   1.000  H
  H214     1.0000 0.28110  0.62303  0.00921  Biso   1.000  H
  H215     1.0000 0.51980  0.20391  0.35719  Biso   1.000  H
  H216     1.0000 0.85733  0.94993  0.78829  Biso   1.000  H
  H217     1.0000 0.24536  0.49311  0.37321  Biso   1.000  H
  H218     1.0000 0.37144  0.20549  0.49239  Biso   1.000  H
  H219     1.0000 0.50900  0.32590  0.22491  Biso   1.000  H
  H220     1.0000 0.74161  0.47881  0.14493  Biso   1.000  H
  H221     1.0000 0.86679  0.19373  0.98530  Biso   1.000  H
  H222     1.0000 0.00121  0.34123  0.26810  Biso   1.000  H
  H223     1.0000 0.28373  0.97239  0.35254  Biso   1.000  H
  H224     1.0000 0.14736  0.70864  0.53086  Biso   1.000  H
  H225     1.0000 0.01782  0.83412  0.24176  Biso   1.000  H
  H226     1.0000 0.78580  0.97791  0.16279  Biso   1.000  H
  H227     1.0000 0.65457  0.69951  0.01329  Biso   1.000  H
  H228     1.0000 0.52093  0.82970  0.28195  Biso   1.000  H
  H229     1.0000 0.77645  0.45084  0.64058  Biso   1.000  H
  H230     1.0000 0.64714  0.74123  0.48628  Biso   1.000  H
  H231     1.0000 0.50034  0.62523  0.78023  Biso   1.000  H
  H232     1.0000 0.28039  0.46900  0.86230  Biso   1.000  H
  H233     1.0000 0.15764  0.74235  0.00664  Biso   1.000  H
  H234     1.0000 0.99455  0.60009  0.74525  Biso   1.000  H
  H235     1.0000 0.73854  0.95812  0.65915  Biso   1.000  H
  H236     1.0000 0.87154  0.23605  0.48665  Biso   1.000  H
  H237     1.0000 0.02065  0.10414  0.76701  Biso   1.000  H
  H238     1.0000 0.23520  0.98300  0.85535  Biso   1.000  H
  H239     1.0000 0.36853  0.24714  0.98746  Biso   1.000  H
  H240     1.0000 0.52638  0.12515  0.72885  Biso   1.000  H
  H241     1.0000 0.74202  0.45308  0.85615  Biso   1.000  H
  H242     1.0000 0.86024  0.69726  0.50100  Biso   1.000  H
  H243     1.0000 0.48714  0.83583  0.73391  Biso   1.000  H
  H244     1.0000 0.23524  0.49354  0.66015  Biso   1.000  H
  H245     1.0000 0.36938  0.70277  0.99575  Biso   1.000  H
  H246     1.0000 0.98763  0.81431  0.77998  Biso   1.000  H
  H247     1.0000 0.77690  0.95239  0.87533  Biso   1.000  H
  H248     1.0000 0.66118  0.20068  0.50586  Biso   1.000  H
  H249     1.0000 0.03855  0.31850  0.72676  Biso   1.000  H
  H250     1.0000 0.27373  0.98442  0.64255  Biso   1.000  H
  H251     1.0000 0.15553  0.20123  0.99636  Biso   1.000  H
  H252     1.0000 0.53156  0.33717  0.77484  Biso   1.000  H
  H253     1.0000 0.27771  0.48505  0.14967  Biso   1.000  H
  H254     1.0000 0.16262  0.25109  0.49280  Biso   1.000  H
  H255     1.0000 0.51604  0.11457  0.26969  Biso   1.000  H
  H256     1.0000 0.78178  0.46490  0.35661  Biso   1.000  H
  H257     1.0000 0.65887  0.23846  0.00991  Biso   1.000  H
  H258     1.0000 0.99046  0.12193  0.22812  Biso   1.000  H
  H259     1.0000 0.23964  0.95490  0.14310  Biso   1.000  H
  H260     1.0000 0.35333  0.74872  0.52241  Biso   1.000  H
  H261     1.0000 0.01657  0.62433  0.28631  Biso   1.000  H
  H262     1.0000 0.74528  0.95412  0.37250  Biso   1.000  H
  H263     1.0000 0.87751  0.74020  0.03126  Biso   1.000  H
  H264     1.0000 0.52569  0.61212  0.24293  Biso   1.000  H
  H265     1.0000 0.03514  0.19490  0.85357  Biso   1.000  H
  H266     1.0000 0.87418  0.96655  0.24372  Biso   1.000  H
  H267     1.0000 0.24020  0.83019  0.00494  Biso   1.000  H
  H268     1.0000 0.53773  0.20861  0.64102  Biso   1.000  H
  H269     1.0000 0.37870  0.97910  0.27668  Biso   1.000  H
  H270     1.0000 0.73635  0.82246  0.49133  Biso   1.000  H
  H271     1.0000 0.50812  0.71233  0.86777  Biso   1.000  H
  H272     1.0000 0.65635  0.47495  0.22855  Biso   1.000  H
  H273     1.0000 0.28580  0.33129  0.02324  Biso   1.000  H
  H274     1.0000 0.01346  0.69092  0.66572  Biso   1.000  H
  H275     1.0000 0.16114  0.48255  0.28623  Biso   1.000  H
  H276     1.0000 0.78277  0.32372  0.47341  Biso   1.000  H
  H277     1.0000 0.02818  0.74626  0.16161  Biso   1.000  H
  H278     1.0000 0.14572  0.99305  0.77153  Biso   1.000  H
  H279     1.0000 0.78539  0.11140  0.01467  Biso   1.000  H
  H280     1.0000 0.50220  0.74378  0.36573  Biso   1.000  H
  H281     1.0000 0.64458  0.95584  0.74289  Biso   1.000  H
  H282     1.0000 0.28804  0.12602  0.50431  Biso   1.000  H
  H283     1.0000 0.50041  0.23860  0.13857  Biso   1.000  H
  H284     1.0000 0.36815  0.46845  0.77470  Biso   1.000  H
  H285     1.0000 0.74519  0.61486  0.99738  Biso   1.000  H
  H286     1.0000 0.01835  0.25054  0.34987  Biso   1.000  H
  H287     1.0000 0.86031  0.44653  0.72698  Biso   1.000  H
  H288     1.0000 0.23753  0.62459  0.52025  Biso   1.000  H
  H289     1.0000 0.10111  0.19944  0.99974  Biso   1.000  H
  H290     1.0000 0.99891  0.06811  0.23079  Biso   1.000  H
  H291     1.0000 0.23739  0.95584  0.08873  Biso   1.000  H
  H292     1.0000 0.60905  0.19920  0.50157  Biso   1.000  H
  H293     1.0000 0.51928  0.05979  0.27425  Biso   1.000  H
  H294     1.0000 0.74620  0.96457  0.42471  Biso   1.000  H
  H295     1.0000 0.42442  0.69986  0.99704  Biso   1.000  H
  H296     1.0000 0.52056  0.55889  0.23860  Biso   1.000  H
  H297     1.0000 0.28160  0.47944  0.09871  Biso   1.000  H
  H298     1.0000 0.91377  0.69518  0.50935  Biso   1.000  H
  H299     1.0000 0.02636  0.56929  0.28529  Biso   1.000  H
  H300     1.0000 0.78429  0.45740  0.40694  Biso   1.000  H
  H301     1.0000 0.92870  0.74652  0.03259  Biso   1.000  H
  H302     1.0000 0.99106  0.86842  0.77713  Biso   1.000  H
  H303     1.0000 0.77868  0.95565  0.92775  Biso   1.000  H
  H304     1.0000 0.41081  0.74636  0.53270  Biso   1.000  H
  H305     1.0000 0.49289  0.89003  0.73203  Biso   1.000  H
  H306     1.0000 0.27771  0.98092  0.58978  Biso   1.000  H
  H307     1.0000 0.60292  0.24116  0.00841  Biso   1.000  H
  H308     1.0000 0.53291  0.39622  0.78165  Biso   1.000  H
  H309     1.0000 0.74467  0.45827  0.90916  Biso   1.000  H
  H310     1.0000 0.10841  0.25033  0.49178  Biso   1.000  H
  H311     1.0000 0.04054  0.37662  0.72971  Biso   1.000  H
  H312     1.0000 0.23974  0.49021  0.60568  Biso   1.000  H
  H313     1.0000 0.23743  0.98075  0.90902  Biso   1.000  H
  H314     1.0000 0.92114  0.19203  0.98233  Biso   1.000  H
  H315     1.0000 0.02019  0.88564  0.23938  Biso   1.000  H
  H316     1.0000 0.73911  0.95938  0.60482  Biso   1.000  H
  H317     1.0000 0.42467  0.20558  0.49182  Biso   1.000  H
  H318     1.0000 0.53203  0.88567  0.28229  Biso   1.000  H
  H319     1.0000 0.28230  0.47051  0.91464  Biso   1.000  H
  H320     1.0000 0.60578  0.69883  0.01264  Biso   1.000  H
  H321     1.0000 0.51251  0.37763  0.22640  Biso   1.000  H
  H322     1.0000 0.77717  0.44805  0.58584  Biso   1.000  H
  H323     1.0000 0.09206  0.70676  0.52483  Biso   1.000  H
  H324     1.0000 0.00429  0.39507  0.27157  Biso   1.000  H
  H325     1.0000 0.78383  0.97711  0.10429  Biso   1.000  H
  H326     1.0000 0.10087  0.74382  0.00845  Biso   1.000  H
  H327     1.0000 0.00774  0.05191  0.76961  Biso   1.000  H
  H328     1.0000 0.28254  0.96687  0.40595  Biso   1.000  H
  H329     1.0000 0.59342  0.74243  0.48918  Biso   1.000  H
  H330     1.0000 0.51517  0.07055  0.72974  Biso   1.000  H
  H331     1.0000 0.74272  0.47339  0.09237  Biso   1.000  H
  H332     1.0000 0.42186  0.24791  0.98783  Biso   1.000  H
  H333     1.0000 0.50163  0.57259  0.77960  Biso   1.000  H
  H334     1.0000 0.24333  0.48078  0.42711  Biso   1.000  H
  H335     1.0000 0.92509  0.24085  0.48771  Biso   1.000  H
  H336     1.0000 0.98252  0.54858  0.73983  Biso   1.000  H
  H337     1.0000 0.03022  0.19290  0.90754  Biso   1.000  H
  H338     1.0000 0.92752  0.96910  0.24225  Biso   1.000  H
  H339     1.0000 0.24049  0.88239  0.99927  Biso   1.000  H
  H340     1.0000 0.53354  0.20401  0.58451  Biso   1.000  H
  H341     1.0000 0.42901  0.98519  0.28170  Biso   1.000  H
  H342     1.0000 0.73661  0.87733  0.49494  Biso   1.000  H
  H343     1.0000 0.50816  0.70780  0.92453  Biso   1.000  H
  H344     1.0000 0.60128  0.46679  0.22865  Biso   1.000  H
  H345     1.0000 0.28515  0.38626  0.02854  Biso   1.000  H
  H346     1.0000 0.00517  0.69440  0.60891  Biso   1.000  H
  H347     1.0000 0.10639  0.47299  0.28269  Biso   1.000  H
  H348     1.0000 0.78294  0.37417  0.47721  Biso   1.000  H
  H349     1.0000 0.02444  0.74302  0.10788  Biso   1.000  H
  H350     1.0000 0.09464  0.98196  0.77088  Biso   1.000  H
  H351     1.0000 0.78643  0.05917  0.01619  Biso   1.000  H
  H352     1.0000 0.49883  0.74205  0.41749  Biso   1.000  H
  H353     1.0000 0.59411  0.96582  0.73986  Biso   1.000  H
  H354     1.0000 0.28525  0.07319  0.50770  Biso   1.000  H
  H355     1.0000 0.50692  0.24131  0.08439  Biso   1.000  H
  H356     1.0000 0.42159  0.47099  0.77819  Biso   1.000  H
  H357     1.0000 0.74403  0.56230  0.98216  Biso   1.000  H
  H358     1.0000 0.02539  0.25109  0.40253  Biso   1.000  H
  H359     1.0000 0.91672  0.44436  0.72593  Biso   1.000  H
  H360     1.0000 0.23836  0.57409  0.51481  Biso   1.000  H
  H361     1.0000 0.99731  0.70551  0.42438  Biso   1.000  H
  H362     1.0000 0.41615  0.98825  0.73365  Biso   1.000  H
  H363     1.0000 0.73895  0.38380  0.00478  Biso   1.000  H
  H364     1.0000 0.50371  0.69985  0.09941  Biso   1.000  H
  H365     1.0000 0.91085  0.96234  0.78335  Biso   1.000  H
  H366     1.0000 0.24456  0.39298  0.51532  Biso   1.000  H
  H367     1.0000 0.51834  0.20280  0.41095  Biso   1.000  H
  H368     1.0000 0.09132  0.47433  0.73383  Biso   1.000  H
  H369     1.0000 0.78477  0.88236  0.02969  Biso   1.000  H
  H370     1.0000 0.01502  0.20050  0.08607  Biso   1.000  H
  H371     1.0000 0.59864  0.47725  0.78103  Biso   1.000  H
  H372     1.0000 0.27933  0.89104  0.49835  Biso   1.000  H
  H373     1.0000 0.04136  0.24126  0.58355  Biso   1.000  H
  H374     1.0000 0.60991  0.96536  0.28065  Biso   1.000  H
  H375     1.0000 0.28017  0.56729  0.01287  Biso   1.000  H
  H376     1.0000 0.52606  0.24844  0.90803  Biso   1.000  H
  H377     1.0000 0.10790  0.99189  0.23365  Biso   1.000  H
  H378     1.0000 0.77232  0.55892  0.49129  Biso   1.000  H
  H379     1.0000 0.50723  0.74849  0.59945  Biso   1.000  H
  H380     1.0000 0.92419  0.49950  0.27394  Biso   1.000  H
  H381     1.0000 0.24272  0.06443  0.99303  Biso   1.000  H
  H382     1.0000 0.98903  0.74260  0.92886  Biso   1.000  H
  H383     1.0000 0.42167  0.47410  0.23464  Biso   1.000  H
  H384     1.0000 0.74622  0.05442  0.51174  Biso   1.000  H
  H385     1.0000 0.24540  0.46061  0.33851  Biso   1.000  H
  H386     1.0000 0.28728  0.15005  0.46900  Biso   1.000  H
  H387     1.0000 0.48158  0.29540  0.22329  Biso   1.000  H
  H388     1.0000 0.68649  0.44046  0.22069  Biso   1.000  H
  H389     1.0000 0.85022  0.20140  0.01892  Biso   1.000  H
  H390     1.0000 0.97868  0.25348  0.32366  Biso   1.000  H
  H391     1.0000 0.29695  0.93694  0.32318  Biso   1.000  H
  H392     1.0000 0.17436  0.70251  0.49281  Biso   1.000  H
  H393     1.0000 0.99425  0.75492  0.18593  Biso   1.000  H
  H394     1.0000 0.78973  0.93720  0.18403  Biso   1.000  H
  H395     1.0000 0.74393  0.63925  0.03680  Biso   1.000  H
  H396     1.0000 0.55305  0.79542  0.29279  Biso   1.000  H
  H397     1.0000 0.77868  0.48337  0.66941  Biso   1.000  H
  H398     1.0000 0.72731  0.79322  0.52921  Biso   1.000  H
  H399     1.0000 0.53139  0.65282  0.78196  Biso   1.000  H
  H400     1.0000 0.33712  0.50469  0.78173  Biso   1.000  H
  H401     1.0000 0.23454  0.79833  0.96528  Biso   1.000  H
  H402     1.0000 0.02563  0.63204  0.74543  Biso   1.000  H
  H403     1.0000 0.73314  0.92628  0.69346  Biso   1.000  H
  H404     1.0000 0.78809  0.29678  0.51342  Biso   1.000  H
  H405     1.0000 0.00544  0.19222  0.82355  Biso   1.000  H
  H406     1.0000 0.22834  0.01412  0.82851  Biso   1.000  H
  H407     1.0000 0.27984  0.30919  0.98619  Biso   1.000  H
  H408     1.0000 0.49571  0.15584  0.72009  Biso   1.000  H
  H409     1.0000 0.27687  0.45639  0.18489  Biso   1.000  H
  H410     1.0000 0.18916  0.26178  0.46121  Biso   1.000  H
  H411     1.0000 0.48450  0.19767  0.32419  Biso   1.000  H
  H412     1.0000 0.84558  0.45448  0.26658  Biso   1.000  H
  H413     1.0000 0.69096  0.24779  0.97386  Biso   1.000  H
  H414     1.0000 0.96941  0.20133  0.16851  Biso   1.000  H
  H415     1.0000 0.18701  0.96060  0.23290  Biso   1.000  H
  H416     1.0000 0.33217  0.75268  0.47899  Biso   1.000  H
  H417     1.0000 0.98652  0.65111  0.28365  Biso   1.000  H
  H418     1.0000 0.74032  0.92242  0.34035  Biso   1.000  H
  H419     1.0000 0.83635  0.73988  0.06326  Biso   1.000  H
  H420     1.0000 0.49237  0.64289  0.24053  Biso   1.000  H
  H421     1.0000 0.74090  0.48318  0.82768  Biso   1.000  H
  H422     1.0000 0.77548  0.64108  0.52755  Biso   1.000  H
  H423     1.0000 0.53178  0.75777  0.68528  Biso   1.000  H
  H424     1.0000 0.17517  0.50464  0.74412  Biso   1.000  H
  H425     1.0000 0.32849  0.68715  0.95246  Biso   1.000  H
  H426     1.0000 0.02033  0.74099  0.84608  Biso   1.000  H
  H427     1.0000 0.78890  0.98992  0.84044  Biso   1.000  H
  H428     1.0000 0.74860  0.14451  0.53854  Biso   1.000  H
  H429     1.0000 0.07279  0.28859  0.72698  Biso   1.000  H
  H430     1.0000 0.33442  0.95846  0.73205  Biso   1.000  H
  H431     1.0000 0.18788  0.19896  0.96090  Biso   1.000  H
  H432     1.0000 0.49543  0.25556  0.82429  Biso   1.000  H
  H433     1.0000 0.27943  0.01637  0.67629  Biso   1.000  H
  H434     1.0000 0.73673  0.29434  0.04401  Biso   1.000  H
  H435     1.0000 0.02956  0.70961  0.34657  Biso   1.000  H
  H436     1.0000 0.82863  0.91869  0.79489  Biso   1.000  H
  H437     1.0000 0.24469  0.30093  0.53514  Biso   1.000  H
  H438     1.0000 0.53778  0.70003  0.18172  Biso   1.000  H
  H439     1.0000 0.23356  0.45652  0.68284  Biso   1.000  H
  H440     1.0000 0.79532  0.79694  0.99831  Biso   1.000  H
  H441     1.0000 0.55237  0.14580  0.27944  Biso   1.000  H
  H442     1.0000 0.67634  0.43872  0.77497  Biso   1.000  H
  H443     1.0000 0.27451  0.80581  0.53669  Biso   1.000  H
  H444     1.0000 0.02671  0.15094  0.22572  Biso   1.000  H
  H445     1.0000 0.69812  0.99527  0.29462  Biso   1.000  H
  H446     1.0000 0.29549  0.65813  0.03787  Biso   1.000  H
  H447     1.0000 0.01378  0.23727  0.66809  Biso   1.000  H
  H448     1.0000 0.25086  0.98919  0.16907  Biso   1.000  H
  H449     1.0000 0.82890  0.69070  0.46842  Biso   1.000  H
  H450     1.0000 0.56337  0.30356  0.77581  Biso   1.000  H
  H451     1.0000 0.78014  0.49132  0.32769  Biso   1.000  H
  H452     1.0000 0.23236  0.14492  0.02519  Biso   1.000  H
  H453     1.0000 0.46031  0.80221  0.73012  Biso   1.000  H
  H454     1.0000 0.34147  0.50657  0.23890  Biso   1.000  H
  H455     1.0000 0.69065  0.18759  0.47352  Biso   1.000  H
  H456     1.0000 0.95731  0.78300  0.78544  Biso   1.000  H
  H457     1.0000 0.68657  0.74898  0.45384  Biso   1.000  H
  H458     1.0000 0.47787  0.71173  0.84028  Biso   1.000  H
  H459     1.0000 0.82782  0.41926  0.72212  Biso   1.000  H
  H460     1.0000 0.18880  0.74672  0.03153  Biso   1.000  H
  H461     1.0000 0.96921  0.68665  0.68993  Biso   1.000  H
  H462     1.0000 0.28331  0.43742  0.82877  Biso   1.000  H
  H463     1.0000 0.84248  0.24117  0.45804  Biso   1.000  H
  H464     1.0000 0.05220  0.13254  0.76601  Biso   1.000  H
  H465     1.0000 0.68009  0.98912  0.74411  Biso   1.000  H
  H466     1.0000 0.34121  0.24663  0.02282  Biso   1.000  H
  H467     1.0000 0.55758  0.20345  0.67212  Biso   1.000  H
  H468     1.0000 0.17883  0.95052  0.77454  Biso   1.000  H
  H469     1.0000 0.34605  0.20801  0.51934  Biso   1.000  H
  H470     1.0000 0.53662  0.24044  0.16733  Biso   1.000  H
  H471     1.0000 0.18550  0.51861  0.29241  Biso   1.000  H
  H472     1.0000 0.77936  0.13881  0.98686  Biso   1.000  H
  H473     1.0000 0.03322  0.30769  0.26424  Biso   1.000  H
  H474     1.0000 0.73519  0.50824  0.17767  Biso   1.000  H
  H475     1.0000 0.23729  0.65675  0.54987  Biso   1.000  H
  H476     1.0000 0.05697  0.80093  0.24080  Biso   1.000  H
  H477     1.0000 0.34503  0.00555  0.27771  Biso   1.000  H
  H478     1.0000 0.68523  0.70130  0.99230  Biso   1.000  H
  H479     1.0000 0.47294  0.75759  0.33018  Biso   1.000  H
  H480     1.0000 0.84236  0.99109  0.23895  Biso   1.000  H
  N1       1.0000 0.69466  0.14422  0.51129  Biso   1.000  N
  N2       1.0000 0.51684  0.64806  0.18583  Biso   1.000  N
  N3       1.0000 0.18082  0.48286  0.68882  Biso   1.000  N
  N4       1.0000 0.18886  0.14944  0.99004  Biso   1.000  N
  N5       1.0000 0.00984  0.65474  0.33866  Biso   1.000  N
  N6       1.0000 0.68689  0.46258  0.82523  Biso   1.000  N
  N7       1.0000 0.82739  0.64277  0.49862  Biso   1.000  N
  N8       1.0000 0.00004  0.15249  0.17585  Biso   1.000  N
  N9       1.0000 0.32861  0.98653  0.67864  Biso   1.000  N
  N10      1.0000 0.33846  0.64982  0.99956  Biso   1.000  N
  N11      1.0000 0.52075  0.15072  0.32419  Biso   1.000  N
  N12      1.0000 0.82988  0.95416  0.84165  Biso   1.000  N
  N13      1.0000 0.32796  0.80324  0.50967  Biso   1.000  N
  N14      1.0000 0.52676  0.30401  0.82569  Biso   1.000  N
  N15      1.0000 0.83629  0.47328  0.32051  Biso   1.000  N
  N16      1.0000 0.83764  0.79321  0.03190  Biso   1.000  N
  N17      1.0000 0.03962  0.29007  0.67541  Biso   1.000  N
  N18      1.0000 0.33187  0.48185  0.18622  Biso   1.000  N
  N19      1.0000 0.19467  0.30534  0.50059  Biso   1.000  N
  N20      1.0000 0.98946  0.78783  0.83795  Biso   1.000  N
  N21      1.0000 0.69405  0.96008  0.34003  Biso   1.000  N
  N22      1.0000 0.69063  0.29245  0.01163  Biso   1.000  N
  N23      1.0000 0.49796  0.80272  0.68231  Biso   1.000  N
  N24      1.0000 0.19260  0.97598  0.17906  Biso   1.000  N
  N25      1.0000 0.82986  0.45038  0.67285  Biso   1.000  N
  N26      1.0000 0.68236  0.79297  0.49263  Biso   1.000  N
  N27      1.0000 0.50631  0.65865  0.83397  Biso   1.000  N
  N28      1.0000 0.33672  0.47083  0.83017  Biso   1.000  N
  N29      1.0000 0.18862  0.79610  0.00427  Biso   1.000  N
  N30      1.0000 0.00163  0.63726  0.69278  Biso   1.000  N
  N31      1.0000 0.68279  0.96124  0.69248  Biso   1.000  N
  N32      1.0000 0.83733  0.29055  0.48565  Biso   1.000  N
  N33      1.0000 0.02762  0.14017  0.81822  Biso   1.000  N
  N34      1.0000 0.18106  0.98139  0.82443  Biso   1.000  N
  N35      1.0000 0.33430  0.29867  0.00137  Biso   1.000  N
  N36      1.0000 0.52672  0.15606  0.67531  Biso   1.000  N
  N37      1.0000 0.19162  0.48667  0.33895  Biso   1.000  N
  N38      1.0000 0.33934  0.15414  0.49456  Biso   1.000  N
  N39      1.0000 0.50858  0.29193  0.17105  Biso   1.000  N
  N40      1.0000 0.68824  0.47611  0.17659  Biso   1.000  N
  N41      1.0000 0.83649  0.14422  0.00285  Biso   1.000  N
  N42      1.0000 0.00708  0.30417  0.31894  Biso   1.000  N
  N43      1.0000 0.34162  0.97294  0.32552  Biso   1.000  N
  N44      1.0000 0.18258  0.65555  0.52661  Biso   1.000  N
  N45      1.0000 0.02550  0.80036  0.19069  Biso   1.000  N
  N46      1.0000 0.83885  0.96937  0.19044  Biso   1.000  N
  N47      1.0000 0.69177  0.64435  0.00842  Biso   1.000  N
  N48      1.0000 0.51426  0.79794  0.33358  Biso   1.000  N
  O1       1.0000 0.35165  0.51865  0.00427  Biso   1.000  O
  O2       1.0000 0.01554  0.31428  0.54166  Biso   1.000  O
  O3       1.0000 0.55988  0.97784  0.35282  Biso   1.000  O
  O4       1.0000 0.84950  0.50821  0.49807  Biso   1.000  O
  O5       1.0000 0.51897  0.31871  0.95987  Biso   1.000  O
  O6       1.0000 0.05608  0.98176  0.16222  Biso   1.000  O
  O7       1.0000 0.16723  0.01715  0.00176  Biso   1.000  O
  O8       1.0000 0.51292  0.81774  0.55085  Biso   1.000  O
  O9       1.0000 0.96951  0.48411  0.35078  Biso   1.000  O
  O10      1.0000 0.67240  0.00937  0.51750  Biso   1.000  O
  O11      1.0000 0.99833  0.81734  0.97171  Biso   1.000  O
  O12      1.0000 0.46666  0.47453  0.15800  Biso   1.000  O
  O13      1.0000 0.66900  0.42994  0.00763  Biso   1.000  O
  O14      1.0000 0.00506  0.63219  0.47513  Biso   1.000  O
  O15      1.0000 0.46364  0.98461  0.66204  Biso   1.000  O
  O16      1.0000 0.16868  0.43663  0.51362  Biso   1.000  O
  O17      1.0000 0.50904  0.62544  0.05070  Biso   1.000  O
  O18      1.0000 0.96487  0.96407  0.85017  Biso   1.000  O
  O19      1.0000 0.85411  0.92720  0.01978  Biso   1.000  O
  O20      1.0000 0.52130  0.12602  0.45972  Biso   1.000  O
  O21      1.0000 0.04507  0.47773  0.66077  Biso   1.000  O
  O22      1.0000 0.35286  0.93639  0.50665  Biso   1.000  O
  O23      1.0000 0.01420  0.12859  0.03954  Biso   1.000  O
  O24      1.0000 0.55231  0.48341  0.85301  Biso   1.000  O
  O25      1.0000 0.97442  0.96922  0.16861  Biso   1.000  O
  O26      1.0000 0.16676  0.93243  0.99952  Biso   1.000  O
  O27      1.0000 0.01341  0.12596  0.95416  Biso   1.000  O
  O28      1.0000 0.47663  0.97960  0.35487  Biso   1.000  O
  O29      1.0000 0.66657  0.92576  0.50990  Biso   1.000  O
  O30      1.0000 0.51237  0.13144  0.54249  Biso   1.000  O
  O31      1.0000 0.55021  0.47009  0.15708  Biso   1.000  O
  O32      1.0000 0.35374  0.43439  0.00896  Biso   1.000  O
  O33      1.0000 0.51699  0.63101  0.96592  Biso   1.000  O
  O34      1.0000 0.05667  0.47590  0.35611  Biso   1.000  O
  O35      1.0000 0.85049  0.42379  0.49830  Biso   1.000  O
  O36      1.0000 0.00047  0.62593  0.55819  Biso   1.000  O
  O37      1.0000 0.04768  0.95726  0.84414  Biso   1.000  O
  O38      1.0000 0.85742  0.01005  0.01894  Biso   1.000  O
  O39      1.0000 0.02010  0.81479  0.05766  Biso   1.000  O
  O40      1.0000 0.54647  0.97212  0.66396  Biso   1.000  O
  O41      1.0000 0.35032  0.02025  0.50350  Biso   1.000  O
  O42      1.0000 0.49726  0.81601  0.46792  Biso   1.000  O
  O43      1.0000 0.46916  0.47708  0.85057  Biso   1.000  O
  O44      1.0000 0.67179  0.51363  0.99783  Biso   1.000  O
  O45      1.0000 0.50708  0.31281  0.03939  Biso   1.000  O
  O46      1.0000 0.96540  0.45332  0.65614  Biso   1.000  O
  O47      1.0000 0.16550  0.52085  0.51188  Biso   1.000  O
  O48      1.0000 0.01647  0.31929  0.45864  Biso   1.000  O
  O49      1.0000 0.02041  0.93285  0.16575  Biso   1.000  O
  O50      1.0000 0.16364  0.97696  0.95806  Biso   1.000  O
  O51      1.0000 0.97250  0.12555  0.99426  Biso   1.000  O
  O52      1.0000 0.51897  0.93313  0.35522  Biso   1.000  O
  O53      1.0000 0.66701  0.96588  0.55579  Biso   1.000  O
  O54      1.0000 0.47538  0.13155  0.49541  Biso   1.000  O
  O55      1.0000 0.50714  0.43039  0.15570  Biso   1.000  O
  O56      1.0000 0.35371  0.47396  0.96487  Biso   1.000  O
  O57      1.0000 0.55756  0.62545  0.01118  Biso   1.000  O
  O58      1.0000 0.01060  0.43626  0.34846  Biso   1.000  O
  O59      1.0000 0.85006  0.47036  0.54114  Biso   1.000  O
  O60      1.0000 0.04622  0.63429  0.51868  Biso   1.000  O
  O61      1.0000 0.00849  0.00701  0.84402  Biso   1.000  O
  O62      1.0000 0.85526  0.96559  0.05979  Biso   1.000  O
  O63      1.0000 0.05397  0.81593  0.00419  Biso   1.000  O
  O64      1.0000 0.50968  0.02313  0.66195  Biso   1.000  O
  O65      1.0000 0.35246  0.97617  0.46313  Biso   1.000  O
  O66      1.0000 0.54524  0.81434  0.50567  Biso   1.000  O
  O67      1.0000 0.50752  0.52299  0.85191  Biso   1.000  O
  O68      1.0000 0.67031  0.47541  0.04316  Biso   1.000  O
  O69      1.0000 0.47080  0.31958  0.99211  Biso   1.000  O
  O70      1.0000 0.99450  0.50520  0.66281  Biso   1.000  O
  O71      1.0000 0.17064  0.47508  0.47289  Biso   1.000  O
  O72      1.0000 0.97361  0.31476  0.49623  Biso   1.000  O
  O73      1.0000 0.01879  0.42463  0.66032  Biso   1.000  O
  O74      1.0000 0.67217  0.97336  0.47417  Biso   1.000  O
  O75      1.0000 0.47306  0.62902  0.00054  Biso   1.000  O
  O76      1.0000 0.51841  0.43744  0.85356  Biso   1.000  O
  O77      1.0000 0.16459  0.97443  0.04440  Biso   1.000  O
  O78      1.0000 0.96297  0.62646  0.51420  Biso   1.000  O
  O79      1.0000 0.49667  0.93920  0.66196  Biso   1.000  O
  O80      1.0000 0.85340  0.46549  0.45747  Biso   1.000  O
  O81      1.0000 0.05645  0.12530  0.99846  Biso   1.000  O
  O82      1.0000 0.00798  0.92031  0.84957  Biso   1.000  O
  O83      1.0000 0.35505  0.47714  0.05093  Biso   1.000  O
  O84      1.0000 0.56007  0.12852  0.50632  Biso   1.000  O
  O85      1.0000 0.01681  0.51997  0.35419  Biso   1.000  O
  O86      1.0000 0.35085  0.97719  0.54443  Biso   1.000  O
  O87      1.0000 0.55380  0.31303  0.00942  Biso   1.000  O
  O88      1.0000 0.51186  0.51389  0.16235  Biso   1.000  O
  O89      1.0000 0.85581  0.96579  0.97473  Biso   1.000  O
  O90      1.0000 0.05629  0.32130  0.49440  Biso   1.000  O
  O91      1.0000 0.52036  0.01855  0.35082  Biso   1.000  O
  O92      1.0000 0.17131  0.48047  0.55412  Biso   1.000  O
  O93      1.0000 0.97208  0.81863  0.02541  Biso   1.000  O
  O94      1.0000 0.01108  0.01537  0.16413  Biso   1.000  O
  O95      1.0000 0.67398  0.46902  0.96135  Biso   1.000  O
  O96      1.0000 0.46284  0.81586  0.51802  Biso   1.000  O
  O97      1.0000 0.47470  0.17938  0.49144  Biso   1.000  O
  O98      1.0000 0.50814  0.42703  0.20398  Biso   1.000  O
  O99      1.0000 0.21928  0.48002  0.47505  Biso   1.000  O
  O100     1.0000 0.97293  0.17372  0.99042  Biso   1.000  O
  O101     1.0000 0.01207  0.43969  0.30038  Biso   1.000  O
  O102     1.0000 0.71875  0.47374  0.04233  Biso   1.000  O
  O103     1.0000 0.04486  0.68273  0.52167  Biso   1.000  O
  O104     1.0000 0.02049  0.93538  0.21363  Biso   1.000  O
  O105     1.0000 0.30335  0.97556  0.45918  Biso   1.000  O
  O106     1.0000 0.55646  0.67353  0.01902  Biso   1.000  O
  O107     1.0000 0.52061  0.93199  0.30663  Biso   1.000  O
  O108     1.0000 0.80658  0.96935  0.05816  Biso   1.000  O
  O109     1.0000 0.54865  0.76517  0.50452  Biso   1.000  O
  O110     1.0000 0.50428  0.52116  0.80342  Biso   1.000  O
  O111     1.0000 0.80229  0.46498  0.53761  Biso   1.000  O
  O112     1.0000 0.05545  0.76743  0.00471  Biso   1.000  O
  O113     1.0000 0.98790  0.50072  0.71120  Biso   1.000  O
  O114     1.0000 0.30567  0.47177  0.96354  Biso   1.000  O
  O115     1.0000 0.97383  0.26577  0.49636  Biso   1.000  O
  O116     1.0000 0.00408  0.00475  0.79639  Biso   1.000  O
  O117     1.0000 0.71599  0.96199  0.55624  Biso   1.000  O
  O118     1.0000 0.47164  0.27109  0.99157  Biso   1.000  O
  O119     1.0000 0.51116  0.02281  0.71038  Biso   1.000  O
  O120     1.0000 0.21518  0.97557  0.95861  Biso   1.000  O
  O121     1.0000 0.04284  0.47746  0.70844  Biso   1.000  O
  O122     1.0000 0.72034  0.00844  0.52292  Biso   1.000  O
  O123     1.0000 0.51109  0.67365  0.05253  Biso   1.000  O
  O124     1.0000 0.55274  0.48751  0.80483  Biso   1.000  O
  O125     1.0000 0.21509  0.01270  0.00212  Biso   1.000  O
  O126     1.0000 0.00490  0.68043  0.47567  Biso   1.000  O
  O127     1.0000 0.46348  0.98606  0.71172  Biso   1.000  O
  O128     1.0000 0.80098  0.50814  0.49772  Biso   1.000  O
  O129     1.0000 0.01056  0.17696  0.04005  Biso   1.000  O
  O130     1.0000 0.95955  0.96510  0.80414  Biso   1.000  O
  O131     1.0000 0.30302  0.51827  0.00749  Biso   1.000  O
  O132     1.0000 0.52413  0.17525  0.45875  Biso   1.000  O
  O133     1.0000 0.97431  0.49030  0.30160  Biso   1.000  O
  O134     1.0000 0.30401  0.93831  0.50411  Biso   1.000  O
  O135     1.0000 0.51984  0.27017  0.95696  Biso   1.000  O
  O136     1.0000 0.47062  0.48071  0.20588  Biso   1.000  O
  O137     1.0000 0.80526  0.92692  0.02119  Biso   1.000  O
  O138     1.0000 0.01716  0.26640  0.53936  Biso   1.000  O
  O139     1.0000 0.55918  0.97274  0.30373  Biso   1.000  O
  O140     1.0000 0.21786  0.43960  0.51611  Biso   1.000  O
  O141     1.0000 0.00253  0.76940  0.97392  Biso   1.000  O
  O142     1.0000 0.05840  0.98419  0.21097  Biso   1.000  O
  O143     1.0000 0.71660  0.42825  0.00759  Biso   1.000  O
  O144     1.0000 0.50819  0.76893  0.55181  Biso   1.000  O
  O145     1.0000 0.55360  0.46459  0.20678  Biso   1.000  O
  O146     1.0000 0.21585  0.52467  0.51604  Biso   1.000  O
  O147     1.0000 0.51388  0.18102  0.54158  Biso   1.000  O
  O148     1.0000 0.05600  0.47827  0.30784  Biso   1.000  O
  O149     1.0000 0.72044  0.51193  0.00015  Biso   1.000  O
  O150     1.0000 0.01978  0.17424  0.95213  Biso   1.000  O
  O151     1.0000 0.97593  0.97856  0.21583  Biso   1.000  O
  O152     1.0000 0.30329  0.02179  0.49290  Biso   1.000  O
  O153     1.0000 0.00085  0.67514  0.55988  Biso   1.000  O
  O154     1.0000 0.47491  0.97253  0.30617  Biso   1.000  O
  O155     1.0000 0.80879  0.01073  0.01457  Biso   1.000  O
  O156     1.0000 0.52639  0.67834  0.96951  Biso   1.000  O
  O157     1.0000 0.47039  0.47497  0.80116  Biso   1.000  O
  O158     1.0000 0.80140  0.42349  0.49381  Biso   1.000  O
  O159     1.0000 0.50030  0.76732  0.46843  Biso   1.000  O
  O160     1.0000 0.96469  0.45696  0.70531  Biso   1.000  O
  O161     1.0000 0.30586  0.43466  0.00548  Biso   1.000  O
  O162     1.0000 0.02581  0.76745  0.05525  Biso   1.000  O
  O163     1.0000 0.04528  0.96184  0.79636  Biso   1.000  O
  O164     1.0000 0.71725  0.92568  0.50856  Biso   1.000  O
  O165     1.0000 0.02093  0.27031  0.45582  Biso   1.000  O
  O166     1.0000 0.54686  0.97521  0.71189  Biso   1.000  O
  O167     1.0000 0.21552  0.93072  0.99993  Biso   1.000  O
  O168     1.0000 0.50788  0.26403  0.03923  Biso   1.000  O
  O169     1.0000 0.01373  0.02085  0.21214  Biso   1.000  O
  O170     1.0000 0.21375  0.96862  0.04177  Biso   1.000  O
  O171     1.0000 0.05355  0.17330  0.99688  Biso   1.000  O
  O172     1.0000 0.51948  0.01390  0.30100  Biso   1.000  O
  O173     1.0000 0.72093  0.97273  0.47571  Biso   1.000  O
  O174     1.0000 0.56056  0.17749  0.50601  Biso   1.000  O
  O175     1.0000 0.51689  0.51133  0.21093  Biso   1.000  O
  O176     1.0000 0.30481  0.47699  0.04929  Biso   1.000  O
  O177     1.0000 0.47291  0.67680  0.00679  Biso   1.000  O
  O178     1.0000 0.02164  0.52287  0.30633  Biso   1.000  O
  O179     1.0000 0.80566  0.46681  0.45434  Biso   1.000  O
  O180     1.0000 0.95849  0.67633  0.52046  Biso   1.000  O
  O181     1.0000 0.99876  0.92213  0.80188  Biso   1.000  O
  O182     1.0000 0.80751  0.96385  0.97635  Biso   1.000  O
  O183     1.0000 0.97277  0.77100  0.02708  Biso   1.000  O
  O184     1.0000 0.49756  0.93883  0.70919  Biso   1.000  O
  O185     1.0000 0.30389  0.98292  0.54059  Biso   1.000  O
  O186     1.0000 0.46218  0.76744  0.51328  Biso   1.000  O
  O187     1.0000 0.51867  0.43988  0.80360  Biso   1.000  O
  O188     1.0000 0.72253  0.46743  0.96024  Biso   1.000  O
  O189     1.0000 0.55490  0.26569  0.00589  Biso   1.000  O
  O190     1.0000 0.01980  0.42417  0.70841  Biso   1.000  O
  O191     1.0000 0.21929  0.48248  0.55731  Biso   1.000  O
  O192     1.0000 0.05985  0.27290  0.49624  Biso   1.000  O
