data_image0
_cell_length_a       46.9748
_cell_length_b       46.9706
_cell_length_c       46.4596
_cell_angle_alpha    90
_cell_angle_beta     90
_cell_angle_gamma    90

_symmetry_space_group_name_H-M    "P 1"
_symmetry_int_tables_number       1

loop_
  _symmetry_equiv_pos_as_xyz
  'x, y, z'

loop_
  _atom_site_label
  _atom_site_occupancy
  _atom_site_fract_x
  _atom_site_fract_y
  _atom_site_fract_z
  _atom_site_thermal_displace_type
  _atom_site_B_iso_or_equiv
  _atom_site_type_symbol
  C1       1.0000 0.59041  0.98702  0.32052  Biso   1.000  C
  C2       1.0000 0.36008  0.53909  0.99345  Biso   1.000  C
  C3       1.0000 0.04151  0.29346  0.54460  Biso   1.000  C
  C4       1.0000 0.09023  0.99226  0.18087  Biso   1.000  C
  C5       1.0000 0.85508  0.52362  0.51414  Biso   1.000  C
  C6       1.0000 0.53636  0.29627  0.93855  Biso   1.000  C
  C7       1.0000 0.98548  0.49452  0.31500  Biso   1.000  C
  C8       1.0000 0.21581  0.03988  0.99860  Biso   1.000  C
  C9       1.0000 0.52760  0.79343  0.55322  Biso   1.000  C
  C10      1.0000 0.48025  0.48352  0.18219  Biso   1.000  C
  C11      1.0000 0.71342  0.02951  0.50039  Biso   1.000  C
  C12      1.0000 0.04470  0.79584  0.95178  Biso   1.000  C
  C13      1.0000 0.47326  0.98609  0.67120  Biso   1.000  C
  C14      1.0000 0.71015  0.42126  0.00402  Biso   1.000  C
  C15      1.0000 0.03124  0.66241  0.45504  Biso   1.000  C
  C16      1.0000 0.97003  0.96534  0.81985  Biso   1.000  C
  C17      1.0000 0.21764  0.43046  0.50453  Biso   1.000  C
  C18      1.0000 0.54655  0.66212  0.05595  Biso   1.000  C
  C19      1.0000 0.09003  0.45994  0.68511  Biso   1.000  C
  C20      1.0000 0.85583  0.92042  0.01049  Biso   1.000  C
  C21      1.0000 0.54651  0.15778  0.44164  Biso   1.000  C
  C22      1.0000 0.59124  0.48534  0.81706  Biso   1.000  C
  C23      1.0000 0.35240  0.92550  0.49031  Biso   1.000  C
  C24      1.0000 0.03529  0.16310  0.04520  Biso   1.000  C
  C25      1.0000 0.35098  0.03413  0.48882  Biso   1.000  C
  C26      1.0000 0.52954  0.29682  0.04826  Biso   1.000  C
  C27      1.0000 0.09235  0.48740  0.32101  Biso   1.000  C
  C28      1.0000 0.85330  0.02948  0.00086  Biso   1.000  C
  C29      1.0000 0.03871  0.29895  0.43501  Biso   1.000  C
  C30      1.0000 0.58775  0.47262  0.18131  Biso   1.000  C
  C31      1.0000 0.21349  0.54038  0.50790  Biso   1.000  C
  C32      1.0000 0.03679  0.80975  0.05608  Biso   1.000  C
  C33      1.0000 0.48615  0.96282  0.31258  Biso   1.000  C
  C34      1.0000 0.71618  0.52642  0.98996  Biso   1.000  C
  C35      1.0000 0.53379  0.79431  0.44487  Biso   1.000  C
  C36      1.0000 0.98243  0.98605  0.18226  Biso   1.000  C
  C37      1.0000 0.71260  0.92116  0.49970  Biso   1.000  C
  C38      1.0000 0.53181  0.66340  0.94715  Biso   1.000  C
  C39      1.0000 0.98177  0.46895  0.67968  Biso   1.000  C
  C40      1.0000 0.21815  0.92970  0.98562  Biso   1.000  C
  C41      1.0000 0.02356  0.65124  0.56291  Biso   1.000  C
  C42      1.0000 0.48387  0.47276  0.81754  Biso   1.000  C
  C43      1.0000 0.85611  0.41664  0.49579  Biso   1.000  C
  C44      1.0000 0.02673  0.15564  0.93660  Biso   1.000  C
  C45      1.0000 0.57853  0.97666  0.68224  Biso   1.000  C
  C46      1.0000 0.35580  0.43016  0.00697  Biso   1.000  C
  C47      1.0000 0.52778  0.15989  0.54881  Biso   1.000  C
  C48      1.0000 0.08187  0.97115  0.81155  Biso   1.000  C
  C49      1.0000 0.02334  0.02093  0.81542  Biso   1.000  C
  C50      1.0000 0.85557  0.98079  0.05928  Biso   1.000  C
  C51      1.0000 0.09527  0.80222  0.00606  Biso   1.000  C
  C52      1.0000 0.53463  0.03439  0.67451  Biso   1.000  C
  C53      1.0000 0.35552  0.97990  0.43499  Biso   1.000  C
  C54      1.0000 0.58507  0.79566  0.49940  Biso   1.000  C
  C55      1.0000 0.53148  0.53569  0.81906  Biso   1.000  C
  C56      1.0000 0.71238  0.48138  0.05320  Biso   1.000  C
  C57      1.0000 0.47615  0.29829  0.99360  Biso   1.000  C
  C58      1.0000 0.03557  0.51888  0.68838  Biso   1.000  C
  C59      1.0000 0.21314  0.48903  0.45264  Biso   1.000  C
  C60      1.0000 0.98303  0.29375  0.49138  Biso   1.000  C
  C61      1.0000 0.04063  0.93636  0.18447  Biso   1.000  C
  C62      1.0000 0.21079  0.98827  0.93571  Biso   1.000  C
  C63      1.0000 0.97611  0.15743  0.99436  Biso   1.000  C
  C64      1.0000 0.54736  0.92219  0.31884  Biso   1.000  C
  C65      1.0000 0.70885  0.97444  0.55428  Biso   1.000  C
  C66      1.0000 0.48449  0.15918  0.48723  Biso   1.000  C
  C67      1.0000 0.52835  0.42074  0.18164  Biso   1.000  C
  C68      1.0000 0.36076  0.47622  0.94598  Biso   1.000  C
  C69      1.0000 0.59366  0.66351  0.99334  Biso   1.000  C
  C70      1.0000 0.03432  0.43733  0.31604  Biso   1.000  C
  C71      1.0000 0.85176  0.46071  0.55569  Biso   1.000  C
  C72      1.0000 0.08010  0.66118  0.51265  Biso   1.000  C
  C73      1.0000 0.04397  0.54444  0.31914  Biso   1.000  C
  C74      1.0000 0.34863  0.98162  0.54434  Biso   1.000  C
  C75      1.0000 0.58433  0.29209  0.99918  Biso   1.000  C
  C76      1.0000 0.54110  0.52894  0.18728  Biso   1.000  C
  C77      1.0000 0.84683  0.96738  0.95016  Biso   1.000  C
  C78      1.0000 0.09549  0.29884  0.49007  Biso   1.000  C
  C79      1.0000 0.53027  0.02833  0.31737  Biso   1.000  C
  C80      1.0000 0.21589  0.48171  0.56182  Biso   1.000  C
  C81      1.0000 0.98430  0.79905  0.99844  Biso   1.000  C
  C82      1.0000 0.03140  0.04328  0.17683  Biso   1.000  C
  C83      1.0000 0.71304  0.46333  0.94815  Biso   1.000  C
  C84      1.0000 0.47630  0.79259  0.49598  Biso   1.000  C
  C85      1.0000 0.03454  0.41245  0.67828  Biso   1.000  C
  C86      1.0000 0.71826  0.98297  0.44249  Biso   1.000  C
  C87      1.0000 0.48712  0.66320  0.01297  Biso   1.000  C
  C88      1.0000 0.54024  0.42823  0.81245  Biso   1.000  C
  C89      1.0000 0.21507  0.97800  0.04581  Biso   1.000  C
  C90      1.0000 0.97213  0.65765  0.50621  Biso   1.000  C
  C91      1.0000 0.52253  0.92406  0.67590  Biso   1.000  C
  C92      1.0000 0.85833  0.48175  0.44575  Biso   1.000  C
  C93      1.0000 0.08388  0.15969  0.99219  Biso   1.000  C
  C94      1.0000 0.03164  0.91300  0.81412  Biso   1.000  C
  C95      1.0000 0.35909  0.49023  0.05518  Biso   1.000  C
  C96      1.0000 0.59084  0.15699  0.50855  Biso   1.000  C
  C97      1.0000 0.71410  0.06188  0.50701  Biso   1.000  C
  C98      1.0000 0.54910  0.66033  0.08898  Biso   1.000  C
  C99      1.0000 0.12118  0.45504  0.68610  Biso   1.000  C
  C100     1.0000 0.21405  0.07187  0.00611  Biso   1.000  C
  C101     1.0000 0.03204  0.66490  0.42197  Biso   1.000  C
  C102     1.0000 0.62330  0.48185  0.81734  Biso   1.000  C
  C103     1.0000 0.85296  0.55673  0.51594  Biso   1.000  C
  C104     1.0000 0.03882  0.16703  0.07741  Biso   1.000  C
  C105     1.0000 0.44171  0.98699  0.67005  Biso   1.000  C
  C106     1.0000 0.36069  0.56993  0.98909  Biso   1.000  C
  C107     1.0000 0.54899  0.15822  0.40936  Biso   1.000  C
  C108     1.0000 0.93672  0.96664  0.82058  Biso   1.000  C
  C109     1.0000 0.35263  0.89351  0.49090  Biso   1.000  C
  C110     1.0000 0.53949  0.29769  0.90605  Biso   1.000  C
  C111     1.0000 0.95379  0.49833  0.31563  Biso   1.000  C
  C112     1.0000 0.85463  0.88841  0.00858  Biso   1.000  C
  C113     1.0000 0.04206  0.28946  0.57691  Biso   1.000  C
  C114     1.0000 0.44897  0.48658  0.18328  Biso   1.000  C
  C115     1.0000 0.21945  0.39786  0.50392  Biso   1.000  C
  C116     1.0000 0.04516  0.79308  0.91880  Biso   1.000  C
  C117     1.0000 0.62121  0.99530  0.31919  Biso   1.000  C
  C118     1.0000 0.71075  0.39080  0.99751  Biso   1.000  C
  C119     1.0000 0.52488  0.79630  0.58549  Biso   1.000  C
  C120     1.0000 0.12199  0.99046  0.17981  Biso   1.000  C
  C121     1.0000 0.85329  0.98546  0.09139  Biso   1.000  C
  C122     1.0000 0.12621  0.80286  0.99752  Biso   1.000  C
  C123     1.0000 0.02344  0.05320  0.81349  Biso   1.000  C
  C124     1.0000 0.35641  0.97643  0.40284  Biso   1.000  C
  C125     1.0000 0.61828  0.79570  0.49940  Biso   1.000  C
  C126     1.0000 0.53858  0.06609  0.67423  Biso   1.000  C
  C127     1.0000 0.71363  0.48760  0.08433  Biso   1.000  C
  C128     1.0000 0.44463  0.29959  0.99830  Biso   1.000  C
  C129     1.0000 0.52918  0.56763  0.82068  Biso   1.000  C
  C130     1.0000 0.21391  0.49360  0.42096  Biso   1.000  C
  C131     1.0000 0.95171  0.29143  0.49629  Biso   1.000  C
  C132     1.0000 0.03080  0.55070  0.68949  Biso   1.000  C
  C133     1.0000 0.21063  0.99116  0.90333  Biso   1.000  C
  C134     1.0000 0.94413  0.15617  0.99304  Biso   1.000  C
  C135     1.0000 0.03663  0.90412  0.18518  Biso   1.000  C
  C136     1.0000 0.70872  0.97967  0.58637  Biso   1.000  C
  C137     1.0000 0.45245  0.15646  0.48263  Biso   1.000  C
  C138     1.0000 0.54714  0.88999  0.31703  Biso   1.000  C
  C139     1.0000 0.35986  0.47426  0.91397  Biso   1.000  C
  C140     1.0000 0.62684  0.66354  0.99026  Biso   1.000  C
  C141     1.0000 0.52893  0.38868  0.18044  Biso   1.000  C
  C142     1.0000 0.85164  0.45653  0.58652  Biso   1.000  C
  C143     1.0000 0.11286  0.66258  0.51632  Biso   1.000  C
  C144     1.0000 0.03551  0.40351  0.31437  Biso   1.000  C
  C145     1.0000 0.35866  0.49499  0.08622  Biso   1.000  C
  C146     1.0000 0.12658  0.29977  0.49642  Biso   1.000  C
  C147     1.0000 0.53200  0.06091  0.31688  Biso   1.000  C
  C148     1.0000 0.85722  0.48271  0.41359  Biso   1.000  C
  C149     1.0000 0.61529  0.29257  0.00575  Biso   1.000  C
  C150     1.0000 0.03314  0.07602  0.17688  Biso   1.000  C
  C151     1.0000 0.21442  0.97807  0.07907  Biso   1.000  C
  C152     1.0000 0.44297  0.79393  0.49546  Biso   1.000  C
  C153     1.0000 0.04318  0.57734  0.32101  Biso   1.000  C
  C154     1.0000 0.71765  0.99532  0.41315  Biso   1.000  C
  C155     1.0000 0.95212  0.79702  0.99975  Biso   1.000  C
  C156     1.0000 0.54059  0.56176  0.18584  Biso   1.000  C
  C157     1.0000 0.71284  0.46384  0.91558  Biso   1.000  C
  C158     1.0000 0.93947  0.65776  0.50344  Biso   1.000  C
  C159     1.0000 0.52182  0.89202  0.67683  Biso   1.000  C
  C160     1.0000 0.21745  0.47594  0.59252  Biso   1.000  C
  C161     1.0000 0.45532  0.66448  0.01321  Biso   1.000  C
  C162     1.0000 0.03652  0.88229  0.81694  Biso   1.000  C
  C163     1.0000 0.84398  0.96599  0.91836  Biso   1.000  C
  C164     1.0000 0.62035  0.15606  0.51693  Biso   1.000  C
  C165     1.0000 0.03236  0.38054  0.67621  Biso   1.000  C
  C166     1.0000 0.34751  0.98593  0.57669  Biso   1.000  C
  C167     1.0000 0.11603  0.16041  0.99336  Biso   1.000  C
  C168     1.0000 0.53616  0.39675  0.81218  Biso   1.000  C
  C169     1.0000 0.03719  0.80960  0.08878  Biso   1.000  C
  C170     1.0000 0.11310  0.97811  0.81125  Biso   1.000  C
  C171     1.0000 0.85165  0.06131  0.99619  Biso   1.000  C
  C172     1.0000 0.53544  0.79468  0.41205  Biso   1.000  C
  C173     1.0000 0.61060  0.97469  0.68234  Biso   1.000  C
  C174     1.0000 0.35195  0.06619  0.49120  Biso   1.000  C
  C175     1.0000 0.52745  0.29722  0.08001  Biso   1.000  C
  C176     1.0000 0.45146  0.46663  0.81744  Biso   1.000  C
  C177     1.0000 0.71550  0.55825  0.98502  Biso   1.000  C
  C178     1.0000 0.04482  0.29989  0.40295  Biso   1.000  C
  C179     1.0000 0.95076  0.47795  0.67752  Biso   1.000  C
  C180     1.0000 0.21118  0.57230  0.50241  Biso   1.000  C
  C181     1.0000 0.02422  0.15386  0.90429  Biso   1.000  C
  C182     1.0000 0.95076  0.98948  0.18416  Biso   1.000  C
  C183     1.0000 0.21694  0.89837  0.98093  Biso   1.000  C
  C184     1.0000 0.52597  0.16033  0.58026  Biso   1.000  C
  C185     1.0000 0.45390  0.96178  0.30921  Biso   1.000  C
  C186     1.0000 0.71274  0.88896  0.50031  Biso   1.000  C
  C187     1.0000 0.52892  0.66432  0.91502  Biso   1.000  C
  C188     1.0000 0.61964  0.47905  0.17935  Biso   1.000  C
  C189     1.0000 0.35526  0.39848  0.01219  Biso   1.000  C
  C190     1.0000 0.02675  0.64836  0.59481  Biso   1.000  C
  C191     1.0000 0.12440  0.48548  0.31952  Biso   1.000  C
  C192     1.0000 0.85621  0.38434  0.49671  Biso   1.000  C
  C193     1.0000 0.87205  0.96556  0.90218  Biso   1.000  C
  C194     1.0000 0.93599  0.82410  0.00341  Biso   1.000  C
  C195     1.0000 0.04283  0.86852  0.84615  Biso   1.000  C
  C196     1.0000 0.37437  0.98786  0.59196  Biso   1.000  C
  C197     1.0000 0.42829  0.82201  0.49384  Biso   1.000  C
  C198     1.0000 0.51929  0.87572  0.65035  Biso   1.000  C
  C199     1.0000 0.68754  0.46790  0.89704  Biso   1.000  C
  C200     1.0000 0.63067  0.32036  0.00251  Biso   1.000  C
  C201     1.0000 0.53568  0.37956  0.83886  Biso   1.000  C
  C202     1.0000 0.19037  0.47167  0.60802  Biso   1.000  C
  C203     1.0000 0.14192  0.32747  0.50160  Biso   1.000  C
  C204     1.0000 0.03604  0.36511  0.64796  Biso   1.000  C
  C205     1.0000 0.18899  0.98150  0.09730  Biso   1.000  C
  C206     1.0000 0.13120  0.13330  0.99918  Biso   1.000  C
  C207     1.0000 0.03352  0.09243  0.14923  Biso   1.000  C
  C208     1.0000 0.69018  0.99531  0.39881  Biso   1.000  C
  C209     1.0000 0.63499  0.12884  0.51405  Biso   1.000  C
  C210     1.0000 0.53697  0.07692  0.34349  Biso   1.000  C
  C211     1.0000 0.38549  0.49442  0.10404  Biso   1.000  C
  C212     1.0000 0.44070  0.63752  0.00619  Biso   1.000  C
  C213     1.0000 0.54302  0.57735  0.15795  Biso   1.000  C
  C214     1.0000 0.88494  0.48789  0.39736  Biso   1.000  C
  C215     1.0000 0.92561  0.62918  0.50187  Biso   1.000  C
  C216     1.0000 0.03894  0.59003  0.34876  Biso   1.000  C
  C217     1.0000 0.12924  0.98014  0.83825  Biso   1.000  C
  C218     1.0000 0.87762  0.07763  0.99294  Biso   1.000  C
  C219     1.0000 0.03821  0.83677  0.10440  Biso   1.000  C
  C220     1.0000 0.62907  0.97424  0.65447  Biso   1.000  C
  C221     1.0000 0.38082  0.08183  0.49197  Biso   1.000  C
  C222     1.0000 0.53688  0.82201  0.39748  Biso   1.000  C
  C223     1.0000 0.43585  0.46729  0.84565  Biso   1.000  C
  C224     1.0000 0.68871  0.57616  0.98707  Biso   1.000  C
  C225     1.0000 0.52638  0.32368  0.09652  Biso   1.000  C
  C226     1.0000 0.93481  0.47166  0.65156  Biso   1.000  C
  C227     1.0000 0.18335  0.58607  0.50624  Biso   1.000  C
  C228     1.0000 0.04636  0.32703  0.38935  Biso   1.000  C
  C229     1.0000 0.93346  0.98743  0.15766  Biso   1.000  C
  C230     1.0000 0.19011  0.88204  0.98318  Biso   1.000  C
  C231     1.0000 0.02385  0.12530  0.89106  Biso   1.000  C
  C232     1.0000 0.43566  0.96229  0.33598  Biso   1.000  C
  C233     1.0000 0.68630  0.87334  0.50124  Biso   1.000  C
  C234     1.0000 0.52765  0.13340  0.59576  Biso   1.000  C
  C235     1.0000 0.63626  0.48029  0.15158  Biso   1.000  C
  C236     1.0000 0.38267  0.38135  0.01048  Biso   1.000  C
  C237     1.0000 0.52775  0.63702  0.89942  Biso   1.000  C
  C238     1.0000 0.13971  0.48803  0.34653  Biso   1.000  C
  C239     1.0000 0.88238  0.36800  0.49445  Biso   1.000  C
  C240     1.0000 0.02506  0.62030  0.60783  Biso   1.000  C
  C241     1.0000 0.63840  0.48003  0.84441  Biso   1.000  C
  C242     1.0000 0.87919  0.57392  0.51116  Biso   1.000  C
  C243     1.0000 0.52051  0.82327  0.60063  Biso   1.000  C
  C244     1.0000 0.13769  0.45931  0.65965  Biso   1.000  C
  C245     1.0000 0.38781  0.58466  0.99573  Biso   1.000  C
  C246     1.0000 0.04435  0.81937  0.90132  Biso   1.000  C
  C247     1.0000 0.92105  0.96466  0.84816  Biso   1.000  C
  C248     1.0000 0.68739  0.07676  0.51056  Biso   1.000  C
  C249     1.0000 0.04086  0.31618  0.59272  Biso   1.000  C
  C250     1.0000 0.42573  0.98428  0.64296  Biso   1.000  C
  C251     1.0000 0.18617  0.08604  0.00614  Biso   1.000  C
  C252     1.0000 0.54155  0.32486  0.89130  Biso   1.000  C
  C253     1.0000 0.43423  0.49188  0.15596  Biso   1.000  C
  C254     1.0000 0.19337  0.38173  0.50530  Biso   1.000  C
  C255     1.0000 0.54601  0.13013  0.39487  Biso   1.000  C
  C256     1.0000 0.93874  0.49618  0.34389  Biso   1.000  C
  C257     1.0000 0.68290  0.37369  0.00041  Biso   1.000  C
  C258     1.0000 0.03448  0.14312  0.09661  Biso   1.000  C
  C259     1.0000 0.13826  0.99041  0.15226  Biso   1.000  C
  C260     1.0000 0.37847  0.87584  0.49159  Biso   1.000  C
  C261     1.0000 0.03231  0.63877  0.40362  Biso   1.000  C
  C262     1.0000 0.63811  0.99525  0.34664  Biso   1.000  C
  C263     1.0000 0.88164  0.87329  0.00546  Biso   1.000  C
  C264     1.0000 0.54786  0.63220  0.10405  Biso   1.000  C
  C265     1.0000 0.02719  0.07013  0.83958  Biso   1.000  C
  C266     1.0000 0.88031  0.98484  0.10663  Biso   1.000  C
  C267     1.0000 0.14040  0.82877  0.99199  Biso   1.000  C
  C268     1.0000 0.53746  0.08132  0.64670  Biso   1.000  C
  C269     1.0000 0.38411  0.97485  0.38807  Biso   1.000  C
  C270     1.0000 0.63446  0.82338  0.50084  Biso   1.000  C
  C271     1.0000 0.52828  0.58286  0.84818  Biso   1.000  C
  C272     1.0000 0.68705  0.48751  0.10151  Biso   1.000  C
  C273     1.0000 0.42910  0.32720  0.99968  Biso   1.000  C
  C274     1.0000 0.03027  0.56652  0.66239  Biso   1.000  C
  C275     1.0000 0.18713  0.49097  0.40375  Biso   1.000  C
  C276     1.0000 0.93456  0.31688  0.49447  Biso   1.000  C
  C277     1.0000 0.03573  0.88743  0.15948  Biso   1.000  C
  C278     1.0000 0.18374  0.98768  0.88766  Biso   1.000  C
  C279     1.0000 0.92841  0.12906  0.99324  Biso   1.000  C
  C280     1.0000 0.54528  0.87330  0.34411  Biso   1.000  C
  C281     1.0000 0.68227  0.97621  0.60231  Biso   1.000  C
  C282     1.0000 0.43609  0.13021  0.48597  Biso   1.000  C
  C283     1.0000 0.52779  0.37417  0.15090  Biso   1.000  C
  C284     1.0000 0.38659  0.47295  0.89771  Biso   1.000  C
  C285     1.0000 0.64063  0.63362  0.98818  Biso   1.000  C
  C286     1.0000 0.04257  0.38588  0.33966  Biso   1.000  C
  C287     1.0000 0.88043  0.45841  0.60044  Biso   1.000  C
  C288     1.0000 0.12982  0.63649  0.51553  Biso   1.000  C
  C289     1.0000 0.37571  0.84486  0.49234  Biso   1.000  C
  C290     1.0000 0.53941  0.32611  0.85933  Biso   1.000  C
  C291     1.0000 0.90678  0.49368  0.34477  Biso   1.000  C
  C292     1.0000 0.88190  0.84168  0.00270  Biso   1.000  C
  C293     1.0000 0.03920  0.31391  0.62384  Biso   1.000  C
  C294     1.0000 0.40245  0.49486  0.15755  Biso   1.000  C
  C295     1.0000 0.19605  0.34956  0.50396  Biso   1.000  C
  C296     1.0000 0.04400  0.81679  0.87045  Biso   1.000  C
  C297     1.0000 0.66969  0.99846  0.34562  Biso   1.000  C
  C298     1.0000 0.68397  0.34238  0.00040  Biso   1.000  C
  C299     1.0000 0.52476  0.82268  0.63121  Biso   1.000  C
  C300     1.0000 0.16928  0.98424  0.15164  Biso   1.000  C
  C301     1.0000 0.68876  0.10773  0.51321  Biso   1.000  C
  C302     1.0000 0.54385  0.63089  0.13570  Biso   1.000  C
  C303     1.0000 0.16870  0.46112  0.66187  Biso   1.000  C
  C304     1.0000 0.18515  0.11657  0.01081  Biso   1.000  C
  C305     1.0000 0.03284  0.64198  0.37286  Biso   1.000  C
  C306     1.0000 0.67017  0.47592  0.84366  Biso   1.000  C
  C307     1.0000 0.87461  0.60544  0.51190  Biso   1.000  C
  C308     1.0000 0.03776  0.14393  0.12702  Biso   1.000  C
  C309     1.0000 0.39551  0.98952  0.64516  Biso   1.000  C
  C310     1.0000 0.38646  0.61603  0.99675  Biso   1.000  C
  C311     1.0000 0.54124  0.13058  0.36332  Biso   1.000  C
  C312     1.0000 0.89069  0.96641  0.84866  Biso   1.000  C
  C313     1.0000 0.19160  0.49139  0.37190  Biso   1.000  C
  C314     1.0000 0.40454  0.13401  0.49036  Biso   1.000  C
  C315     1.0000 0.53204  0.34207  0.14906  Biso   1.000  C
  C316     1.0000 0.68906  0.48761  0.13243  Biso   1.000  C
  C317     1.0000 0.89653  0.13058  0.99426  Biso   1.000  C
  C318     1.0000 0.04110  0.35431  0.33819  Biso   1.000  C
  C319     1.0000 0.38391  0.96959  0.35673  Biso   1.000  C
  C320     1.0000 0.16079  0.63867  0.50945  Biso   1.000  C
  C321     1.0000 0.03692  0.85615  0.16042  Biso   1.000  C
  C322     1.0000 0.87963  0.98894  0.13809  Biso   1.000  C
  C323     1.0000 0.67191  0.63163  0.98482  Biso   1.000  C
  C324     1.0000 0.53695  0.84392  0.34484  Biso   1.000  C
  C325     1.0000 0.88176  0.46312  0.63217  Biso   1.000  C
  C326     1.0000 0.66582  0.82264  0.50215  Biso   1.000  C
  C327     1.0000 0.52936  0.61562  0.84637  Biso   1.000  C
  C328     1.0000 0.38354  0.46881  0.86636  Biso   1.000  C
  C329     1.0000 0.17182  0.82876  0.98602  Biso   1.000  C
  C330     1.0000 0.03535  0.59716  0.66181  Biso   1.000  C
  C331     1.0000 0.68269  0.98084  0.63466  Biso   1.000  C
  C332     1.0000 0.90262  0.31497  0.49958  Biso   1.000  C
  C333     1.0000 0.02546  0.10101  0.83902  Biso   1.000  C
  C334     1.0000 0.18253  0.98887  0.85682  Biso   1.000  C
  C335     1.0000 0.39774  0.32660  0.00379  Biso   1.000  C
  C336     1.0000 0.53473  0.11185  0.64723  Biso   1.000  C
  C337     1.0000 0.69028  0.47069  0.86538  Biso   1.000  C
  C338     1.0000 0.89439  0.62821  0.50847  Biso   1.000  C
  C339     1.0000 0.52285  0.84497  0.65217  Biso   1.000  C
  C340     1.0000 0.19060  0.46696  0.64004  Biso   1.000  C
  C341     1.0000 0.40903  0.63751  0.00248  Biso   1.000  C
  C342     1.0000 0.04154  0.83713  0.84764  Biso   1.000  C
  C343     1.0000 0.86979  0.96659  0.87163  Biso   1.000  C
  C344     1.0000 0.66701  0.12961  0.51661  Biso   1.000  C
  C345     1.0000 0.03696  0.33400  0.64721  Biso   1.000  C
  C346     1.0000 0.37328  0.99060  0.62373  Biso   1.000  C
  C347     1.0000 0.16215  0.13628  0.00817  Biso   1.000  C
  C348     1.0000 0.53651  0.34799  0.83812  Biso   1.000  C
  C349     1.0000 0.38229  0.49724  0.13532  Biso   1.000  C
  C350     1.0000 0.17437  0.32707  0.50198  Biso   1.000  C
  C351     1.0000 0.53865  0.10903  0.34293  Biso   1.000  C
  C352     1.0000 0.88393  0.48932  0.36564  Biso   1.000  C
  C353     1.0000 0.66206  0.32050  0.00204  Biso   1.000  C
  C354     1.0000 0.03692  0.12300  0.14879  Biso   1.000  C
  C355     1.0000 0.19103  0.98082  0.12962  Biso   1.000  C
  C356     1.0000 0.39711  0.82186  0.49290  Biso   1.000  C
  C357     1.0000 0.03509  0.62098  0.34974  Biso   1.000  C
  C358     1.0000 0.69142  0.99901  0.36732  Biso   1.000  C
  C359     1.0000 0.90384  0.82180  0.00282  Biso   1.000  C
  C360     1.0000 0.54146  0.60881  0.15719  Biso   1.000  C
  C361     1.0000 0.02318  0.12419  0.85908  Biso   1.000  C
  C362     1.0000 0.90179  0.98964  0.15956  Biso   1.000  C
  C363     1.0000 0.19246  0.85008  0.98187  Biso   1.000  C
  C364     1.0000 0.53078  0.13413  0.62673  Biso   1.000  C
  C365     1.0000 0.40509  0.96471  0.33526  Biso   1.000  C
  C366     1.0000 0.68737  0.84284  0.50225  Biso   1.000  C
  C367     1.0000 0.52676  0.63791  0.86777  Biso   1.000  C
  C368     1.0000 0.66682  0.48496  0.15274  Biso   1.000  C
  C369     1.0000 0.37826  0.34977  0.00937  Biso   1.000  C
  C370     1.0000 0.03267  0.61967  0.64047  Biso   1.000  C
  C371     1.0000 0.17118  0.49137  0.34961  Biso   1.000  C
  C372     1.0000 0.88186  0.33651  0.49973  Biso   1.000  C
  C373     1.0000 0.03847  0.83594  0.13694  Biso   1.000  C
  C374     1.0000 0.16033  0.98731  0.83564  Biso   1.000  C
  C375     1.0000 0.87522  0.10856  0.99334  Biso   1.000  C
  C376     1.0000 0.53461  0.82213  0.36697  Biso   1.000  C
  C377     1.0000 0.65936  0.97988  0.65568  Biso   1.000  C
  C378     1.0000 0.38183  0.11372  0.49277  Biso   1.000  C
  C379     1.0000 0.53258  0.32099  0.12791  Biso   1.000  C
  C380     1.0000 0.40474  0.46605  0.84507  Biso   1.000  C
  C381     1.0000 0.69178  0.60747  0.98349  Biso   1.000  C
  C382     1.0000 0.04316  0.33067  0.35774  Biso   1.000  C
  C383     1.0000 0.90305  0.46985  0.65191  Biso   1.000  C
  C384     1.0000 0.18243  0.61697  0.50627  Biso   1.000  C
  C385     1.0000 0.21108  0.13334  0.01693  Biso   1.000  C
  C386     1.0000 0.04243  0.17033  0.14105  Biso   1.000  C
  C387     1.0000 0.18391  0.97994  0.17818  Biso   1.000  C
  C388     1.0000 0.71518  0.12307  0.51333  Biso   1.000  C
  C389     1.0000 0.54299  0.15658  0.34665  Biso   1.000  C
  C390     1.0000 0.68512  0.00390  0.31782  Biso   1.000  C
  C391     1.0000 0.36115  0.63355  0.99239  Biso   1.000  C
  C392     1.0000 0.54202  0.65749  0.15263  Biso   1.000  C
  C393     1.0000 0.38573  0.49608  0.18344  Biso   1.000  C
  C394     1.0000 0.84709  0.61985  0.51692  Biso   1.000  C
  C395     1.0000 0.03307  0.66906  0.35916  Biso   1.000  C
  C396     1.0000 0.89007  0.49437  0.31845  Biso   1.000  C
  C397     1.0000 0.85484  0.82603  0.00076  Biso   1.000  C
  C398     1.0000 0.04547  0.78888  0.85695  Biso   1.000  C
  C399     1.0000 0.87516  0.96536  0.82174  Biso   1.000  C
  C400     1.0000 0.34792  0.83047  0.49166  Biso   1.000  C
  C401     1.0000 0.52787  0.79661  0.64880  Biso   1.000  C
  C402     1.0000 0.38072  0.99541  0.67117  Biso   1.000  C
  C403     1.0000 0.71015  0.32548  0.99951  Biso   1.000  C
  C404     1.0000 0.53946  0.29906  0.84256  Biso   1.000  C
  C405     1.0000 0.68707  0.47689  0.81601  Biso   1.000  C
  C406     1.0000 0.22246  0.33400  0.50311  Biso   1.000  C
  C407     1.0000 0.03675  0.28690  0.63790  Biso   1.000  C
  C408     1.0000 0.18502  0.45585  0.68947  Biso   1.000  C
  C409     1.0000 0.17431  0.99303  0.80737  Biso   1.000  C
  C410     1.0000 0.84798  0.12334  0.99404  Biso   1.000  C
  C411     1.0000 0.03921  0.80904  0.15251  Biso   1.000  C
  C412     1.0000 0.67343  0.98455  0.68304  Biso   1.000  C
  C413     1.0000 0.35433  0.13059  0.49365  Biso   1.000  C
  C414     1.0000 0.52950  0.79574  0.34990  Biso   1.000  C
  C415     1.0000 0.38922  0.46225  0.81878  Biso   1.000  C
  C416     1.0000 0.71974  0.62060  0.98117  Biso   1.000  C
  C417     1.0000 0.53428  0.29265  0.14225  Biso   1.000  C
  C418     1.0000 0.88768  0.47104  0.68048  Biso   1.000  C
  C419     1.0000 0.20860  0.63379  0.50506  Biso   1.000  C
  C420     1.0000 0.04001  0.30572  0.33976  Biso   1.000  C
  C421     1.0000 0.88783  0.99450  0.18760  Biso   1.000  C
  C422     1.0000 0.21963  0.83507  0.98158  Biso   1.000  C
  C423     1.0000 0.02251  0.15013  0.84150  Biso   1.000  C
  C424     1.0000 0.39028  0.96249  0.30786  Biso   1.000  C
  C425     1.0000 0.71467  0.82661  0.50532  Biso   1.000  C
  C426     1.0000 0.53124  0.16223  0.64279  Biso   1.000  C
  C427     1.0000 0.68170  0.48595  0.18099  Biso   1.000  C
  C428     1.0000 0.35036  0.33519  0.01255  Biso   1.000  C
  C429     1.0000 0.52862  0.66408  0.85134  Biso   1.000  C
  C430     1.0000 0.18828  0.49121  0.32331  Biso   1.000  C
  C431     1.0000 0.85508  0.31966  0.50672  Biso   1.000  C
  C432     1.0000 0.03748  0.64604  0.65657  Biso   1.000  C
  C433     1.0000 0.02288  0.11485  0.81105  Biso   1.000  C
  C434     1.0000 0.85370  0.99126  0.15628  Biso   1.000  C
  C435     1.0000 0.18948  0.80220  0.98654  Biso   1.000  C
  C436     1.0000 0.53580  0.12776  0.67461  Biso   1.000  C
  C437     1.0000 0.35796  0.96719  0.34056  Biso   1.000  C
  C438     1.0000 0.68018  0.79591  0.50412  Biso   1.000  C
  C439     1.0000 0.52981  0.63200  0.81919  Biso   1.000  C
  C440     1.0000 0.71568  0.49017  0.14661  Biso   1.000  C
  C441     1.0000 0.38174  0.30077  0.00578  Biso   1.000  C
  C442     1.0000 0.04075  0.61258  0.68784  Biso   1.000  C
  C443     1.0000 0.21956  0.49232  0.35796  Biso   1.000  C
  C444     1.0000 0.88804  0.28817  0.50609  Biso   1.000  C
  C445     1.0000 0.03954  0.84098  0.18688  Biso   1.000  C
  C446     1.0000 0.20838  0.99542  0.83942  Biso   1.000  C
  C447     1.0000 0.88005  0.15677  0.99508  Biso   1.000  C
  C448     1.0000 0.53246  0.82958  0.31781  Biso   1.000  C
  C449     1.0000 0.70849  0.98560  0.65083  Biso   1.000  C
  C450     1.0000 0.38944  0.16217  0.49017  Biso   1.000  C
  C451     1.0000 0.53476  0.32480  0.17530  Biso   1.000  C
  C452     1.0000 0.35616  0.46523  0.85225  Biso   1.000  C
  C453     1.0000 0.68997  0.65722  0.98102  Biso   1.000  C
  C454     1.0000 0.03569  0.34158  0.30943  Biso   1.000  C
  C455     1.0000 0.85534  0.46086  0.64968  Biso   1.000  C
  C456     1.0000 0.17504  0.66556  0.50942  Biso   1.000  C
  C457     1.0000 0.03560  0.63889  0.32408  Biso   1.000  C
  C458     1.0000 0.34644  0.99356  0.63905  Biso   1.000  C
  C459     1.0000 0.67781  0.29363  0.00243  Biso   1.000  C
  C460     1.0000 0.53945  0.62552  0.18493  Biso   1.000  C
  C461     1.0000 0.84251  0.96869  0.85683  Biso   1.000  C
  C462     1.0000 0.18981  0.30019  0.49901  Biso   1.000  C
  C463     1.0000 0.53826  0.12324  0.31400  Biso   1.000  C
  C464     1.0000 0.21722  0.46602  0.65612  Biso   1.000  C
  C465     1.0000 0.88904  0.79423  0.99819  Biso   1.000  C
  C466     1.0000 0.03949  0.13855  0.17627  Biso   1.000  C
  C467     1.0000 0.71759  0.46775  0.84963  Biso   1.000  C
  C468     1.0000 0.38042  0.79550  0.49558  Biso   1.000  C
  C469     1.0000 0.03627  0.31615  0.67359  Biso   1.000  C
  C470     1.0000 0.71752  0.00591  0.35193  Biso   1.000  C
  C471     1.0000 0.39403  0.66665  0.00365  Biso   1.000  C
  C472     1.0000 0.53682  0.33290  0.80994  Biso   1.000  C
  C473     1.0000 0.21657  0.97589  0.14412  Biso   1.000  C
  C474     1.0000 0.87755  0.65389  0.51228  Biso   1.000  C
  C475     1.0000 0.52494  0.83049  0.67944  Biso   1.000  C
  C476     1.0000 0.85668  0.48706  0.35065  Biso   1.000  C
  C477     1.0000 0.17669  0.16331  0.00950  Biso   1.000  C
  C478     1.0000 0.04166  0.82027  0.82184  Biso   1.000  C
  C479     1.0000 0.35503  0.49932  0.14845  Biso   1.000  C
  C480     1.0000 0.68280  0.15571  0.51928  Biso   1.000  C
  C481     1.0000 0.39451  0.76826  0.49960  Biso   1.000  C
  C482     1.0000 0.53605  0.34840  0.78387  Biso   1.000  C
  C483     1.0000 0.83000  0.48355  0.36735  Biso   1.000  C
  C484     1.0000 0.90705  0.76885  0.99182  Biso   1.000  C
  C485     1.0000 0.03323  0.33089  0.70227  Biso   1.000  C
  C486     1.0000 0.32799  0.50127  0.13142  Biso   1.000  C
  C487     1.0000 0.17364  0.27310  0.49601  Biso   1.000  C
  C488     1.0000 0.03934  0.83414  0.79150  Biso   1.000  C
  C489     1.0000 0.74455  0.01019  0.36736  Biso   1.000  C
  C490     1.0000 0.66230  0.26760  0.01078  Biso   1.000  C
  C491     1.0000 0.52625  0.84546  0.70647  Biso   1.000  C
  C492     1.0000 0.24310  0.97115  0.12738  Biso   1.000  C
  C493     1.0000 0.66789  0.18235  0.52616  Biso   1.000  C
  C494     1.0000 0.53550  0.60906  0.21120  Biso   1.000  C
  C495     1.0000 0.24507  0.47178  0.63925  Biso   1.000  C
  C496     1.0000 0.15994  0.19055  0.00407  Biso   1.000  C
  C497     1.0000 0.04262  0.62648  0.29614  Biso   1.000  C
  C498     1.0000 0.74277  0.46007  0.86748  Biso   1.000  C
  C499     1.0000 0.89123  0.68218  0.51387  Biso   1.000  C
  C500     1.0000 0.03775  0.12436  0.20391  Biso   1.000  C
  C501     1.0000 0.31993  0.99505  0.62367  Biso   1.000  C
  C502     1.0000 0.40876  0.69287  0.01207  Biso   1.000  C
  C503     1.0000 0.53201  0.10709  0.28816  Biso   1.000  C
  C504     1.0000 0.81545  0.96810  0.87286  Biso   1.000  C
  C505     1.0000 0.67026  0.48160  0.78916  Biso   1.000  C
  C506     1.0000 0.82234  0.60167  0.52358  Biso   1.000  C
  C507     1.0000 0.53159  0.76927  0.63357  Biso   1.000  C
  C508     1.0000 0.16891  0.44725  0.71492  Biso   1.000  C
  C509     1.0000 0.33522  0.61818  0.98480  Biso   1.000  C
  C510     1.0000 0.04704  0.76157  0.87396  Biso   1.000  C
  C511     1.0000 0.88788  0.96599  0.79348  Biso   1.000  C
  C512     1.0000 0.74301  0.10764  0.51065  Biso   1.000  C
  C513     1.0000 0.03923  0.25982  0.62214  Biso   1.000  C
  C514     1.0000 0.39705  0.99719  0.69890  Biso   1.000  C
  C515     1.0000 0.23858  0.11785  0.01749  Biso   1.000  C
  C516     1.0000 0.54364  0.27031  0.85726  Biso   1.000  C
  C517     1.0000 0.40155  0.49325  0.21109  Biso   1.000  C
  C518     1.0000 0.24909  0.35055  0.49940  Biso   1.000  C
  C519     1.0000 0.54739  0.18476  0.36044  Biso   1.000  C
  C520     1.0000 0.90550  0.49645  0.29103  Biso   1.000  C
  C521     1.0000 0.73696  0.34186  0.99889  Biso   1.000  C
  C522     1.0000 0.04947  0.19639  0.12219  Biso   1.000  C
  C523     1.0000 0.16861  0.97993  0.20652  Biso   1.000  C
  C524     1.0000 0.32150  0.84840  0.48608  Biso   1.000  C
  C525     1.0000 0.02971  0.69430  0.37716  Biso   1.000  C
  C526     1.0000 0.66700  0.00334  0.29107  Biso   1.000  C
  C527     1.0000 0.82621  0.84155  0.00243  Biso   1.000  C
  C528     1.0000 0.54515  0.68629  0.13738  Biso   1.000  C
  C529     1.0000 0.82107  0.10605  0.99361  Biso   1.000  C
  C530     1.0000 0.04206  0.78141  0.13629  Biso   1.000  C
  C531     1.0000 0.15746  0.99248  0.78027  Biso   1.000  C
  C532     1.0000 0.32739  0.11533  0.49776  Biso   1.000  C
  C533     1.0000 0.52713  0.76882  0.36479  Biso   1.000  C
  C534     1.0000 0.65646  0.98091  0.71040  Biso   1.000  C
  C535     1.0000 0.74590  0.60345  0.97928  Biso   1.000  C
  C536     1.0000 0.52997  0.26600  0.12604  Biso   1.000  C
  C537     1.0000 0.40397  0.45987  0.79068  Biso   1.000  C
  C538     1.0000 0.23695  0.62015  0.50019  Biso   1.000  C
  C539     1.0000 0.04035  0.27736  0.35412  Biso   1.000  C
  C540     1.0000 0.90365  0.47927  0.70537  Biso   1.000  C
  C541     1.0000 0.24652  0.85271  0.98142  Biso   1.000  C
  C542     1.0000 0.02475  0.17920  0.85415  Biso   1.000  C
  C543     1.0000 0.90530  0.99763  0.21404  Biso   1.000  C
  C544     1.0000 0.74057  0.84374  0.50565  Biso   1.000  C
  C545     1.0000 0.52784  0.19018  0.62729  Biso   1.000  C
  C546     1.0000 0.40660  0.96053  0.28045  Biso   1.000  C
  C547     1.0000 0.32359  0.35366  0.01493  Biso   1.000  C
  C548     1.0000 0.53093  0.69193  0.86745  Biso   1.000  C
  C549     1.0000 0.66448  0.48699  0.20864  Biso   1.000  C
  C550     1.0000 0.82887  0.33630  0.50700  Biso   1.000  C
  C551     1.0000 0.03912  0.67349  0.64157  Biso   1.000  C
  C552     1.0000 0.17230  0.48909  0.29430  Biso   1.000  C
  C553     1.0000 0.01839  0.09872  0.78393  Biso   1.000  C
  C554     1.0000 0.82674  0.99300  0.13996  Biso   1.000  C
  C555     1.0000 0.17380  0.77448  0.98772  Biso   1.000  C
  C556     1.0000 0.54124  0.11373  0.70220  Biso   1.000  C
  C557     1.0000 0.32958  0.97256  0.35392  Biso   1.000  C
  C558     1.0000 0.66599  0.76729  0.50374  Biso   1.000  C
  C559     1.0000 0.52760  0.61507  0.79311  Biso   1.000  C
  C560     1.0000 0.74270  0.49449  0.13026  Biso   1.000  C
  C561     1.0000 0.39725  0.27316  0.00031  Biso   1.000  C
  C562     1.0000 0.04408  0.59742  0.71534  Biso   1.000  C
  C563     1.0000 0.24543  0.49716  0.37462  Biso   1.000  C
  C564     1.0000 0.90605  0.26207  0.50937  Biso   1.000  C
  C565     1.0000 0.03931  0.85696  0.21393  Biso   1.000  C
  C566     1.0000 0.23491  0.99661  0.85430  Biso   1.000  C
  C567     1.0000 0.89556  0.18338  0.99397  Biso   1.000  C
  C568     1.0000 0.53145  0.84695  0.29013  Biso   1.000  C
  C569     1.0000 0.73678  0.98822  0.63394  Biso   1.000  C
  C570     1.0000 0.40752  0.18832  0.48462  Biso   1.000  C
  C571     1.0000 0.53515  0.34005  0.20403  Biso   1.000  C
  C572     1.0000 0.32912  0.46628  0.86830  Biso   1.000  C
  C573     1.0000 0.67670  0.68611  0.98590  Biso   1.000  C
  C574     1.0000 0.02942  0.35923  0.28314  Biso   1.000  C
  C575     1.0000 0.82715  0.45556  0.63642  Biso   1.000  C
  C576     1.0000 0.15847  0.69290  0.51402  Biso   1.000  C
  C577     1.0000 0.33004  0.49892  0.10042  Biso   1.000  C
  C578     1.0000 0.14248  0.27402  0.49439  Biso   1.000  C
  C579     1.0000 0.52903  0.07621  0.28890  Biso   1.000  C
  C580     1.0000 0.83020  0.48200  0.39848  Biso   1.000  C
  C581     1.0000 0.63139  0.26661  0.01091  Biso   1.000  C
  C582     1.0000 0.03533  0.09240  0.20353  Biso   1.000  C
  C583     1.0000 0.24250  0.97175  0.09431  Biso   1.000  C
  C584     1.0000 0.42606  0.76791  0.49657  Biso   1.000  C
  C585     1.0000 0.04444  0.59503  0.29408  Biso   1.000  C
  C586     1.0000 0.74489  0.00434  0.39886  Biso   1.000  C
  C587     1.0000 0.93742  0.77007  0.99558  Biso   1.000  C
  C588     1.0000 0.53612  0.57813  0.21239  Biso   1.000  C
  C589     1.0000 0.73979  0.45875  0.89997  Biso   1.000  C
  C590     1.0000 0.92260  0.68415  0.50932  Biso   1.000  C
  C591     1.0000 0.52463  0.87702  0.70498  Biso   1.000  C
  C592     1.0000 0.24540  0.47668  0.60808  Biso   1.000  C
  C593     1.0000 0.43884  0.69133  0.01951  Biso   1.000  C
  C594     1.0000 0.03515  0.86481  0.79122  Biso   1.000  C
  C595     1.0000 0.81590  0.96880  0.90512  Biso   1.000  C
  C596     1.0000 0.63721  0.18132  0.52394  Biso   1.000  C
  C597     1.0000 0.03166  0.36172  0.70365  Biso   1.000  C
  C598     1.0000 0.31993  0.98943  0.59264  Biso   1.000  C
  C599     1.0000 0.13023  0.18803  0.99461  Biso   1.000  C
  C600     1.0000 0.53523  0.38050  0.78400  Biso   1.000  C
  C601     1.0000 0.23764  0.99564  0.88450  Biso   1.000  C
  C602     1.0000 0.92654  0.18300  0.99256  Biso   1.000  C
  C603     1.0000 0.03900  0.88896  0.21277  Biso   1.000  C
  C604     1.0000 0.73615  0.98548  0.60109  Biso   1.000  C
  C605     1.0000 0.43948  0.18523  0.47974  Biso   1.000  C
  C606     1.0000 0.54023  0.87699  0.28974  Biso   1.000  C
  C607     1.0000 0.33215  0.47310  0.89877  Biso   1.000  C
  C608     1.0000 0.64545  0.68979  0.98971  Biso   1.000  C
  C609     1.0000 0.53239  0.37083  0.20574  Biso   1.000  C
  C610     1.0000 0.82561  0.45508  0.60431  Biso   1.000  C
  C611     1.0000 0.12664  0.69183  0.51829  Biso   1.000  C
  C612     1.0000 0.02960  0.39048  0.28531  Biso   1.000  C
  C613     1.0000 0.82676  0.99204  0.10815  Biso   1.000  C
  C614     1.0000 0.14226  0.77497  0.99465  Biso   1.000  C
  C615     1.0000 0.01904  0.06786  0.78436  Biso   1.000  C
  C616     1.0000 0.33069  0.97508  0.38619  Biso   1.000  C
  C617     1.0000 0.63293  0.76775  0.50414  Biso   1.000  C
  C618     1.0000 0.54105  0.08283  0.70154  Biso   1.000  C
  C619     1.0000 0.74261  0.49254  0.09826  Biso   1.000  C
  C620     1.0000 0.42920  0.27165  0.99930  Biso   1.000  C
  C621     1.0000 0.52805  0.58317  0.79304  Biso   1.000  C
  C622     1.0000 0.24148  0.49749  0.40607  Biso   1.000  C
  C623     1.0000 0.93810  0.26269  0.50352  Biso   1.000  C
  C624     1.0000 0.03593  0.56681  0.71705  Biso   1.000  C
  C625     1.0000 0.02390  0.18072  0.88555  Biso   1.000  C
  C626     1.0000 0.93702  0.99519  0.21107  Biso   1.000  C
  C627     1.0000 0.24396  0.88320  0.98052  Biso   1.000  C
  C628     1.0000 0.52359  0.18872  0.59503  Biso   1.000  C
  C629     1.0000 0.43746  0.96042  0.28123  Biso   1.000  C
  C630     1.0000 0.74032  0.87514  0.50167  Biso   1.000  C
  C631     1.0000 0.53205  0.69106  0.89917  Biso   1.000  C
  C632     1.0000 0.63296  0.48371  0.20805  Biso   1.000  C
  C633     1.0000 0.32676  0.38480  0.01534  Biso   1.000  C
  C634     1.0000 0.03453  0.67494  0.61080  Biso   1.000  C
  C635     1.0000 0.14117  0.48456  0.29317  Biso   1.000  C
  C636     1.0000 0.82960  0.36779  0.50315  Biso   1.000  C
  C637     1.0000 0.03936  0.78255  0.10489  Biso   1.000  C
  C638     1.0000 0.12679  0.98410  0.78227  Biso   1.000  C
  C639     1.0000 0.82349  0.07517  0.99346  Biso   1.000  C
  C640     1.0000 0.53322  0.76728  0.39657  Biso   1.000  C
  C641     1.0000 0.62476  0.97681  0.71063  Biso   1.000  C
  C642     1.0000 0.32687  0.08300  0.49569  Biso   1.000  C
  C643     1.0000 0.52609  0.26881  0.09452  Biso   1.000  C
  C644     1.0000 0.43581  0.46384  0.79053  Biso   1.000  C
  C645     1.0000 0.74350  0.57247  0.98150  Biso   1.000  C
  C646     1.0000 0.04351  0.27442  0.38444  Biso   1.000  C
  C647     1.0000 0.93476  0.48480  0.70399  Biso   1.000  C
  C648     1.0000 0.23758  0.58875  0.49816  Biso   1.000  C
  C649     1.0000 0.02890  0.69247  0.40913  Biso   1.000  C
  C650     1.0000 0.42798  0.99415  0.69798  Biso   1.000  C
  C651     1.0000 0.73795  0.37321  0.99497  Biso   1.000  C
  C652     1.0000 0.54903  0.68705  0.10539  Biso   1.000  C
  C653     1.0000 0.91926  0.96750  0.79288  Biso   1.000  C
  C654     1.0000 0.24748  0.38263  0.50087  Biso   1.000  C
  C655     1.0000 0.55067  0.18620  0.39239  Biso   1.000  C
  C656     1.0000 0.13694  0.44555  0.71268  Biso   1.000  C
  C657     1.0000 0.82663  0.87236  0.00812  Biso   1.000  C
  C658     1.0000 0.04447  0.19500  0.09130  Biso   1.000  C
  C659     1.0000 0.63973  0.48250  0.78994  Biso   1.000  C
  C660     1.0000 0.32406  0.88014  0.48634  Biso   1.000  C
  C661     1.0000 0.04162  0.26103  0.59055  Biso   1.000  C
  C662     1.0000 0.63650  0.00043  0.29244  Biso   1.000  C
  C663     1.0000 0.33530  0.58759  0.98207  Biso   1.000  C
  C664     1.0000 0.54452  0.27030  0.88954  Biso   1.000  C
  C665     1.0000 0.13747  0.98586  0.20740  Biso   1.000  C
  C666     1.0000 0.82546  0.57053  0.52244  Biso   1.000  C
  C667     1.0000 0.53030  0.76875  0.60173  Biso   1.000  C
  C668     1.0000 0.93748  0.49933  0.28892  Biso   1.000  C
  C669     1.0000 0.23994  0.08679  0.01285  Biso   1.000  C
  C670     1.0000 0.04512  0.76532  0.90561  Biso   1.000  C
  C671     1.0000 0.43269  0.48934  0.21061  Biso   1.000  C
  C672     1.0000 0.74189  0.07703  0.50838  Biso   1.000  C
  C673     1.0000 0.22181  0.00151  0.79247  Biso   1.000  C
  C674     1.0000 0.83408  0.17050  0.99755  Biso   1.000  C
  C675     1.0000 0.03840  0.79568  0.20109  Biso   1.000  C
  C676     1.0000 0.71941  0.98298  0.69821  Biso   1.000  C
  C677     1.0000 0.34288  0.17705  0.49112  Biso   1.000  C
  C678     1.0000 0.52507  0.78393  0.30201  Biso   1.000  C
  C679     1.0000 0.34322  0.45928  0.80564  Biso   1.000  C
  C680     1.0000 0.73486  0.66860  0.97888  Biso   1.000  C
  C681     1.0000 0.53855  0.27666  0.18750  Biso   1.000  C
  C682     1.0000 0.84325  0.46533  0.69601  Biso   1.000  C
  C683     1.0000 0.22175  0.68062  0.50278  Biso   1.000  C
  C684     1.0000 0.03894  0.29651  0.29166  Biso   1.000  C
  C685     1.0000 0.84223  0.99998  0.20374  Biso   1.000  C
  C686     1.0000 0.23752  0.78989  0.98485  Biso   1.000  C
  C687     1.0000 0.01880  0.16131  0.79462  Biso   1.000  C
  C688     1.0000 0.34392  0.95928  0.29327  Biso   1.000  C
  C689     1.0000 0.72559  0.77897  0.50713  Biso   1.000  C
  C690     1.0000 0.53317  0.17306  0.68988  Biso   1.000  C
  C691     1.0000 0.72922  0.49025  0.19351  Biso   1.000  C
  C692     1.0000 0.33555  0.28869  0.01247  Biso   1.000  C
  C693     1.0000 0.52953  0.67759  0.80409  Biso   1.000  C
  C694     1.0000 0.23460  0.49009  0.31140  Biso   1.000  C
  C695     1.0000 0.84240  0.27247  0.51480  Biso   1.000  C
  C696     1.0000 0.04392  0.65929  0.70244  Biso   1.000  C
  C697     1.0000 0.73285  0.01087  0.30764  Biso   1.000  C
  C698     1.0000 0.34756  0.68091  0.99759  Biso   1.000  C
  C699     1.0000 0.03388  0.27034  0.68512  Biso   1.000  C
  C700     1.0000 0.22863  0.97217  0.19194  Biso   1.000  C
  C701     1.0000 0.83084  0.66438  0.51813  Biso   1.000  C
  C702     1.0000 0.53868  0.28825  0.79601  Biso   1.000  C
  C703     1.0000 0.84323  0.49318  0.30248  Biso   1.000  C
  C704     1.0000 0.22179  0.18080  0.01808  Biso   1.000  C
  C705     1.0000 0.53029  0.78434  0.69520  Biso   1.000  C
  C706     1.0000 0.34064  0.49830  0.19755  Biso   1.000  C
  C707     1.0000 0.73001  0.16803  0.52132  Biso   1.000  C
  C708     1.0000 0.04365  0.77168  0.81122  Biso   1.000  C
  C709     1.0000 0.33274  0.99784  0.68610  Biso   1.000  C
  C710     1.0000 0.72428  0.27895  0.00012  Biso   1.000  C
  C711     1.0000 0.03168  0.68642  0.31319  Biso   1.000  C
  C712     1.0000 0.82636  0.96616  0.80940  Biso   1.000  C
  C713     1.0000 0.23841  0.28900  0.49601  Biso   1.000  C
  C714     1.0000 0.53750  0.67090  0.19923  Biso   1.000  C
  C715     1.0000 0.23157  0.45872  0.70328  Biso   1.000  C
  C716     1.0000 0.84305  0.77960  0.99523  Biso   1.000  C
  C717     1.0000 0.53991  0.16866  0.29811  Biso   1.000  C
  C718     1.0000 0.73531  0.47033  0.80377  Biso   1.000  C
  C719     1.0000 0.33190  0.78500  0.49415  Biso   1.000  C
  C720     1.0000 0.04306  0.18762  0.18549  Biso   1.000  C
  C721     1.0000 0.53918  0.78806  0.27313  Biso   1.000  C
  C722     1.0000 0.31868  0.47996  0.80674  Biso   1.000  C
  C723     1.0000 0.81574  0.27698  0.53114  Biso   1.000  C
  C724     1.0000 0.02028  0.77009  0.19829  Biso   1.000  C
  C725     1.0000 0.81722  0.48410  0.69611  Biso   1.000  C
  C726     1.0000 0.30787  0.29400  0.99924  Biso   1.000  C
  C727     1.0000 0.02220  0.26922  0.29143  Biso   1.000  C
  C728     1.0000 0.24425  0.02189  0.79506  Biso   1.000  C
  C729     1.0000 0.75171  0.78092  0.52379  Biso   1.000  C
  C730     1.0000 0.52360  0.27975  0.21687  Biso   1.000  C
  C731     1.0000 0.74442  0.96571  0.69255  Biso   1.000  C
  C732     1.0000 0.26599  0.79230  0.96888  Biso   1.000  C
  C733     1.0000 0.52161  0.16955  0.71892  Biso   1.000  C
  C734     1.0000 0.72958  0.47114  0.21946  Biso   1.000  C
  C735     1.0000 0.21472  0.70603  0.48546  Biso   1.000  C
  C736     1.0000 0.00633  0.19075  0.79811  Biso   1.000  C
  C737     1.0000 0.26392  0.47753  0.31500  Biso   1.000  C
  C738     1.0000 0.76251  0.66326  0.99444  Biso   1.000  C
  C739     1.0000 0.06711  0.65958  0.72502  Biso   1.000  C
  C740     1.0000 0.81425  0.98552  0.20362  Biso   1.000  C
  C741     1.0000 0.31534  0.17431  0.47771  Biso   1.000  C
  C742     1.0000 0.54630  0.67288  0.77710  Biso   1.000  C
  C743     1.0000 0.31925  0.94023  0.29716  Biso   1.000  C
  C744     1.0000 0.83665  0.19559  0.01693  Biso   1.000  C
  C745     1.0000 0.04503  0.71467  0.31755  Biso   1.000  C
  C746     1.0000 0.30695  0.01700  0.68003  Biso   1.000  C
  C747     1.0000 0.75009  0.28067  0.01675  Biso   1.000  C
  C748     1.0000 0.55573  0.69703  0.19842  Biso   1.000  C
  C749     1.0000 0.82669  0.94722  0.78346  Biso   1.000  C
  C750     1.0000 0.25916  0.28656  0.51930  Biso   1.000  C
  C751     1.0000 0.55799  0.16581  0.27277  Biso   1.000  C
  C752     1.0000 0.26040  0.44665  0.69500  Biso   1.000  C
  C753     1.0000 0.81690  0.78464  0.97936  Biso   1.000  C
  C754     1.0000 0.06183  0.18845  0.20972  Biso   1.000  C
  C755     1.0000 0.73070  0.45819  0.77601  Biso   1.000  C
  C756     1.0000 0.30481  0.79222  0.50760  Biso   1.000  C
  C757     1.0000 0.01831  0.24339  0.68048  Biso   1.000  C
  C758     1.0000 0.73090  0.02710  0.27954  Biso   1.000  C
  C759     1.0000 0.31814  0.67532  0.00855  Biso   1.000  C
  C760     1.0000 0.55277  0.28994  0.76767  Biso   1.000  C
  C761     1.0000 0.25790  0.98522  0.18843  Biso   1.000  C
  C762     1.0000 0.83036  0.68844  0.49554  Biso   1.000  C
  C763     1.0000 0.50795  0.78189  0.71842  Biso   1.000  C
  C764     1.0000 0.81386  0.50427  0.30707  Biso   1.000  C
  C765     1.0000 0.24773  0.18079  0.03866  Biso   1.000  C
  C766     1.0000 0.02337  0.77184  0.78700  Biso   1.000  C
  C767     1.0000 0.34447  0.51353  0.22414  Biso   1.000  C
  C768     1.0000 0.72703  0.19533  0.50652  Biso   1.000  C
  C769     1.0000 0.51639  0.70582  0.80758  Biso   1.000  C
  C770     1.0000 0.84633  0.44537  0.72026  Biso   1.000  C
  C771     1.0000 0.72140  0.75200  0.49139  Biso   1.000  C
  C772     1.0000 0.02139  0.68176  0.70344  Biso   1.000  C
  C773     1.0000 0.34367  0.43777  0.78310  Biso   1.000  C
  C774     1.0000 0.23463  0.76536  0.00481  Biso   1.000  C
  C775     1.0000 0.03407  0.15706  0.76657  Biso   1.000  C
  C776     1.0000 0.71445  0.99595  0.72794  Biso   1.000  C
  C777     1.0000 0.84824  0.24266  0.50510  Biso   1.000  C
  C778     1.0000 0.54765  0.20168  0.68518  Biso   1.000  C
  C779     1.0000 0.21859  0.98574  0.76554  Biso   1.000  C
  C780     1.0000 0.34186  0.25953  0.02656  Biso   1.000  C
  C781     1.0000 0.55096  0.24823  0.18142  Biso   1.000  C
  C782     1.0000 0.22935  0.50460  0.28268  Biso   1.000  C
  C783     1.0000 0.34806  0.20347  0.50681  Biso   1.000  C
  C784     1.0000 0.05681  0.30384  0.26517  Biso   1.000  C
  C785     1.0000 0.75336  0.51147  0.19033  Biso   1.000  C
  C786     1.0000 0.80859  0.16906  0.97976  Biso   1.000  C
  C787     1.0000 0.05660  0.79756  0.22985  Biso   1.000  C
  C788     1.0000 0.34561  0.97671  0.26755  Biso   1.000  C
  C789     1.0000 0.24996  0.67871  0.51616  Biso   1.000  C
  C790     1.0000 0.50769  0.75688  0.30697  Biso   1.000  C
  C791     1.0000 0.84896  0.01968  0.22725  Biso   1.000  C
  C792     1.0000 0.73365  0.69612  0.96268  Biso   1.000  C
  C793     1.0000 0.52101  0.19454  0.30033  Biso   1.000  C
  C794     1.0000 0.31337  0.48399  0.19399  Biso   1.000  C
  C795     1.0000 0.23852  0.26861  0.47185  Biso   1.000  C
  C796     1.0000 0.02544  0.21477  0.18035  Biso   1.000  C
  C797     1.0000 0.84609  0.47916  0.27375  Biso   1.000  C
  C798     1.0000 0.72051  0.25294  0.98254  Biso   1.000  C
  C799     1.0000 0.02022  0.68103  0.28395  Biso   1.000  C
  C800     1.0000 0.22525  0.95515  0.21823  Biso   1.000  C
  C801     1.0000 0.33436  0.75729  0.48012  Biso   1.000  C
  C802     1.0000 0.51451  0.66909  0.22267  Biso   1.000  C
  C803     1.0000 0.75987  0.99620  0.31315  Biso   1.000  C
  C804     1.0000 0.84786  0.75119  0.00744  Biso   1.000  C
  C805     1.0000 0.55764  0.76661  0.69640  Biso   1.000  C
  C806     1.0000 0.76626  0.47854  0.80969  Biso   1.000  C
  C807     1.0000 0.80449  0.66368  0.53807  Biso   1.000  C
  C808     1.0000 0.06264  0.74716  0.81155  Biso   1.000  C
  C809     1.0000 0.22759  0.46987  0.73305  Biso   1.000  C
  C810     1.0000 0.35484  0.71045  0.98499  Biso   1.000  C
  C811     1.0000 0.04726  0.27278  0.71324  Biso   1.000  C
  C812     1.0000 0.80057  0.98587  0.81212  Biso   1.000  C
  C813     1.0000 0.75777  0.16308  0.53693  Biso   1.000  C
  C814     1.0000 0.52208  0.26287  0.80094  Biso   1.000  C
  C815     1.0000 0.33292  0.98358  0.71579  Biso   1.000  C
  C816     1.0000 0.22126  0.20560  0.99730  Biso   1.000  C
  C817     1.0000 0.01190  0.21156  0.77741  Biso   1.000  C
  C818     1.0000 0.79388  0.99004  0.22498  Biso   1.000  C
  C819     1.0000 0.28829  0.77205  0.97460  Biso   1.000  C
  C820     1.0000 0.52077  0.19192  0.73791  Biso   1.000  C
  C821     1.0000 0.29751  0.94064  0.27754  Biso   1.000  C
  C822     1.0000 0.77039  0.75745  0.52779  Biso   1.000  C
  C823     1.0000 0.54720  0.69521  0.75582  Biso   1.000  C
  C824     1.0000 0.75179  0.47211  0.23956  Biso   1.000  C
  C825     1.0000 0.28721  0.27257  0.00145  Biso   1.000  C
  C826     1.0000 0.06661  0.68106  0.74614  Biso   1.000  C
  C827     1.0000 0.28479  0.47905  0.29261  Biso   1.000  C
  C828     1.0000 0.79325  0.25722  0.53104  Biso   1.000  C
  C829     1.0000 0.01998  0.75007  0.22028  Biso   1.000  C
  C830     1.0000 0.26461  0.02446  0.77255  Biso   1.000  C
  C831     1.0000 0.81583  0.21636  0.01784  Biso   1.000  C
  C832     1.0000 0.53687  0.76835  0.25165  Biso   1.000  C
  C833     1.0000 0.76459  0.96203  0.71448  Biso   1.000  C
  C834     1.0000 0.29500  0.19550  0.47822  Biso   1.000  C
  C835     1.0000 0.52628  0.25918  0.23845  Biso   1.000  C
  C836     1.0000 0.29720  0.48033  0.78651  Biso   1.000  C
  C837     1.0000 0.78245  0.68510  0.99968  Biso   1.000  C
  C838     1.0000 0.02678  0.24934  0.27021  Biso   1.000  C
  C839     1.0000 0.79735  0.47899  0.71876  Biso   1.000  C
  C840     1.0000 0.23512  0.72968  0.48260  Biso   1.000  C
  C841     1.0000 0.23912  0.98879  0.74321  Biso   1.000  C
  C842     1.0000 0.78720  0.19010  0.98146  Biso   1.000  C
  C843     1.0000 0.05403  0.77687  0.25105  Biso   1.000  C
  C844     1.0000 0.73584  0.99178  0.74776  Biso   1.000  C
  C845     1.0000 0.32898  0.22499  0.50452  Biso   1.000  C
  C846     1.0000 0.50892  0.73729  0.28491  Biso   1.000  C
  C847     1.0000 0.31985  0.43759  0.76413  Biso   1.000  C
  C848     1.0000 0.75693  0.71620  0.96429  Biso   1.000  C
  C849     1.0000 0.55161  0.22786  0.20342  Biso   1.000  C
  C850     1.0000 0.82549  0.44294  0.74235  Biso   1.000  C
  C851     1.0000 0.26791  0.70262  0.51352  Biso   1.000  C
  C852     1.0000 0.05720  0.28407  0.24331  Biso   1.000  C
  C853     1.0000 0.82771  0.02159  0.25105  Biso   1.000  C
  C854     1.0000 0.25716  0.74455  0.00713  Biso   1.000  C
  C855     1.0000 0.03515  0.17686  0.74456  Biso   1.000  C
  C856     1.0000 0.32153  0.97674  0.24979  Biso   1.000  C
  C857     1.0000 0.74182  0.72981  0.49555  Biso   1.000  C
  C858     1.0000 0.54693  0.22306  0.70518  Biso   1.000  C
  C859     1.0000 0.77434  0.51206  0.21139  Biso   1.000  C
  C860     1.0000 0.31958  0.23924  0.02756  Biso   1.000  C
  C861     1.0000 0.51943  0.72705  0.78747  Biso   1.000  C
  C862     1.0000 0.25015  0.50516  0.26134  Biso   1.000  C
  C863     1.0000 0.82607  0.22299  0.50719  Biso   1.000  C
  C864     1.0000 0.02384  0.70344  0.72309  Biso   1.000  C
  C865     1.0000 0.75310  0.45295  0.75634  Biso   1.000  C
  C866     1.0000 0.80922  0.70984  0.49579  Biso   1.000  C
  C867     1.0000 0.51148  0.76138  0.73920  Biso   1.000  C
  C868     1.0000 0.28198  0.44657  0.71613  Biso   1.000  C
  C869     1.0000 0.29772  0.69780  0.00705  Biso   1.000  C
  C870     1.0000 0.02339  0.75014  0.76545  Biso   1.000  C
  C871     1.0000 0.80424  0.94883  0.76317  Biso   1.000  C
  C872     1.0000 0.74793  0.21711  0.50557  Biso   1.000  C
  C873     1.0000 0.01458  0.22208  0.70168  Biso   1.000  C
  C874     1.0000 0.28452  0.01768  0.70044  Biso   1.000  C
  C875     1.0000 0.26896  0.20187  0.03628  Biso   1.000  C
  C876     1.0000 0.54985  0.26840  0.74840  Biso   1.000  C
  C877     1.0000 0.32454  0.51186  0.24791  Biso   1.000  C
  C878     1.0000 0.28146  0.26605  0.51780  Biso   1.000  C
  C879     1.0000 0.55745  0.18587  0.25090  Biso   1.000  C
  C880     1.0000 0.79354  0.50595  0.28440  Biso   1.000  C
  C881     1.0000 0.77156  0.26042  0.01417  Biso   1.000  C
  C882     1.0000 0.06282  0.21253  0.22832  Biso   1.000  C
  C883     1.0000 0.27858  0.98149  0.20979  Biso   1.000  C
  C884     1.0000 0.28186  0.77407  0.50619  Biso   1.000  C
  C885     1.0000 0.04547  0.73583  0.29607  Biso   1.000  C
  C886     1.0000 0.75408  0.02734  0.26076  Biso   1.000  C
  C887     1.0000 0.79536  0.76383  0.97798  Biso   1.000  C
  C888     1.0000 0.54986  0.71908  0.21711  Biso   1.000  C
  C889     1.0000 0.78325  0.99807  0.29363  Biso   1.000  C
  C890     1.0000 0.33346  0.73147  0.98542  Biso   1.000  C
  C891     1.0000 0.04495  0.25064  0.73397  Biso   1.000  C
  C892     1.0000 0.24768  0.94969  0.23634  Biso   1.000  C
  C893     1.0000 0.78293  0.68631  0.53399  Biso   1.000  C
  C894     1.0000 0.51817  0.24009  0.78113  Biso   1.000  C
  C895     1.0000 0.82353  0.47873  0.25294  Biso   1.000  C
  C896     1.0000 0.24578  0.22458  0.99528  Biso   1.000  C
  C897     1.0000 0.55890  0.74535  0.71797  Biso   1.000  C
  C898     1.0000 0.29125  0.48362  0.21686  Biso   1.000  C
  C899     1.0000 0.77990  0.18332  0.53140  Biso   1.000  C
  C900     1.0000 0.06232  0.72651  0.78919  Biso   1.000  C
  C901     1.0000 0.30976  0.98784  0.73609  Biso   1.000  C
  C902     1.0000 0.74112  0.23100  0.98339  Biso   1.000  C
  C903     1.0000 0.02424  0.70231  0.26235  Biso   1.000  C
  C904     1.0000 0.78145  0.98831  0.78919  Biso   1.000  C
  C905     1.0000 0.26028  0.24793  0.47167  Biso   1.000  C
  C906     1.0000 0.51053  0.69246  0.24017  Biso   1.000  C
  C907     1.0000 0.25032  0.46965  0.75271  Biso   1.000  C
  C908     1.0000 0.82543  0.73107  0.00568  Biso   1.000  C
  C909     1.0000 0.52196  0.21523  0.27813  Biso   1.000  C
  C910     1.0000 0.78853  0.47377  0.78948  Biso   1.000  C
  C911     1.0000 0.30962  0.73952  0.47689  Biso   1.000  C
  C912     1.0000 0.02730  0.23794  0.19898  Biso   1.000  C
  C913     1.0000 0.80098  0.45917  0.74014  Biso   1.000  C
  C914     1.0000 0.76495  0.73113  0.51520  Biso   1.000  C
  C915     1.0000 0.53447  0.72124  0.76209  Biso   1.000  C
  C916     1.0000 0.29849  0.45848  0.76584  Biso   1.000  C
  C917     1.0000 0.28364  0.74796  0.99132  Biso   1.000  C
  C918     1.0000 0.04508  0.70335  0.74543  Biso   1.000  C
  C919     1.0000 0.76089  0.97458  0.74134  Biso   1.000  C
  C920     1.0000 0.79847  0.23121  0.51698  Biso   1.000  C
  C921     1.0000 0.02523  0.20424  0.75122  Biso   1.000  C
  C922     1.0000 0.26291  0.00590  0.74833  Biso   1.000  C
  C923     1.0000 0.29206  0.24625  0.01581  Biso   1.000  C
  C924     1.0000 0.53231  0.21926  0.73151  Biso   1.000  C
  C925     1.0000 0.27725  0.49423  0.26724  Biso   1.000  C
  C926     1.0000 0.30173  0.22179  0.49262  Biso   1.000  C
  C927     1.0000 0.54231  0.23356  0.23217  Biso   1.000  C
  C928     1.0000 0.77480  0.49140  0.23369  Biso   1.000  C
  C929     1.0000 0.79003  0.21335  0.00007  Biso   1.000  C
  C930     1.0000 0.04287  0.25787  0.24638  Biso   1.000  C
  C931     1.0000 0.29787  0.95917  0.25395  Biso   1.000  C
  C932     1.0000 0.26184  0.72535  0.49440  Biso   1.000  C
  C933     1.0000 0.03681  0.75293  0.24570  Biso   1.000  C
  C934     1.0000 0.80065  0.00939  0.24591  Biso   1.000  C
  C935     1.0000 0.77996  0.71186  0.98557  Biso   1.000  C
  C936     1.0000 0.52310  0.74219  0.25805  Biso   1.000  C
  C937     1.0000 0.76718  0.23481  0.99747  Biso   1.000  C
  C938     1.0000 0.03365  0.73039  0.26811  Biso   1.000  C
  C939     1.0000 0.28708  0.00518  0.72785  Biso   1.000  C
  C940     1.0000 0.28165  0.24744  0.49357  Biso   1.000  C
  C941     1.0000 0.52817  0.71737  0.23783  Biso   1.000  C
  C942     1.0000 0.78246  0.96991  0.76469  Biso   1.000  C
  C943     1.0000 0.79977  0.73748  0.99168  Biso   1.000  C
  C944     1.0000 0.53937  0.21066  0.25351  Biso   1.000  C
  C945     1.0000 0.27698  0.45874  0.74325  Biso   1.000  C
  C946     1.0000 0.28386  0.74796  0.49093  Biso   1.000  C
  C947     1.0000 0.04536  0.23647  0.22285  Biso   1.000  C
  C948     1.0000 0.78121  0.45915  0.76481  Biso   1.000  C
  C949     1.0000 0.30563  0.72483  0.99463  Biso   1.000  C
  C950     1.0000 0.02833  0.22668  0.72932  Biso   1.000  C
  C951     1.0000 0.77962  0.01403  0.26866  Biso   1.000  C
  C952     1.0000 0.78630  0.70834  0.51482  Biso   1.000  C
  C953     1.0000 0.53333  0.24269  0.75361  Biso   1.000  C
  C954     1.0000 0.27418  0.96337  0.23383  Biso   1.000  C
  C955     1.0000 0.26805  0.22414  0.01518  Biso   1.000  C
  C956     1.0000 0.53464  0.74353  0.73852  Biso   1.000  C
  C957     1.0000 0.79683  0.49198  0.25746  Biso   1.000  C
  C958     1.0000 0.77452  0.20969  0.51772  Biso   1.000  C
  C959     1.0000 0.04408  0.72727  0.76600  Biso   1.000  C
  C960     1.0000 0.29807  0.49793  0.24357  Biso   1.000  C
  Cu1      1.0000 0.03773  0.46847  0.65690  Biso   1.000  Cu
  Cu2      1.0000 0.68847  0.97447  0.49614  Biso   1.000  Cu
  Cu3      1.0000 0.54092  0.63561  0.99977  Biso   1.000  Cu
  Cu4      1.0000 0.53602  0.47908  0.84517  Biso   1.000  Cu
  Cu5      1.0000 0.18754  0.98511  0.99284  Biso   1.000  Cu
  Cu6      1.0000 0.02608  0.63246  0.50650  Biso   1.000  Cu
  Cu7      1.0000 0.52687  0.97911  0.64851  Biso   1.000  Cu
  Cu8      1.0000 0.88096  0.46929  0.50015  Biso   1.000  Cu
  Cu9      1.0000 0.03082  0.13121  0.99510  Biso   1.000  Cu
  Cu10     1.0000 0.02753  0.96815  0.84309  Biso   1.000  Cu
  Cu11     1.0000 0.38623  0.48216  0.00003  Biso   1.000  Cu
  Cu12     1.0000 0.53733  0.13181  0.49508  Biso   1.000  Cu
  Cu13     1.0000 0.03808  0.48899  0.34598  Biso   1.000  Cu
  Cu14     1.0000 0.37899  0.97848  0.48898  Biso   1.000  Cu
  Cu15     1.0000 0.53171  0.32266  0.99385  Biso   1.000  Cu
  Cu16     1.0000 0.53192  0.47635  0.15743  Biso   1.000  Cu
  Cu17     1.0000 0.88102  0.97346  0.00249  Biso   1.000  Cu
  Cu18     1.0000 0.03904  0.32351  0.48948  Biso   1.000  Cu
  Cu19     1.0000 0.53766  0.97496  0.34607  Biso   1.000  Cu
  Cu20     1.0000 0.18900  0.48346  0.50859  Biso   1.000  Cu
  Cu21     1.0000 0.04001  0.82888  0.00192  Biso   1.000  Cu
  Cu22     1.0000 0.03593  0.98793  0.15464  Biso   1.000  Cu
  Cu23     1.0000 0.68518  0.47443  0.00108  Biso   1.000  Cu
  Cu24     1.0000 0.53033  0.82169  0.49864  Biso   1.000  Cu
  Cu25     1.0000 0.24108  0.98635  0.99042  Biso   1.000  Cu
  Cu26     1.0000 0.03043  0.18732  0.98893  Biso   1.000  Cu
  Cu27     1.0000 0.03685  0.99023  0.20774  Biso   1.000  Cu
  Cu28     1.0000 0.74088  0.97660  0.49939  Biso   1.000  Cu
  Cu29     1.0000 0.53738  0.18500  0.49538  Biso   1.000  Cu
  Cu30     1.0000 0.53999  0.97542  0.28993  Biso   1.000  Cu
  Cu31     1.0000 0.33200  0.48428  0.99976  Biso   1.000  Cu
  Cu32     1.0000 0.54065  0.68972  0.00141  Biso   1.000  Cu
  Cu33     1.0000 0.53445  0.47458  0.21061  Biso   1.000  Cu
  Cu34     1.0000 0.82826  0.47090  0.50199  Biso   1.000  Cu
  Cu35     1.0000 0.02474  0.68643  0.51026  Biso   1.000  Cu
  Cu36     1.0000 0.03872  0.49134  0.28868  Biso   1.000  Cu
  Cu37     1.0000 0.82750  0.97503  0.00721  Biso   1.000  Cu
  Cu38     1.0000 0.04096  0.77495  0.00716  Biso   1.000  Cu
  Cu39     1.0000 0.02405  0.96735  0.78896  Biso   1.000  Cu
  Cu40     1.0000 0.32487  0.98116  0.48891  Biso   1.000  Cu
  Cu41     1.0000 0.53273  0.76486  0.49864  Biso   1.000  Cu
  Cu42     1.0000 0.52443  0.98171  0.70525  Biso   1.000  Cu
  Cu43     1.0000 0.73943  0.47092  0.99991  Biso   1.000  Cu
  Cu44     1.0000 0.53106  0.26880  0.99243  Biso   1.000  Cu
  Cu45     1.0000 0.53781  0.48189  0.78955  Biso   1.000  Cu
  Cu46     1.0000 0.24438  0.48720  0.50634  Biso   1.000  Cu
  Cu47     1.0000 0.04122  0.26775  0.48925  Biso   1.000  Cu
  Cu48     1.0000 0.03498  0.46214  0.71140  Biso   1.000  Cu
  H1       1.0000 0.26082  0.77704  0.51546  Biso   1.000  H
  H2       1.0000 0.55942  0.27117  0.72694  Biso   1.000  H
  H3       1.0000 0.77293  0.51731  0.28958  Biso   1.000  H
  H4       1.0000 0.77518  0.76978  0.96714  Biso   1.000  H
  H5       1.0000 0.00532  0.20151  0.69967  Biso   1.000  H
  H6       1.0000 0.32660  0.52393  0.26820  Biso   1.000  H
  H7       1.0000 0.29849  0.26486  0.53364  Biso   1.000  H
  H8       1.0000 0.00854  0.75237  0.74733  Biso   1.000  H
  H9       1.0000 0.75270  0.04066  0.24156  Biso   1.000  H
  H10      1.0000 0.79243  0.26496  0.02400  Biso   1.000  H
  H11      1.0000 0.49428  0.75806  0.75571  Biso   1.000  H
  H12      1.0000 0.29994  0.99092  0.20688  Biso   1.000  H
  H13      1.0000 0.74379  0.23745  0.49475  Biso   1.000  H
  H14      1.0000 0.56559  0.73624  0.21573  Biso   1.000  H
  H15      1.0000 0.30342  0.43809  0.70943  Biso   1.000  H
  H16      1.0000 0.28667  0.20345  0.05250  Biso   1.000  H
  H17      1.0000 0.05321  0.75714  0.30344  Biso   1.000  H
  H18      1.0000 0.74826  0.44396  0.73630  Biso   1.000  H
  H19      1.0000 0.80748  0.72754  0.48060  Biso   1.000  H
  H20      1.0000 0.07526  0.21296  0.24646  Biso   1.000  H
  H21      1.0000 0.26457  0.02830  0.69328  Biso   1.000  H
  H22      1.0000 0.27596  0.69434  0.01397  Biso   1.000  H
  H23      1.0000 0.57581  0.18302  0.23305  Biso   1.000  H
  H24      1.0000 0.80338  0.93276  0.74721  Biso   1.000  H
  H25      1.0000 0.28309  0.03827  0.77366  Biso   1.000  H
  H26      1.0000 0.82051  0.23431  0.03282  Biso   1.000  H
  H27      1.0000 0.00491  0.73205  0.21810  Biso   1.000  H
  H28      1.0000 0.78557  0.95153  0.70912  Biso   1.000  H
  H29      1.0000 0.27393  0.18820  0.46698  Biso   1.000  H
  H30      1.0000 0.54744  0.77334  0.23003  Biso   1.000  H
  H31      1.0000 0.28265  0.49924  0.78443  Biso   1.000  H
  H32      1.0000 0.79882  0.67872  0.01434  Biso   1.000  H
  H33      1.0000 0.51535  0.26381  0.25871  Biso   1.000  H
  H34      1.0000 0.77823  0.49275  0.71950  Biso   1.000  H
  H35      1.0000 0.22922  0.74700  0.46762  Biso   1.000  H
  H36      1.0000 0.01688  0.22840  0.26984  Biso   1.000  H
  H37      1.0000 0.77243  0.97902  0.22766  Biso   1.000  H
  H38      1.0000 0.30852  0.77471  0.96407  Biso   1.000  H
  H39      1.0000 0.00331  0.23369  0.77934  Biso   1.000  H
  H40      1.0000 0.27878  0.92801  0.28263  Biso   1.000  H
  H41      1.0000 0.78988  0.75797  0.54057  Biso   1.000  H
  H42      1.0000 0.50915  0.18492  0.75664  Biso   1.000  H
  H43      1.0000 0.75142  0.45704  0.25879  Biso   1.000  H
  H44      1.0000 0.26636  0.27960  0.99267  Biso   1.000  H
  H45      1.0000 0.55834  0.68835  0.73514  Biso   1.000  H
  H46      1.0000 0.30647  0.47255  0.29490  Biso   1.000  H
  H47      1.0000 0.77402  0.26088  0.54485  Biso   1.000  H
  H48      1.0000 0.08381  0.68047  0.76186  Biso   1.000  H
  H49      1.0000 0.24554  0.51861  0.24306  Biso   1.000  H
  H50      1.0000 0.33584  0.24562  0.51193  Biso   1.000  H
  H51      1.0000 0.56428  0.20876  0.19828  Biso   1.000  H
  H52      1.0000 0.79344  0.52667  0.20643  Biso   1.000  H
  H53      1.0000 0.76857  0.18312  0.96762  Biso   1.000  H
  H54      1.0000 0.06652  0.28874  0.22255  Biso   1.000  H
  H55      1.0000 0.32413  0.99326  0.23081  Biso   1.000  H
  H56      1.0000 0.28831  0.70317  0.52366  Biso   1.000  H
  H57      1.0000 0.06759  0.78205  0.27039  Biso   1.000  H
  H58      1.0000 0.83131  0.03473  0.27075  Biso   1.000  H
  H59      1.0000 0.75599  0.73675  0.95183  Biso   1.000  H
  H60      1.0000 0.49964  0.71650  0.28865  Biso   1.000  H
  H61      1.0000 0.82737  0.42702  0.76004  Biso   1.000  H
  H62      1.0000 0.73920  0.70949  0.48237  Biso   1.000  H
  H63      1.0000 0.50936  0.74895  0.79275  Biso   1.000  H
  H64      1.0000 0.31452  0.41797  0.75349  Biso   1.000  H
  H65      1.0000 0.25706  0.72760  0.02480  Biso   1.000  H
  H66      1.0000 0.00779  0.72205  0.72252  Biso   1.000  H
  H67      1.0000 0.73143  0.00021  0.76917  Biso   1.000  H
  H68      1.0000 0.82790  0.20068  0.49992  Biso   1.000  H
  H69      1.0000 0.04416  0.17181  0.72243  Biso   1.000  H
  H70      1.0000 0.23753  0.97591  0.72315  Biso   1.000  H
  H71      1.0000 0.32474  0.21795  0.03608  Biso   1.000  H
  H72      1.0000 0.55869  0.24232  0.69815  Biso   1.000  H
  H73      1.0000 0.81108  0.47829  0.79302  Biso   1.000  H
  H74      1.0000 0.76330  0.68824  0.54695  Biso   1.000  H
  H75      1.0000 0.57825  0.73244  0.72056  Biso   1.000  H
  H76      1.0000 0.24443  0.48050  0.77321  Biso   1.000  H
  H77      1.0000 0.33984  0.75232  0.97823  Biso   1.000  H
  H78      1.0000 0.07899  0.70907  0.78963  Biso   1.000  H
  H79      1.0000 0.76580  0.00527  0.78819  Biso   1.000  H
  H80      1.0000 0.80112  0.18010  0.54130  Biso   1.000  H
  H81      1.0000 0.05702  0.25245  0.75433  Biso   1.000  H
  H82      1.0000 0.31140  0.97773  0.75688  Biso   1.000  H
  H83      1.0000 0.24588  0.24219  0.97738  Biso   1.000  H
  H84      1.0000 0.50387  0.22340  0.78748  Biso   1.000  H
  H85      1.0000 0.27178  0.47061  0.21495  Biso   1.000  H
  H86      1.0000 0.26021  0.23416  0.45280  Biso   1.000  H
  H87      1.0000 0.50788  0.23531  0.28258  Biso   1.000  H
  H88      1.0000 0.82691  0.46960  0.23184  Biso   1.000  H
  H89      1.0000 0.73944  0.21217  0.97097  Biso   1.000  H
  H90      1.0000 0.01453  0.25797  0.19495  Biso   1.000  H
  H91      1.0000 0.24636  0.93078  0.25396  Biso   1.000  H
  H92      1.0000 0.30971  0.71946  0.46441  Biso   1.000  H
  H93      1.0000 0.01610  0.69718  0.24141  Biso   1.000  H
  H94      1.0000 0.80218  0.98529  0.29474  Biso   1.000  H
  H95      1.0000 0.82793  0.71196  0.01834  Biso   1.000  H
  H96      1.0000 0.49329  0.68832  0.25831  Biso   1.000  H
  H97      1.0000 0.89280  0.96287  0.91444  Biso   1.000  H
  H98      1.0000 0.94620  0.84502  0.00819  Biso   1.000  H
  H99      1.0000 0.04575  0.88164  0.86566  Biso   1.000  H
  H100     1.0000 0.39499  0.99072  0.58038  Biso   1.000  H
  H101     1.0000 0.44029  0.84261  0.49075  Biso   1.000  H
  H102     1.0000 0.51675  0.88832  0.63047  Biso   1.000  H
  H103     1.0000 0.66624  0.47291  0.90411  Biso   1.000  H
  H104     1.0000 0.61782  0.33935  0.00078  Biso   1.000  H
  H105     1.0000 0.53529  0.38950  0.86073  Biso   1.000  H
  H106     1.0000 0.16856  0.46968  0.59821  Biso   1.000  H
  H107     1.0000 0.13314  0.34928  0.49954  Biso   1.000  H
  H108     1.0000 0.03643  0.37605  0.62710  Biso   1.000  H
  H109     1.0000 0.16737  0.98288  0.08727  Biso   1.000  H
  H110     1.0000 0.11998  0.11266  0.99579  Biso   1.000  H
  H111     1.0000 0.03197  0.07969  0.13003  Biso   1.000  H
  H112     1.0000 0.66967  0.99272  0.40989  Biso   1.000  H
  H113     1.0000 0.62370  0.10951  0.51039  Biso   1.000  H
  H114     1.0000 0.54067  0.06487  0.36262  Biso   1.000  H
  H115     1.0000 0.40805  0.49431  0.09627  Biso   1.000  H
  H116     1.0000 0.45190  0.61802  0.00484  Biso   1.000  H
  H117     1.0000 0.54882  0.56561  0.13850  Biso   1.000  H
  H118     1.0000 0.90573  0.48974  0.41020  Biso   1.000  H
  H119     1.0000 0.93646  0.60867  0.49745  Biso   1.000  H
  H120     1.0000 0.03935  0.57680  0.36792  Biso   1.000  H
  H121     1.0000 0.12066  0.97692  0.85919  Biso   1.000  H
  H122     1.0000 0.89914  0.06672  0.99037  Biso   1.000  H
  H123     1.0000 0.03839  0.85802  0.09403  Biso   1.000  H
  H124     1.0000 0.62062  0.97181  0.63402  Biso   1.000  H
  H125     1.0000 0.40167  0.07107  0.48839  Biso   1.000  H
  H126     1.0000 0.54102  0.84161  0.40784  Biso   1.000  H
  H127     1.0000 0.44757  0.47037  0.86581  Biso   1.000  H
  H128     1.0000 0.66745  0.56588  0.98990  Biso   1.000  H
  H129     1.0000 0.52304  0.34561  0.08910  Biso   1.000  H
  H130     1.0000 0.94746  0.46296  0.63388  Biso   1.000  H
  H131     1.0000 0.16549  0.57227  0.51081  Biso   1.000  H
  H132     1.0000 0.04913  0.34635  0.40181  Biso   1.000  H
  H133     1.0000 0.94220  0.98432  0.13603  Biso   1.000  H
  H134     1.0000 0.16974  0.89509  0.98575  Biso   1.000  H
  H135     1.0000 0.02794  0.10569  0.90455  Biso   1.000  H
  H136     1.0000 0.44537  0.96582  0.35687  Biso   1.000  H
  H137     1.0000 0.66606  0.88480  0.49935  Biso   1.000  H
  H138     1.0000 0.52522  0.11249  0.58507  Biso   1.000  H
  H139     1.0000 0.62552  0.47687  0.12978  Biso   1.000  H
  H140     1.0000 0.40299  0.39371  0.01240  Biso   1.000  H
  H141     1.0000 0.52906  0.61594  0.91062  Biso   1.000  H
  H142     1.0000 0.12792  0.48687  0.36711  Biso   1.000  H
  H143     1.0000 0.90092  0.37774  0.48499  Biso   1.000  H
  H144     1.0000 0.01945  0.60047  0.59684  Biso   1.000  H
  H145     1.0000 0.62591  0.48146  0.86386  Biso   1.000  H
  H146     1.0000 0.90126  0.56534  0.50640  Biso   1.000  H
  H147     1.0000 0.51233  0.84244  0.59010  Biso   1.000  H
  H148     1.0000 0.12676  0.46000  0.63870  Biso   1.000  H
  H149     1.0000 0.40882  0.57363  0.99898  Biso   1.000  H
  H150     1.0000 0.04716  0.84080  0.91148  Biso   1.000  H
  H151     1.0000 0.93389  0.96540  0.86754  Biso   1.000  H
  H152     1.0000 0.66414  0.07024  0.50823  Biso   1.000  H
  H153     1.0000 0.04369  0.33741  0.58528  Biso   1.000  H
  H154     1.0000 0.43718  0.98276  0.62298  Biso   1.000  H
  H155     1.0000 0.16505  0.07516  0.00052  Biso   1.000  H
  H156     1.0000 0.53829  0.34553  0.90402  Biso   1.000  H
  H157     1.0000 0.44601  0.49464  0.13555  Biso   1.000  H
  H158     1.0000 0.17165  0.39318  0.50290  Biso   1.000  H
  H159     1.0000 0.54551  0.11032  0.40687  Biso   1.000  H
  H160     1.0000 0.95254  0.49705  0.36240  Biso   1.000  H
  H161     1.0000 0.66176  0.38422  0.00121  Biso   1.000  H
  H162     1.0000 0.02766  0.12272  0.08882  Biso   1.000  H
  H163     1.0000 0.12649  0.99371  0.13163  Biso   1.000  H
  H164     1.0000 0.40037  0.88558  0.49160  Biso   1.000  H
  H165     1.0000 0.03525  0.61850  0.41445  Biso   1.000  H
  H166     1.0000 0.62891  0.98876  0.36861  Biso   1.000  H
  H167     1.0000 0.90126  0.88627  0.00928  Biso   1.000  H
  H168     1.0000 0.54832  0.61176  0.09271  Biso   1.000  H
  H169     1.0000 0.03148  0.06165  0.86123  Biso   1.000  H
  H170     1.0000 0.90200  0.97943  0.09846  Biso   1.000  H
  H171     1.0000 0.12760  0.84900  0.99350  Biso   1.000  H
  H172     1.0000 0.53995  0.06885  0.62612  Biso   1.000  H
  H173     1.0000 0.40293  0.97443  0.40074  Biso   1.000  H
  H174     1.0000 0.62267  0.84510  0.50277  Biso   1.000  H
  H175     1.0000 0.52330  0.57103  0.86840  Biso   1.000  H
  H176     1.0000 0.66672  0.48373  0.09159  Biso   1.000  H
  H177     1.0000 0.44077  0.34842  0.99935  Biso   1.000  H
  H178     1.0000 0.02549  0.55694  0.64061  Biso   1.000  H
  H179     1.0000 0.16588  0.48618  0.41389  Biso   1.000  H
  H180     1.0000 0.94215  0.33943  0.49063  Biso   1.000  H
  H181     1.0000 0.03431  0.89840  0.13827  Biso   1.000  H
  H182     1.0000 0.16244  0.98286  0.89854  Biso   1.000  H
  H183     1.0000 0.94101  0.10969  0.98947  Biso   1.000  H
  H184     1.0000 0.54902  0.88407  0.36410  Biso   1.000  H
  H185     1.0000 0.66233  0.97361  0.59001  Biso   1.000  H
  H186     1.0000 0.44784  0.10854  0.48504  Biso   1.000  H
  H187     1.0000 0.52320  0.38664  0.12986  Biso   1.000  H
  H188     1.0000 0.40757  0.47563  0.90610  Biso   1.000  H
  H189     1.0000 0.62687  0.61524  0.99151  Biso   1.000  H
  H190     1.0000 0.05193  0.39746  0.35911  Biso   1.000  H
  H191     1.0000 0.90046  0.45833  0.58709  Biso   1.000  H
  H192     1.0000 0.11848  0.61560  0.51564  Biso   1.000  H
  H193     1.0000 0.30004  0.84019  0.48320  Biso   1.000  H
  H194     1.0000 0.54683  0.25088  0.84466  Biso   1.000  H
  H195     1.0000 0.89586  0.49805  0.27000  Biso   1.000  H
  H196     1.0000 0.80472  0.83059  0.00330  Biso   1.000  H
  H197     1.0000 0.03980  0.23932  0.63212  Biso   1.000  H
  H198     1.0000 0.39057  0.49027  0.23254  Biso   1.000  H
  H199     1.0000 0.27165  0.34063  0.49659  Biso   1.000  H
  H200     1.0000 0.04475  0.73832  0.86478  Biso   1.000  H
  H201     1.0000 0.67488  0.00684  0.26907  Biso   1.000  H
  H202     1.0000 0.75634  0.32867  0.00324  Biso   1.000  H
  H203     1.0000 0.53552  0.75007  0.64764  Biso   1.000  H
  H204     1.0000 0.18086  0.97454  0.22688  Biso   1.000  H
  H205     1.0000 0.76297  0.11920  0.50856  Biso   1.000  H
  H206     1.0000 0.54616  0.70676  0.14897  Biso   1.000  H
  H207     1.0000 0.17967  0.44133  0.73571  Biso   1.000  H
  H208     1.0000 0.26034  0.12735  0.01997  Biso   1.000  H
  H209     1.0000 0.02629  0.71585  0.36936  Biso   1.000  H
  H210     1.0000 0.67923  0.48171  0.76753  Biso   1.000  H
  H211     1.0000 0.80236  0.61000  0.52930  Biso   1.000  H
  H212     1.0000 0.05595  0.21716  0.13346  Biso   1.000  H
  H213     1.0000 0.38726  0.00173  0.72107  Biso   1.000  H
  H214     1.0000 0.31670  0.63124  0.97817  Biso   1.000  H
  H215     1.0000 0.54781  0.20425  0.34875  Biso   1.000  H
  H216     1.0000 0.87684  0.97068  0.77276  Biso   1.000  H
  H217     1.0000 0.26709  0.50039  0.36517  Biso   1.000  H
  H218     1.0000 0.39879  0.21025  0.48102  Biso   1.000  H
  H219     1.0000 0.53848  0.32719  0.22459  Biso   1.000  H
  H220     1.0000 0.76414  0.49766  0.13921  Biso   1.000  H
  H221     1.0000 0.88398  0.20388  0.99230  Biso   1.000  H
  H222     1.0000 0.02609  0.34907  0.26287  Biso   1.000  H
  H223     1.0000 0.31036  0.97173  0.34108  Biso   1.000  H
  H224     1.0000 0.16852  0.71346  0.51276  Biso   1.000  H
  H225     1.0000 0.04183  0.84757  0.23430  Biso   1.000  H
  H226     1.0000 0.80675  0.99541  0.15316  Biso   1.000  H
  H227     1.0000 0.68882  0.70523  0.99008  Biso   1.000  H
  H228     1.0000 0.52529  0.83776  0.26910  Biso   1.000  H
  H229     1.0000 0.80809  0.45322  0.65022  Biso   1.000  H
  H230     1.0000 0.67386  0.74555  0.50848  Biso   1.000  H
  H231     1.0000 0.52572  0.62588  0.77246  Biso   1.000  H
  H232     1.0000 0.30689  0.46181  0.85888  Biso   1.000  H
  H233     1.0000 0.18509  0.75460  0.98509  Biso   1.000  H
  H234     1.0000 0.05099  0.61084  0.73356  Biso   1.000  H
  H235     1.0000 0.75663  0.99237  0.64499  Biso   1.000  H
  H236     1.0000 0.89866  0.24172  0.51751  Biso   1.000  H
  H237     1.0000 0.01402  0.11092  0.76381  Biso   1.000  H
  H238     1.0000 0.25528  0.99856  0.84112  Biso   1.000  H
  H239     1.0000 0.38623  0.25324  0.99845  Biso   1.000  H
  H240     1.0000 0.54710  0.12689  0.72078  Biso   1.000  H
  H241     1.0000 0.76399  0.45615  0.85995  Biso   1.000  H
  H242     1.0000 0.87845  0.69992  0.52119  Biso   1.000  H
  H243     1.0000 0.52779  0.83507  0.72783  Biso   1.000  H
  H244     1.0000 0.26471  0.47268  0.65125  Biso   1.000  H
  H245     1.0000 0.39604  0.71233  0.01573  Biso   1.000  H
  H246     1.0000 0.04127  0.82093  0.77114  Biso   1.000  H
  H247     1.0000 0.79380  0.96490  0.86178  Biso   1.000  H
  H248     1.0000 0.67860  0.20353  0.52961  Biso   1.000  H
  H249     1.0000 0.03130  0.32083  0.72259  Biso   1.000  H
  H250     1.0000 0.29901  0.00111  0.63293  Biso   1.000  H
  H251     1.0000 0.17100  0.21024  0.00660  Biso   1.000  H
  H252     1.0000 0.53357  0.33701  0.76346  Biso   1.000  H
  H253     1.0000 0.30587  0.50265  0.14045  Biso   1.000  H
  H254     1.0000 0.18393  0.25158  0.49643  Biso   1.000  H
  H255     1.0000 0.52477  0.11814  0.26805  Biso   1.000  H
  H256     1.0000 0.80954  0.47983  0.35682  Biso   1.000  H
  H257     1.0000 0.67387  0.24838  0.01984  Biso   1.000  H
  H258     1.0000 0.03997  0.13594  0.22503  Biso   1.000  H
  H259     1.0000 0.26487  0.96913  0.13618  Biso   1.000  H
  H260     1.0000 0.38323  0.74811  0.50387  Biso   1.000  H
  H261     1.0000 0.04499  0.64037  0.27616  Biso   1.000  H
  H262     1.0000 0.76249  0.01836  0.35537  Biso   1.000  H
  H263     1.0000 0.89781  0.74849  0.98417  Biso   1.000  H
  H264     1.0000 0.53287  0.61742  0.23319  Biso   1.000  H
  H265     1.0000 0.02571  0.20018  0.84249  Biso   1.000  H
  H266     1.0000 0.89665  0.00186  0.23605  Biso   1.000  H
  H267     1.0000 0.26854  0.84221  0.98092  Biso   1.000  H
  H268     1.0000 0.52420  0.21034  0.63707  Biso   1.000  H
  H269     1.0000 0.39497  0.95800  0.26071  Biso   1.000  H
  H270     1.0000 0.76131  0.83459  0.50655  Biso   1.000  H
  H271     1.0000 0.53069  0.71257  0.85678  Biso   1.000  H
  H272     1.0000 0.67689  0.49118  0.22960  Biso   1.000  H
  H273     1.0000 0.30244  0.34522  0.01945  Biso   1.000  H
  H274     1.0000 0.04545  0.69197  0.65402  Biso   1.000  H
  H275     1.0000 0.18392  0.48633  0.27380  Biso   1.000  H
  H276     1.0000 0.80654  0.32768  0.50978  Biso   1.000  H
  H277     1.0000 0.04344  0.75965  0.14680  Biso   1.000  H
  H278     1.0000 0.16700  0.99607  0.75866  Biso   1.000  H
  H279     1.0000 0.79958  0.11715  0.99362  Biso   1.000  H
  H280     1.0000 0.52697  0.74808  0.35535  Biso   1.000  H
  H281     1.0000 0.66829  0.98217  0.73109  Biso   1.000  H
  H282     1.0000 0.30635  0.12597  0.50308  Biso   1.000  H
  H283     1.0000 0.53182  0.24528  0.13611  Biso   1.000  H
  H284     1.0000 0.39190  0.45684  0.77087  Biso   1.000  H
  H285     1.0000 0.76686  0.61199  0.97750  Biso   1.000  H
  H286     1.0000 0.03885  0.25888  0.34026  Biso   1.000  H
  H287     1.0000 0.89014  0.48130  0.72494  Biso   1.000  H
  H288     1.0000 0.25704  0.63216  0.49651  Biso   1.000  H
  H289     1.0000 0.11881  0.20834  0.98872  Biso   1.000  H
  H290     1.0000 0.03439  0.07948  0.22495  Biso   1.000  H
  H291     1.0000 0.26163  0.96614  0.08177  Biso   1.000  H
  H292     1.0000 0.62599  0.20109  0.52721  Biso   1.000  H
  H293     1.0000 0.52323  0.06549  0.26941  Biso   1.000  H
  H294     1.0000 0.76563  0.00591  0.41021  Biso   1.000  H
  H295     1.0000 0.44873  0.71277  0.02292  Biso   1.000  H
  H296     1.0000 0.53625  0.56877  0.23395  Biso   1.000  H
  H297     1.0000 0.31003  0.49897  0.08813  Biso   1.000  H
  H298     1.0000 0.93197  0.70515  0.50791  Biso   1.000  H
  H299     1.0000 0.04574  0.58524  0.27385  Biso   1.000  H
  H300     1.0000 0.81246  0.47834  0.41333  Biso   1.000  H
  H301     1.0000 0.95075  0.75060  0.99279  Biso   1.000  H
  H302     1.0000 0.02972  0.87544  0.77090  Biso   1.000  H
  H303     1.0000 0.79529  0.96666  0.91832  Biso   1.000  H
  H304     1.0000 0.43723  0.74598  0.49571  Biso   1.000  H
  H305     1.0000 0.52829  0.88830  0.72564  Biso   1.000  H
  H306     1.0000 0.29922  0.98965  0.58202  Biso   1.000  H
  H307     1.0000 0.61998  0.24574  0.01398  Biso   1.000  H
  H308     1.0000 0.54016  0.39182  0.76313  Biso   1.000  H
  H309     1.0000 0.76145  0.45344  0.90899  Biso   1.000  H
  H310     1.0000 0.12936  0.25325  0.49008  Biso   1.000  H
  H311     1.0000 0.03274  0.37184  0.72477  Biso   1.000  H
  H312     1.0000 0.26671  0.48170  0.59586  Biso   1.000  H
  H313     1.0000 0.25917  0.99727  0.89550  Biso   1.000  H
  H314     1.0000 0.93827  0.20395  0.99249  Biso   1.000  H
  H315     1.0000 0.04243  0.90083  0.23331  Biso   1.000  H
  H316     1.0000 0.75560  0.99039  0.58774  Biso   1.000  H
  H317     1.0000 0.45329  0.20329  0.47179  Biso   1.000  H
  H318     1.0000 0.54102  0.89045  0.27077  Biso   1.000  H
  H319     1.0000 0.31240  0.47587  0.91184  Biso   1.000  H
  H320     1.0000 0.63743  0.71150  0.99285  Biso   1.000  H
  H321     1.0000 0.53459  0.37866  0.22807  Biso   1.000  H
  H322     1.0000 0.80455  0.45465  0.59252  Biso   1.000  H
  H323     1.0000 0.11379  0.71151  0.52147  Biso   1.000  H
  H324     1.0000 0.02748  0.40366  0.26585  Biso   1.000  H
  H325     1.0000 0.80639  0.99642  0.09678  Biso   1.000  H
  H326     1.0000 0.12953  0.75538  0.99365  Biso   1.000  H
  H327     1.0000 0.01489  0.05595  0.76377  Biso   1.000  H
  H328     1.0000 0.30980  0.97639  0.39660  Biso   1.000  H
  H329     1.0000 0.62083  0.74962  0.50985  Biso   1.000  H
  H330     1.0000 0.54328  0.06949  0.72332  Biso   1.000  H
  H331     1.0000 0.76087  0.49577  0.08314  Biso   1.000  H
  H332     1.0000 0.43999  0.25185  0.99633  Biso   1.000  H
  H333     1.0000 0.52618  0.57184  0.77164  Biso   1.000  H
  H334     1.0000 0.26047  0.49889  0.42157  Biso   1.000  H
  H335     1.0000 0.94960  0.24264  0.50610  Biso   1.000  H
  H336     1.0000 0.03428  0.55805  0.74009  Biso   1.000  H
  H337     1.0000 0.02422  0.20175  0.89532  Biso   1.000  H
  H338     1.0000 0.95208  0.99924  0.22982  Biso   1.000  H
  H339     1.0000 0.26413  0.89440  0.97784  Biso   1.000  H
  H340     1.0000 0.51913  0.20831  0.58287  Biso   1.000  H
  H341     1.0000 0.44837  0.95672  0.26028  Biso   1.000  H
  H342     1.0000 0.76067  0.88742  0.50296  Biso   1.000  H
  H343     1.0000 0.53458  0.71105  0.91071  Biso   1.000  H
  H344     1.0000 0.62268  0.48499  0.22908  Biso   1.000  H
  H345     1.0000 0.30678  0.39644  0.01588  Biso   1.000  H
  H346     1.0000 0.04041  0.69440  0.60021  Biso   1.000  H
  H347     1.0000 0.12926  0.48073  0.27153  Biso   1.000  H
  H348     1.0000 0.80887  0.37684  0.50447  Biso   1.000  H
  H349     1.0000 0.03681  0.76154  0.09292  Biso   1.000  H
  H350     1.0000 0.11172  0.98120  0.76275  Biso   1.000  H
  H351     1.0000 0.80286  0.06349  0.99276  Biso   1.000  H
  H352     1.0000 0.53181  0.74687  0.40798  Biso   1.000  H
  H353     1.0000 0.61319  0.97446  0.73229  Biso   1.000  H
  H354     1.0000 0.30658  0.07157  0.49858  Biso   1.000  H
  H355     1.0000 0.52293  0.24822  0.08230  Biso   1.000  H
  H356     1.0000 0.44910  0.46531  0.77178  Biso   1.000  H
  H357     1.0000 0.76280  0.55927  0.98088  Biso   1.000  H
  H358     1.0000 0.04198  0.25318  0.39407  Biso   1.000  H
  H359     1.0000 0.94351  0.49180  0.72553  Biso   1.000  H
  H360     1.0000 0.25676  0.57698  0.49266  Biso   1.000  H
  H361     1.0000 0.02521  0.71264  0.42051  Biso   1.000  H
  H362     1.0000 0.43975  0.99796  0.71760  Biso   1.000  H
  H363     1.0000 0.75880  0.38379  0.99364  Biso   1.000  H
  H364     1.0000 0.55192  0.70723  0.09397  Biso   1.000  H
  H365     1.0000 0.93115  0.96924  0.77183  Biso   1.000  H
  H366     1.0000 0.26811  0.39533  0.50004  Biso   1.000  H
  H367     1.0000 0.55465  0.20706  0.40229  Biso   1.000  H
  H368     1.0000 0.12486  0.43860  0.73085  Biso   1.000  H
  H369     1.0000 0.80614  0.88433  0.00819  Biso   1.000  H
  H370     1.0000 0.04690  0.21552  0.07927  Biso   1.000  H
  H371     1.0000 0.62857  0.48499  0.77002  Biso   1.000  H
  H372     1.0000 0.30408  0.89230  0.48420  Biso   1.000  H
  H373     1.0000 0.04307  0.24104  0.57767  Biso   1.000  H
  H374     1.0000 0.62511  0.00098  0.27242  Biso   1.000  H
  H375     1.0000 0.31512  0.57784  0.97661  Biso   1.000  H
  H376     1.0000 0.54689  0.24934  0.89973  Biso   1.000  H
  H377     1.0000 0.12704  0.98681  0.22935  Biso   1.000  H
  H378     1.0000 0.80598  0.55781  0.52691  Biso   1.000  H
  H379     1.0000 0.53297  0.74841  0.59177  Biso   1.000  H
  H380     1.0000 0.94910  0.49922  0.26789  Biso   1.000  H
  H381     1.0000 0.26140  0.07421  0.01236  Biso   1.000  H
  H382     1.0000 0.04527  0.74670  0.91978  Biso   1.000  H
  H383     1.0000 0.44579  0.48891  0.22941  Biso   1.000  H
  H384     1.0000 0.76175  0.06409  0.50920  Biso   1.000  H
  H385     1.0000 0.26905  0.46431  0.33340  Biso   1.000  H
  H386     1.0000 0.30859  0.15498  0.46589  Biso   1.000  H
  H387     1.0000 0.50905  0.29757  0.21796  Biso   1.000  H
  H388     1.0000 0.71069  0.45593  0.22224  Biso   1.000  H
  H389     1.0000 0.85626  0.19861  0.03087  Biso   1.000  H
  H390     1.0000 0.00603  0.26163  0.30790  Biso   1.000  H
  H391     1.0000 0.31465  0.92530  0.31678  Biso   1.000  H
  H392     1.0000 0.19294  0.70916  0.47666  Biso   1.000  H
  H393     1.0000 0.00617  0.76862  0.18015  Biso   1.000  H
  H394     1.0000 0.80775  0.97039  0.18701  Biso   1.000  H
  H395     1.0000 0.76586  0.64311  0.00558  Biso   1.000  H
  H396     1.0000 0.55041  0.80805  0.26711  Biso   1.000  H
  H397     1.0000 0.81010  0.49762  0.67754  Biso   1.000  H
  H398     1.0000 0.75781  0.80056  0.53761  Biso   1.000  H
  H399     1.0000 0.55771  0.65382  0.77552  Biso   1.000  H
  H400     1.0000 0.32193  0.49945  0.82225  Biso   1.000  H
  H401     1.0000 0.27030  0.80874  0.95225  Biso   1.000  H
  H402     1.0000 0.08447  0.64361  0.72456  Biso   1.000  H
  H403     1.0000 0.75042  0.95501  0.67249  Biso   1.000  H
  H404     1.0000 0.80996  0.29702  0.54259  Biso   1.000  H
  H405     1.0000 0.99353  0.19718  0.81761  Biso   1.000  H
  H406     1.0000 0.24797  0.03406  0.81586  Biso   1.000  H
  H407     1.0000 0.30425  0.31237  0.98545  Biso   1.000  H
  H408     1.0000 0.50749  0.15032  0.72226  Biso   1.000  H
  H409     1.0000 0.31131  0.47331  0.17397  Biso   1.000  H
  H410     1.0000 0.22017  0.26823  0.45648  Biso   1.000  H
  H411     1.0000 0.50499  0.19641  0.31892  Biso   1.000  H
  H412     1.0000 0.86662  0.46882  0.26715  Biso   1.000  H
  H413     1.0000 0.70158  0.25224  0.96686  Biso   1.000  H
  H414     1.0000 0.01062  0.21700  0.16380  Biso   1.000  H
  H415     1.0000 0.20600  0.94310  0.22207  Biso   1.000  H
  H416     1.0000 0.35411  0.74886  0.46944  Biso   1.000  H
  H417     1.0000 0.00859  0.66123  0.27816  Biso   1.000  H
  H418     1.0000 0.75699  0.98115  0.33059  Biso   1.000  H
  H419     1.0000 0.86738  0.74281  0.01731  Biso   1.000  H
  H420     1.0000 0.50203  0.64932  0.22496  Biso   1.000  H
  H421     1.0000 0.77304  0.48768  0.83030  Biso   1.000  H
  H422     1.0000 0.80148  0.64694  0.55229  Biso   1.000  H
  H423     1.0000 0.57506  0.76989  0.67988  Biso   1.000  H
  H424     1.0000 0.20737  0.48038  0.74132  Biso   1.000  H
  H425     1.0000 0.37669  0.71613  0.97567  Biso   1.000  H
  H426     1.0000 0.07709  0.74093  0.82997  Biso   1.000  H
  H427     1.0000 0.79770  0.00078  0.83140  Biso   1.000  H
  H428     1.0000 0.76132  0.14254  0.54786  Biso   1.000  H
  H429     1.0000 0.06160  0.29084  0.71939  Biso   1.000  H
  H430     1.0000 0.35079  0.96866  0.71973  Biso   1.000  H
  H431     1.0000 0.20767  0.20823  0.97951  Biso   1.000  H
  H432     1.0000 0.50940  0.25998  0.82067  Biso   1.000  H
  H433     1.0000 0.30396  0.02871  0.65938  Biso   1.000  H
  H434     1.0000 0.75607  0.29945  0.03164  Biso   1.000  H
  H435     1.0000 0.05606  0.71913  0.33800  Biso   1.000  H
  H436     1.0000 0.84150  0.92986  0.78120  Biso   1.000  H
  H437     1.0000 0.25817  0.30079  0.53740  Biso   1.000  H
  H438     1.0000 0.57325  0.69678  0.18346  Biso   1.000  H
  H439     1.0000 0.26398  0.43606  0.67383  Biso   1.000  H
  H440     1.0000 0.81513  0.80464  0.96789  Biso   1.000  H
  H441     1.0000 0.57226  0.14672  0.26993  Biso   1.000  H
  H442     1.0000 0.70836  0.45210  0.76874  Biso   1.000  H
  H443     1.0000 0.29866  0.81118  0.52292  Biso   1.000  H
  H444     1.0000 0.07494  0.17002  0.21351  Biso   1.000  H
  H445     1.0000 0.71174  0.03988  0.27448  Biso   1.000  H
  H446     1.0000 0.31032  0.65446  0.01785  Biso   1.000  H
  H447     1.0000 0.00671  0.24031  0.66008  Biso   1.000  H
  H448     1.0000 0.26251  0.99870  0.16979  Biso   1.000  H
  H449     1.0000 0.84764  0.69186  0.47920  Biso   1.000  H
  H450     1.0000 0.56744  0.30705  0.76263  Biso   1.000  H
  H451     1.0000 0.80895  0.51468  0.32846  Biso   1.000  H
  H452     1.0000 0.24978  0.16385  0.05530  Biso   1.000  H
  H453     1.0000 0.48881  0.79454  0.71751  Biso   1.000  H
  H454     1.0000 0.36347  0.52910  0.22741  Biso   1.000  H
  H455     1.0000 0.70696  0.19908  0.49507  Biso   1.000  H
  H456     1.0000 0.00818  0.78984  0.78762  Biso   1.000  H
  H457     1.0000 0.70414  0.74759  0.47611  Biso   1.000  H
  H458     1.0000 0.50326  0.71284  0.82590  Biso   1.000  H
  H459     1.0000 0.86365  0.43067  0.72122  Biso   1.000  H
  H460     1.0000 0.21526  0.76539  0.01831  Biso   1.000  H
  H461     1.0000 0.00444  0.68248  0.68766  Biso   1.000  H
  H462     1.0000 0.35909  0.42201  0.77805  Biso   1.000  H
  H463     1.0000 0.86719  0.23475  0.49317  Biso   1.000  H
  H464     1.0000 0.04564  0.13688  0.76256  Biso   1.000  H
  H465     1.0000 0.69671  0.00931  0.73486  Biso   1.000  H
  H466     1.0000 0.36264  0.25312  0.03469  Biso   1.000  H
  H467     1.0000 0.56277  0.20538  0.66490  Biso   1.000  H
  H468     1.0000 0.20318  0.96803  0.76240  Biso   1.000  H
  H469     1.0000 0.36735  0.20836  0.51969  Biso   1.000  H
  H470     1.0000 0.56214  0.24187  0.16094  Biso   1.000  H
  H471     1.0000 0.21193  0.51978  0.27792  Biso   1.000  H
  H472     1.0000 0.80668  0.15249  0.96312  Biso   1.000  H
  H473     1.0000 0.06820  0.32435  0.26130  Biso   1.000  H
  H474     1.0000 0.75247  0.52701  0.17296  Biso   1.000  H
  H475     1.0000 0.25939  0.66183  0.52983  Biso   1.000  H
  H476     1.0000 0.07197  0.81622  0.23148  Biso   1.000  H
  H477     1.0000 0.36271  0.99160  0.26464  Biso   1.000  H
  H478     1.0000 0.71401  0.70340  0.95231  Biso   1.000  H
  H479     1.0000 0.49625  0.75047  0.32714  Biso   1.000  H
  H480     1.0000 0.86875  0.03117  0.22802  Biso   1.000  H
  N1       1.0000 0.71017  0.14972  0.51643  Biso   1.000  N
  N2       1.0000 0.53955  0.65246  0.17917  Biso   1.000  N
  N3       1.0000 0.21254  0.45970  0.68383  Biso   1.000  N
  N4       1.0000 0.20385  0.16001  0.01641  Biso   1.000  N
  N5       1.0000 0.03298  0.66595  0.33159  Biso   1.000  N
  N6       1.0000 0.71415  0.47191  0.82183  Biso   1.000  N
  N7       1.0000 0.85129  0.64650  0.51639  Biso   1.000  N
  N8       1.0000 0.04127  0.16562  0.16926  Biso   1.000  N
  N9       1.0000 0.35359  0.99623  0.66670  Biso   1.000  N
  N10      1.0000 0.36700  0.66073  0.99836  Biso   1.000  N
  N11      1.0000 0.54104  0.15077  0.31859  Biso   1.000  N
  N12      1.0000 0.84654  0.96637  0.82823  Biso   1.000  N
  N13      1.0000 0.35275  0.80300  0.49450  Biso   1.000  N
  N14      1.0000 0.53868  0.30653  0.81588  Biso   1.000  N
  N15      1.0000 0.86222  0.49197  0.32261  Biso   1.000  N
  N16      1.0000 0.86176  0.79896  0.99653  Biso   1.000  N
  N17      1.0000 0.03519  0.28954  0.66550  Biso   1.000  N
  N18      1.0000 0.35897  0.49834  0.17670  Biso   1.000  N
  N19      1.0000 0.21692  0.30690  0.49862  Biso   1.000  N
  N20      1.0000 0.04439  0.79331  0.82965  Biso   1.000  N
  N21      1.0000 0.71179  0.00727  0.32449  Biso   1.000  N
  N22      1.0000 0.70461  0.29829  0.00093  Biso   1.000  N
  N23      1.0000 0.52836  0.80334  0.67505  Biso   1.000  N
  N24      1.0000 0.21067  0.97515  0.17167  Biso   1.000  N
  N25      1.0000 0.86113  0.46517  0.67603  Biso   1.000  N
  N26      1.0000 0.70756  0.79971  0.50579  Biso   1.000  N
  N27      1.0000 0.52957  0.65874  0.82418  Biso   1.000  N
  N28      1.0000 0.36205  0.46148  0.82485  Biso   1.000  N
  N29      1.0000 0.21694  0.80753  0.98397  Biso   1.000  N
  N30      1.0000 0.04006  0.63949  0.68352  Biso   1.000  N
  N31      1.0000 0.70132  0.98566  0.67835  Biso   1.000  N
  N32      1.0000 0.86085  0.29291  0.50806  Biso   1.000  N
  N33      1.0000 0.02161  0.14259  0.81455  Biso   1.000  N
  N34      1.0000 0.20199  0.99668  0.81184  Biso   1.000  N
  N35      1.0000 0.35445  0.30748  0.01065  Biso   1.000  N
  N36      1.0000 0.53428  0.15512  0.66913  Biso   1.000  N
  N37      1.0000 0.21501  0.49131  0.33007  Biso   1.000  N
  N38      1.0000 0.36196  0.15706  0.49226  Biso   1.000  N
  N39      1.0000 0.53607  0.29678  0.16957  Biso   1.000  N
  N40      1.0000 0.70876  0.48889  0.17416  Biso   1.000  N
  N41      1.0000 0.85279  0.15078  0.99622  Biso   1.000  N
  N42      1.0000 0.03704  0.31450  0.31214  Biso   1.000  N
  N43      1.0000 0.36292  0.96237  0.31332  Biso   1.000  N
  N44      1.0000 0.20239  0.66142  0.50658  Biso   1.000  N
  N45      1.0000 0.04014  0.81451  0.18016  Biso   1.000  N
  N46      1.0000 0.86032  0.99615  0.18243  Biso   1.000  N
  N47      1.0000 0.71626  0.64840  0.97990  Biso   1.000  N
  N48      1.0000 0.52835  0.80253  0.32207  Biso   1.000  N
  O1       1.0000 0.38373  0.52620  0.99629  Biso   1.000  O
  O2       1.0000 0.03975  0.31848  0.53321  Biso   1.000  O
  O3       1.0000 0.57915  0.97943  0.34421  Biso   1.000  O
  O4       1.0000 0.87867  0.51045  0.51080  Biso   1.000  O
  O5       1.0000 0.53224  0.31950  0.95112  Biso   1.000  O
  O6       1.0000 0.07828  0.99020  0.15708  Biso   1.000  O
  O7       1.0000 0.19158  0.02719  0.99785  Biso   1.000  O
  O8       1.0000 0.52732  0.81757  0.54084  Biso   1.000  O
  O9       1.0000 0.99718  0.49323  0.33963  Biso   1.000  O
  O10      1.0000 0.68985  0.01720  0.49467  Biso   1.000  O
  O11      1.0000 0.04433  0.82128  0.96033  Biso   1.000  O
  O12      1.0000 0.49156  0.48174  0.15755  Biso   1.000  O
  O13      1.0000 0.68571  0.43321  0.00719  Biso   1.000  O
  O14      1.0000 0.02801  0.63745  0.46614  Biso   1.000  O
  O15      1.0000 0.48596  0.98406  0.64677  Biso   1.000  O
  O16      1.0000 0.19376  0.44276  0.50552  Biso   1.000  O
  O17      1.0000 0.54492  0.63860  0.04190  Biso   1.000  O
  O18      1.0000 0.98386  0.96724  0.84371  Biso   1.000  O
  O19      1.0000 0.88010  0.93252  0.00886  Biso   1.000  O
  O20      1.0000 0.54078  0.13359  0.45283  Biso   1.000  O
  O21      1.0000 0.07946  0.46702  0.66129  Biso   1.000  O
  O22      1.0000 0.37659  0.93623  0.48660  Biso   1.000  O
  O23      1.0000 0.03483  0.13763  0.03634  Biso   1.000  O
  O24      1.0000 0.57685  0.48477  0.84085  Biso   1.000  O
  O25      1.0000 0.99326  0.98621  0.15715  Biso   1.000  O
  O26      1.0000 0.19291  0.94159  0.99140  Biso   1.000  O
  O27      1.0000 0.02670  0.13182  0.95082  Biso   1.000  O
  O28      1.0000 0.49484  0.96528  0.33830  Biso   1.000  O
  O29      1.0000 0.68810  0.93263  0.49765  Biso   1.000  O
  O30      1.0000 0.52952  0.13513  0.53677  Biso   1.000  O
  O31      1.0000 0.57515  0.47281  0.15776  Biso   1.000  O
  O32      1.0000 0.37989  0.44157  0.00623  Biso   1.000  O
  O33      1.0000 0.53362  0.63718  0.95824  Biso   1.000  O
  O34      1.0000 0.08019  0.48997  0.34522  Biso   1.000  O
  O35      1.0000 0.88058  0.42776  0.49358  Biso   1.000  O
  O36      1.0000 0.02279  0.62791  0.54880  Biso   1.000  O
  O37      1.0000 0.06982  0.97020  0.83669  Biso   1.000  O
  O38      1.0000 0.87726  0.01767  0.00335  Biso   1.000  O
  O39      1.0000 0.03711  0.83274  0.04265  Biso   1.000  O
  O40      1.0000 0.56717  0.97299  0.65805  Biso   1.000  O
  O41      1.0000 0.37480  0.02059  0.48780  Biso   1.000  O
  O42      1.0000 0.53124  0.81823  0.45811  Biso   1.000  O
  O43      1.0000 0.49439  0.47421  0.84205  Biso   1.000  O
  O44      1.0000 0.69078  0.51596  0.99354  Biso   1.000  O
  O45      1.0000 0.53131  0.32110  0.03589  Biso   1.000  O
  O46      1.0000 0.99621  0.47099  0.65572  Biso   1.000  O
  O47      1.0000 0.19025  0.52624  0.51060  Biso   1.000  O
  O48      1.0000 0.03677  0.32238  0.44780  Biso   1.000  O
  O49      1.0000 0.04011  0.94605  0.15854  Biso   1.000  O
  O50      1.0000 0.18726  0.98724  0.95046  Biso   1.000  O
  O51      1.0000 0.98987  0.13399  0.99754  Biso   1.000  O
  O52      1.0000 0.54353  0.93302  0.34382  Biso   1.000  O
  O53      1.0000 0.68535  0.97092  0.54022  Biso   1.000  O
  O54      1.0000 0.49653  0.13487  0.48996  Biso   1.000  O
  O55      1.0000 0.52971  0.43504  0.15687  Biso   1.000  O
  O56      1.0000 0.38556  0.47776  0.95884  Biso   1.000  O
  O57      1.0000 0.58241  0.63855  0.99167  Biso   1.000  O
  O58      1.0000 0.03318  0.44940  0.34006  Biso   1.000  O
  O59      1.0000 0.87567  0.46124  0.54273  Biso   1.000  O
  O60      1.0000 0.06882  0.63596  0.50753  Biso   1.000  O
  O61      1.0000 0.02100  0.01110  0.84128  Biso   1.000  O
  O62      1.0000 0.87914  0.97536  0.04696  Biso   1.000  O
  O63      1.0000 0.08033  0.82694  0.00521  Biso   1.000  O
  O64      1.0000 0.53343  0.02113  0.65016  Biso   1.000  O
  O65      1.0000 0.37907  0.98188  0.44765  Biso   1.000  O
  O66      1.0000 0.57289  0.82057  0.49943  Biso   1.000  O
  O67      1.0000 0.53128  0.52108  0.84263  Biso   1.000  O
  O68      1.0000 0.68792  0.47991  0.04117  Biso   1.000  O
  O69      1.0000 0.49030  0.32242  0.99333  Biso   1.000  O
  O70      1.0000 0.03978  0.50994  0.66139  Biso   1.000  O
  O71      1.0000 0.18849  0.48581  0.46580  Biso   1.000  O
  O72      1.0000 0.99481  0.31980  0.48918  Biso   1.000  O
  O73      1.0000 0.03627  0.42616  0.65508  Biso   1.000  O
  O74      1.0000 0.69473  0.97640  0.45429  Biso   1.000  O
  O75      1.0000 0.49857  0.63779  0.00844  Biso   1.000  O
  O76      1.0000 0.54150  0.43999  0.83753  Biso   1.000  O
  O77      1.0000 0.19116  0.97997  0.03382  Biso   1.000  O
  O78      1.0000 0.98458  0.63260  0.50581  Biso   1.000  O
  O79      1.0000 0.52145  0.93741  0.65192  Biso   1.000  O
  O80      1.0000 0.88213  0.47809  0.45845  Biso   1.000  O
  O81      1.0000 0.07260  0.13461  0.99362  Biso   1.000  O
  O82      1.0000 0.03130  0.92733  0.83809  Biso   1.000  O
  O83      1.0000 0.38358  0.48772  0.04239  Biso   1.000  O
  O84      1.0000 0.57766  0.13328  0.50501  Biso   1.000  O
  O85      1.0000 0.04293  0.53048  0.34245  Biso   1.000  O
  O86      1.0000 0.37367  0.97737  0.53211  Biso   1.000  O
  O87      1.0000 0.57157  0.31519  0.99527  Biso   1.000  O
  O88      1.0000 0.53944  0.51731  0.16259  Biso   1.000  O
  O89      1.0000 0.87330  0.97020  0.96082  Biso   1.000  O
  O90      1.0000 0.08258  0.32160  0.48901  Biso   1.000  O
  O91      1.0000 0.53005  0.01612  0.34153  Biso   1.000  O
  O92      1.0000 0.19108  0.48260  0.55228  Biso   1.000  O
  O93      1.0000 0.99683  0.82337  0.99914  Biso   1.000  O
  O94      1.0000 0.03379  0.02971  0.15286  Biso   1.000  O
  O95      1.0000 0.68859  0.46540  0.96040  Biso   1.000  O
  O96      1.0000 0.48759  0.81651  0.49112  Biso   1.000  O
  O97      1.0000 0.49552  0.18368  0.48848  Biso   1.000  O
  O98      1.0000 0.52737  0.43274  0.20650  Biso   1.000  O
  O99      1.0000 0.23688  0.48984  0.46481  Biso   1.000  O
  O100     1.0000 0.98670  0.18172  0.98951  Biso   1.000  O
  O101     1.0000 0.03461  0.44974  0.29141  Biso   1.000  O
  O102     1.0000 0.73707  0.47910  0.04030  Biso   1.000  O
  O103     1.0000 0.06663  0.68514  0.51448  Biso   1.000  O
  O104     1.0000 0.04354  0.94999  0.20825  Biso   1.000  O
  O105     1.0000 0.33116  0.97903  0.44853  Biso   1.000  O
  O106     1.0000 0.58143  0.68737  0.99593  Biso   1.000  O
  O107     1.0000 0.55241  0.93538  0.29485  Biso   1.000  O
  O108     1.0000 0.83093  0.98145  0.04799  Biso   1.000  O
  O109     1.0000 0.57356  0.77153  0.50125  Biso   1.000  O
  O110     1.0000 0.53509  0.52449  0.79416  Biso   1.000  O
  O111     1.0000 0.82732  0.46531  0.54448  Biso   1.000  O
  O112     1.0000 0.08323  0.77763  0.01002  Biso   1.000  O
  O113     1.0000 0.03576  0.50537  0.71135  Biso   1.000  O
  O114     1.0000 0.33605  0.47576  0.95830  Biso   1.000  O
  O115     1.0000 0.99576  0.26909  0.49278  Biso   1.000  O
  O116     1.0000 0.02361  0.00678  0.79218  Biso   1.000  O
  O117     1.0000 0.73237  0.97624  0.54180  Biso   1.000  O
  O118     1.0000 0.48741  0.27327  0.99229  Biso   1.000  O
  O119     1.0000 0.53159  0.02375  0.69961  Biso   1.000  O
  O120     1.0000 0.23548  0.98872  0.94871  Biso   1.000  O
  O121     1.0000 0.07800  0.45971  0.70998  Biso   1.000  O
  O122     1.0000 0.73925  0.01913  0.50115  Biso   1.000  O
  O123     1.0000 0.54611  0.68811  0.04470  Biso   1.000  O
  O124     1.0000 0.58076  0.48765  0.79244  Biso   1.000  O
  O125     1.0000 0.24190  0.02853  0.99533  Biso   1.000  O
  O126     1.0000 0.03098  0.68747  0.46787  Biso   1.000  O
  O127     1.0000 0.48404  0.98491  0.69648  Biso   1.000  O
  O128     1.0000 0.83176  0.51085  0.51481  Biso   1.000  O
  O129     1.0000 0.03082  0.18592  0.03038  Biso   1.000  O
  O130     1.0000 0.98319  0.96561  0.79431  Biso   1.000  O
  O131     1.0000 0.33550  0.52716  0.99283  Biso   1.000  O
  O132     1.0000 0.54929  0.18135  0.45466  Biso   1.000  O
  O133     1.0000 0.99729  0.49453  0.29002  Biso   1.000  O
  O134     1.0000 0.32913  0.93861  0.49015  Biso   1.000  O
  O135     1.0000 0.53643  0.27104  0.95074  Biso   1.000  O
  O136     1.0000 0.49413  0.48098  0.20592  Biso   1.000  O
  O137     1.0000 0.83038  0.93359  0.00909  Biso   1.000  O
  O138     1.0000 0.04334  0.26950  0.53087  Biso   1.000  O
  O139     1.0000 0.57746  0.98817  0.29639  Biso   1.000  O
  O140     1.0000 0.24212  0.44335  0.50392  Biso   1.000  O
  O141     1.0000 0.04553  0.77254  0.96618  Biso   1.000  O
  O142     1.0000 0.07782  0.99729  0.20531  Biso   1.000  O
  O143     1.0000 0.73529  0.43112  0.00718  Biso   1.000  O
  O144     1.0000 0.53049  0.76877  0.54161  Biso   1.000  O
  O145     1.0000 0.57658  0.46764  0.20599  Biso   1.000  O
  O146     1.0000 0.23810  0.52915  0.50701  Biso   1.000  O
  O147     1.0000 0.52589  0.18380  0.53652  Biso   1.000  O
  O148     1.0000 0.08120  0.48731  0.29674  Biso   1.000  O
  O149     1.0000 0.74060  0.51346  0.99091  Biso   1.000  O
  O150     1.0000 0.02894  0.18108  0.94777  Biso   1.000  O
  O151     1.0000 0.99509  0.98512  0.20683  Biso   1.000  O
  O152     1.0000 0.32619  0.02233  0.48660  Biso   1.000  O
  O153     1.0000 0.02275  0.67578  0.55259  Biso   1.000  O
  O154     1.0000 0.49936  0.96317  0.28835  Biso   1.000  O
  O155     1.0000 0.82995  0.01646  0.99926  Biso   1.000  O
  O156     1.0000 0.53489  0.68717  0.95988  Biso   1.000  O
  O157     1.0000 0.49813  0.47642  0.79271  Biso   1.000  O
  O158     1.0000 0.83193  0.42896  0.49688  Biso   1.000  O
  O159     1.0000 0.53630  0.76997  0.45687  Biso   1.000  O
  O160     1.0000 0.99075  0.46381  0.70584  Biso   1.000  O
  O161     1.0000 0.33173  0.44265  0.00213  Biso   1.000  O
  O162     1.0000 0.03679  0.78437  0.04627  Biso   1.000  O
  O163     1.0000 0.06827  0.97020  0.78830  Biso   1.000  O
  O164     1.0000 0.73718  0.93419  0.50044  Biso   1.000  O
  O165     1.0000 0.03723  0.27311  0.44739  Biso   1.000  O
  O166     1.0000 0.56757  0.97974  0.70656  Biso   1.000  O
  O167     1.0000 0.24146  0.94455  0.98323  Biso   1.000  O
  O168     1.0000 0.52708  0.27271  0.03643  Biso   1.000  O
  O169     1.0000 0.02885  0.03158  0.20134  Biso   1.000  O
  O170     1.0000 0.24001  0.98001  0.03256  Biso   1.000  O
  O171     1.0000 0.07161  0.18394  0.99158  Biso   1.000  O
  O172     1.0000 0.52796  0.01597  0.29298  Biso   1.000  O
  O173     1.0000 0.74276  0.98051  0.45601  Biso   1.000  O
  O174     1.0000 0.57797  0.18151  0.50784  Biso   1.000  O
  O175     1.0000 0.54150  0.51466  0.21075  Biso   1.000  O
  O176     1.0000 0.33498  0.48935  0.04110  Biso   1.000  O
  O177     1.0000 0.49999  0.68754  0.01065  Biso   1.000  O
  O178     1.0000 0.04271  0.53187  0.29498  Biso   1.000  O
  O179     1.0000 0.83365  0.48158  0.45948  Biso   1.000  O
  O180     1.0000 0.98548  0.68183  0.50797  Biso   1.000  O
  O181     1.0000 0.02669  0.92470  0.79039  Biso   1.000  O
  O182     1.0000 0.82371  0.96753  0.96537  Biso   1.000  O
  O183     1.0000 0.99802  0.77547  0.99766  Biso   1.000  O
  O184     1.0000 0.52329  0.93916  0.69874  Biso   1.000  O
  O185     1.0000 0.32503  0.98501  0.53044  Biso   1.000  O
  O186     1.0000 0.48935  0.76855  0.49798  Biso   1.000  O
  O187     1.0000 0.54315  0.44108  0.78808  Biso   1.000  O
  O188     1.0000 0.73711  0.46181  0.95857  Biso   1.000  O
  O189     1.0000 0.57321  0.26666  0.99743  Biso   1.000  O
  O190     1.0000 0.03430  0.42508  0.70414  Biso   1.000  O
  O191     1.0000 0.23940  0.48606  0.54765  Biso   1.000  O
  O192     1.0000 0.08419  0.27329  0.48656  Biso   1.000  O
