data_image0
_cell_length_a       46.9879
_cell_length_b       46.8908
_cell_length_c       46.5462
_cell_angle_alpha    90
_cell_angle_beta     90
_cell_angle_gamma    90

_symmetry_space_group_name_H-M    "P 1"
_symmetry_int_tables_number       1

loop_
  _symmetry_equiv_pos_as_xyz
  'x, y, z'

loop_
  _atom_site_label
  _atom_site_occupancy
  _atom_site_fract_x
  _atom_site_fract_y
  _atom_site_fract_z
  _atom_site_thermal_displace_type
  _atom_site_B_iso_or_equiv
  _atom_site_type_symbol
  C1       1.0000 0.55673  0.97239  0.33330  Biso   1.000  C
  C2       1.0000 0.31755  0.54860  0.01850  Biso   1.000  C
  C3       1.0000 0.01263  0.31007  0.56253  Biso   1.000  C
  C4       1.0000 0.05935  0.98851  0.18840  Biso   1.000  C
  C5       1.0000 0.81468  0.54304  0.52310  Biso   1.000  C
  C6       1.0000 0.50889  0.31287  0.94884  Biso   1.000  C
  C7       1.0000 0.94589  0.49053  0.33838  Biso   1.000  C
  C8       1.0000 0.18935  0.04619  0.00976  Biso   1.000  C
  C9       1.0000 0.50099  0.81260  0.57988  Biso   1.000  C
  C10      1.0000 0.44201  0.46462  0.19342  Biso   1.000  C
  C11      1.0000 0.68186  0.04072  0.50682  Biso   1.000  C
  C12      1.0000 0.98328  0.80084  0.95819  Biso   1.000  C
  C13      1.0000 0.44956  0.99543  0.69325  Biso   1.000  C
  C14      1.0000 0.68552  0.43297  0.01212  Biso   1.000  C
  C15      1.0000 0.99924  0.67390  0.45470  Biso   1.000  C
  C16      1.0000 0.95172  0.98040  0.83277  Biso   1.000  C
  C17      1.0000 0.18224  0.44187  0.52139  Biso   1.000  C
  C18      1.0000 0.48951  0.66340  0.08005  Biso   1.000  C
  C19      1.0000 0.06293  0.47894  0.69488  Biso   1.000  C
  C20      1.0000 0.82041  0.93352  0.01087  Biso   1.000  C
  C21      1.0000 0.51258  0.16507  0.45415  Biso   1.000  C
  C22      1.0000 0.56063  0.49846  0.83765  Biso   1.000  C
  C23      1.0000 0.32098  0.94405  0.50235  Biso   1.000  C
  C24      1.0000 0.00672  0.17163  0.06512  Biso   1.000  C
  C25      1.0000 0.32110  0.05282  0.52044  Biso   1.000  C
  C26      1.0000 0.50367  0.30670  0.05920  Biso   1.000  C
  C27      1.0000 0.05298  0.48618  0.33046  Biso   1.000  C
  C28      1.0000 0.82441  0.03941  0.00457  Biso   1.000  C
  C29      1.0000 0.99956  0.30791  0.45709  Biso   1.000  C
  C30      1.0000 0.54739  0.49286  0.19808  Biso   1.000  C
  C31      1.0000 0.18300  0.55015  0.50166  Biso   1.000  C
  C32      1.0000 0.01455  0.81436  0.06237  Biso   1.000  C
  C33      1.0000 0.45080  0.99253  0.33512  Biso   1.000  C
  C34      1.0000 0.68457  0.54144  0.02875  Biso   1.000  C
  C35      1.0000 0.49678  0.80564  0.46713  Biso   1.000  C
  C36      1.0000 0.94768  0.99795  0.19007  Biso   1.000  C
  C37      1.0000 0.68507  0.93528  0.51350  Biso   1.000  C
  C38      1.0000 0.50035  0.67330  0.97440  Biso   1.000  C
  C39      1.0000 0.95185  0.48981  0.69551  Biso   1.000  C
  C40      1.0000 0.18457  0.93736  0.01632  Biso   1.000  C
  C41      1.0000 0.99952  0.66163  0.56158  Biso   1.000  C
  C42      1.0000 0.45079  0.50785  0.83121  Biso   1.000  C
  C43      1.0000 0.81972  0.43466  0.51632  Biso   1.000  C
  C44      1.0000 0.01120  0.16661  0.95617  Biso   1.000  C
  C45      1.0000 0.55999  0.00046  0.69325  Biso   1.000  C
  C46      1.0000 0.32436  0.44336  0.99723  Biso   1.000  C
  C47      1.0000 0.50770  0.17613  0.56144  Biso   1.000  C
  C48      1.0000 0.06011  0.97185  0.83293  Biso   1.000  C
  C49      1.0000 0.01227  0.03205  0.83227  Biso   1.000  C
  C50      1.0000 0.82089  0.98709  0.06393  Biso   1.000  C
  C51      1.0000 0.05287  0.81886  0.99183  Biso   1.000  C
  C52      1.0000 0.50043  0.05396  0.69452  Biso   1.000  C
  C53      1.0000 0.32051  0.00308  0.45986  Biso   1.000  C
  C54      1.0000 0.55517  0.80683  0.52491  Biso   1.000  C
  C55      1.0000 0.50930  0.55649  0.83975  Biso   1.000  C
  C56      1.0000 0.68132  0.48609  0.07747  Biso   1.000  C
  C57      1.0000 0.45328  0.31413  0.99820  Biso   1.000  C
  C58      1.0000 0.00981  0.53521  0.69185  Biso   1.000  C
  C59      1.0000 0.17941  0.48580  0.45515  Biso   1.000  C
  C60      1.0000 0.94861  0.31269  0.52191  Biso   1.000  C
  C61      1.0000 0.00114  0.93732  0.18611  Biso   1.000  C
  C62      1.0000 0.18928  0.98448  0.95922  Biso   1.000  C
  C63      1.0000 0.95241  0.16749  0.00565  Biso   1.000  C
  C64      1.0000 0.49410  0.92987  0.33611  Biso   1.000  C
  C65      1.0000 0.68116  0.99166  0.56224  Biso   1.000  C
  C66      1.0000 0.45211  0.17503  0.50485  Biso   1.000  C
  C67      1.0000 0.50502  0.43000  0.19662  Biso   1.000  C
  C68      1.0000 0.31725  0.50530  0.95479  Biso   1.000  C
  C69      1.0000 0.55151  0.66830  0.02689  Biso   1.000  C
  C70      1.0000 0.99614  0.43692  0.32957  Biso   1.000  C
  C71      1.0000 0.81532  0.48575  0.57369  Biso   1.000  C
  C72      1.0000 0.05573  0.66935  0.51014  Biso   1.000  C
  C73      1.0000 0.00128  0.54375  0.33626  Biso   1.000  C
  C74      1.0000 0.31714  0.99020  0.56699  Biso   1.000  C
  C75      1.0000 0.56182  0.30705  0.00688  Biso   1.000  C
  C76      1.0000 0.47776  0.53203  0.20024  Biso   1.000  C
  C77      1.0000 0.81963  0.98491  0.95598  Biso   1.000  C
  C78      1.0000 0.05636  0.31689  0.50526  Biso   1.000  C
  C79      1.0000 0.51127  0.03687  0.33152  Biso   1.000  C
  C80      1.0000 0.18259  0.50519  0.56399  Biso   1.000  C
  C81      1.0000 0.94586  0.80750  0.02087  Biso   1.000  C
  C82      1.0000 0.01100  0.04529  0.19332  Biso   1.000  C
  C83      1.0000 0.68175  0.49095  0.96736  Biso   1.000  C
  C84      1.0000 0.44356  0.81176  0.52497  Biso   1.000  C
  C85      1.0000 0.00317  0.42609  0.69757  Biso   1.000  C
  C86      1.0000 0.68740  0.98682  0.45621  Biso   1.000  C
  C87      1.0000 0.44304  0.66701  0.01991  Biso   1.000  C
  C88      1.0000 0.49849  0.44894  0.82934  Biso   1.000  C
  C89      1.0000 0.18815  0.99381  0.06541  Biso   1.000  C
  C90      1.0000 0.94675  0.66070  0.50381  Biso   1.000  C
  C91      1.0000 0.50824  0.94597  0.70047  Biso   1.000  C
  C92      1.0000 0.81602  0.49188  0.46624  Biso   1.000  C
  C93      1.0000 0.06282  0.17256  0.01449  Biso   1.000  C
  C94      1.0000 0.00160  0.92207  0.83626  Biso   1.000  C
  C95      1.0000 0.31722  0.48615  0.06197  Biso   1.000  C
  C96      1.0000 0.56131  0.17081  0.50923  Biso   1.000  C
  C97      1.0000 0.68495  0.07213  0.50896  Biso   1.000  C
  C98      1.0000 0.48107  0.66189  0.11108  Biso   1.000  C
  C99      1.0000 0.09428  0.48004  0.69275  Biso   1.000  C
  C100     1.0000 0.19058  0.07818  0.01109  Biso   1.000  C
  C101     1.0000 0.99423  0.67501  0.42268  Biso   1.000  C
  C102     1.0000 0.59342  0.50015  0.83678  Biso   1.000  C
  C103     1.0000 0.81644  0.57440  0.52027  Biso   1.000  C
  C104     1.0000 0.01221  0.17169  0.09722  Biso   1.000  C
  C105     1.0000 0.41743  0.00002  0.69326  Biso   1.000  C
  C106     1.0000 0.31603  0.57954  0.02492  Biso   1.000  C
  C107     1.0000 0.51501  0.16304  0.42147  Biso   1.000  C
  C108     1.0000 0.92010  0.98143  0.83144  Biso   1.000  C
  C109     1.0000 0.32043  0.91261  0.50008  Biso   1.000  C
  C110     1.0000 0.50706  0.31598  0.91696  Biso   1.000  C
  C111     1.0000 0.91331  0.49054  0.33850  Biso   1.000  C
  C112     1.0000 0.81888  0.90055  0.01497  Biso   1.000  C
  C113     1.0000 0.01154  0.30766  0.59544  Biso   1.000  C
  C114     1.0000 0.40929  0.45677  0.18923  Biso   1.000  C
  C115     1.0000 0.18234  0.40995  0.52308  Biso   1.000  C
  C116     1.0000 0.97771  0.79817  0.92625  Biso   1.000  C
  C117     1.0000 0.58953  0.97293  0.33341  Biso   1.000  C
  C118     1.0000 0.68811  0.40379  0.00053  Biso   1.000  C
  C119     1.0000 0.50179  0.81622  0.61086  Biso   1.000  C
  C120     1.0000 0.09135  0.98748  0.18970  Biso   1.000  C
  C121     1.0000 0.81901  0.99099  0.09471  Biso   1.000  C
  C122     1.0000 0.08563  0.81990  0.98887  Biso   1.000  C
  C123     1.0000 0.01976  0.06323  0.83242  Biso   1.000  C
  C124     1.0000 0.32101  0.00378  0.42733  Biso   1.000  C
  C125     1.0000 0.58780  0.80810  0.52232  Biso   1.000  C
  C126     1.0000 0.50177  0.08614  0.69321  Biso   1.000  C
  C127     1.0000 0.67958  0.48733  0.10959  Biso   1.000  C
  C128     1.0000 0.42238  0.31350  0.99610  Biso   1.000  C
  C129     1.0000 0.50735  0.58927  0.84162  Biso   1.000  C
  C130     1.0000 0.18052  0.48359  0.42248  Biso   1.000  C
  C131     1.0000 0.91773  0.31105  0.52686  Biso   1.000  C
  C132     1.0000 0.00698  0.56750  0.69157  Biso   1.000  C
  C133     1.0000 0.18717  0.97878  0.92768  Biso   1.000  C
  C134     1.0000 0.92042  0.16608  0.00412  Biso   1.000  C
  C135     1.0000 0.00288  0.90496  0.18840  Biso   1.000  C
  C136     1.0000 0.68313  0.99060  0.59407  Biso   1.000  C
  C137     1.0000 0.41911  0.17590  0.50355  Biso   1.000  C
  C138     1.0000 0.49586  0.89803  0.33681  Biso   1.000  C
  C139     1.0000 0.32014  0.51249  0.92254  Biso   1.000  C
  C140     1.0000 0.58387  0.66847  0.02623  Biso   1.000  C
  C141     1.0000 0.50428  0.39696  0.19404  Biso   1.000  C
  C142     1.0000 0.81719  0.48540  0.60539  Biso   1.000  C
  C143     1.0000 0.08651  0.66992  0.51553  Biso   1.000  C
  C144     1.0000 0.99462  0.40496  0.33012  Biso   1.000  C
  C145     1.0000 0.31533  0.48002  0.09358  Biso   1.000  C
  C146     1.0000 0.08833  0.31663  0.50901  Biso   1.000  C
  C147     1.0000 0.51137  0.06934  0.32942  Biso   1.000  C
  C148     1.0000 0.81539  0.49161  0.43342  Biso   1.000  C
  C149     1.0000 0.59269  0.30776  0.99906  Biso   1.000  C
  C150     1.0000 0.01541  0.07780  0.19364  Biso   1.000  C
  C151     1.0000 0.18761  0.98863  0.09729  Biso   1.000  C
  C152     1.0000 0.41135  0.81419  0.52396  Biso   1.000  C
  C153     1.0000 0.99834  0.57556  0.33502  Biso   1.000  C
  C154     1.0000 0.68791  0.98832  0.42372  Biso   1.000  C
  C155     1.0000 0.91478  0.80693  0.02656  Biso   1.000  C
  C156     1.0000 0.47542  0.56393  0.20222  Biso   1.000  C
  C157     1.0000 0.68407  0.49124  0.93419  Biso   1.000  C
  C158     1.0000 0.91541  0.66256  0.50733  Biso   1.000  C
  C159     1.0000 0.50488  0.91400  0.70248  Biso   1.000  C
  C160     1.0000 0.18295  0.50614  0.59617  Biso   1.000  C
  C161     1.0000 0.41067  0.67147  0.01739  Biso   1.000  C
  C162     1.0000 0.99217  0.89061  0.83445  Biso   1.000  C
  C163     1.0000 0.82088  0.98011  0.92269  Biso   1.000  C
  C164     1.0000 0.59279  0.16968  0.50858  Biso   1.000  C
  C165     1.0000 0.00165  0.39377  0.69562  Biso   1.000  C
  C166     1.0000 0.31877  0.98701  0.59892  Biso   1.000  C
  C167     1.0000 0.09550  0.17520  0.01645  Biso   1.000  C
  C168     1.0000 0.49715  0.41812  0.82734  Biso   1.000  C
  C169     1.0000 0.01184  0.81325  0.09548  Biso   1.000  C
  C170     1.0000 0.09144  0.97429  0.83333  Biso   1.000  C
  C171     1.0000 0.82532  0.07092  0.00264  Biso   1.000  C
  C172     1.0000 0.49601  0.80476  0.43484  Biso   1.000  C
  C173     1.0000 0.59217  0.99924  0.69431  Biso   1.000  C
  C174     1.0000 0.32255  0.08396  0.52664  Biso   1.000  C
  C175     1.0000 0.50094  0.30621  0.09091  Biso   1.000  C
  C176     1.0000 0.41945  0.50837  0.83120  Biso   1.000  C
  C177     1.0000 0.68227  0.57202  0.03205  Biso   1.000  C
  C178     1.0000 0.99921  0.30931  0.42465  Biso   1.000  C
  C179     1.0000 0.91973  0.49569  0.69393  Biso   1.000  C
  C180     1.0000 0.18421  0.58167  0.49543  Biso   1.000  C
  C181     1.0000 0.01361  0.16400  0.92489  Biso   1.000  C
  C182     1.0000 0.91546  0.99765  0.18919  Biso   1.000  C
  C183     1.0000 0.18279  0.90450  0.01246  Biso   1.000  C
  C184     1.0000 0.51152  0.17628  0.59357  Biso   1.000  C
  C185     1.0000 0.41855  0.98942  0.33383  Biso   1.000  C
  C186     1.0000 0.68363  0.90234  0.51706  Biso   1.000  C
  C187     1.0000 0.50206  0.67604  0.94215  Biso   1.000  C
  C188     1.0000 0.58083  0.49597  0.20029  Biso   1.000  C
  C189     1.0000 0.32501  0.41097  0.99252  Biso   1.000  C
  C190     1.0000 0.99715  0.66097  0.59364  Biso   1.000  C
  C191     1.0000 0.08452  0.47971  0.32910  Biso   1.000  C
  C192     1.0000 0.81989  0.40282  0.51370  Biso   1.000  C
  C193     1.0000 0.84945  0.97736  0.90834  Biso   1.000  C
  C194     1.0000 0.89710  0.83234  0.02020  Biso   1.000  C
  C195     1.0000 0.99020  0.87437  0.86081  Biso   1.000  C
  C196     1.0000 0.34598  0.99269  0.61422  Biso   1.000  C
  C197     1.0000 0.39679  0.84086  0.51746  Biso   1.000  C
  C198     1.0000 0.50582  0.89587  0.67482  Biso   1.000  C
  C199     1.0000 0.65929  0.49676  0.91673  Biso   1.000  C
  C200     1.0000 0.60805  0.33443  0.99804  Biso   1.000  C
  C201     1.0000 0.50011  0.40080  0.85367  Biso   1.000  C
  C202     1.0000 0.15639  0.49917  0.61296  Biso   1.000  C
  C203     1.0000 0.10344  0.34364  0.51257  Biso   1.000  C
  C204     1.0000 0.00150  0.37940  0.66767  Biso   1.000  C
  C205     1.0000 0.16123  0.99015  0.11305  Biso   1.000  C
  C206     1.0000 0.11150  0.14769  0.02055  Biso   1.000  C
  C207     1.0000 0.01768  0.09344  0.16601  Biso   1.000  C
  C208     1.0000 0.65992  0.98539  0.40826  Biso   1.000  C
  C209     1.0000 0.60792  0.14195  0.50803  Biso   1.000  C
  C210     1.0000 0.51587  0.08540  0.35620  Biso   1.000  C
  C211     1.0000 0.34283  0.47611  0.10945  Biso   1.000  C
  C212     1.0000 0.39469  0.64482  0.02064  Biso   1.000  C
  C213     1.0000 0.47302  0.58168  0.17626  Biso   1.000  C
  C214     1.0000 0.84434  0.49078  0.41709  Biso   1.000  C
  C215     1.0000 0.89807  0.63664  0.51108  Biso   1.000  C
  C216     1.0000 0.99754  0.59238  0.36138  Biso   1.000  C
  C217     1.0000 0.10734  0.97712  0.86115  Biso   1.000  C
  C218     1.0000 0.85222  0.08623  0.99967  Biso   1.000  C
  C219     1.0000 0.00786  0.84014  0.11079  Biso   1.000  C
  C220     1.0000 0.60616  0.99657  0.66700  Biso   1.000  C
  C221     1.0000 0.34949  0.09953  0.52152  Biso   1.000  C
  C222     1.0000 0.49901  0.83082  0.41780  Biso   1.000  C
  C223     1.0000 0.40180  0.50970  0.85828  Biso   1.000  C
  C224     1.0000 0.65313  0.58700  0.03096  Biso   1.000  C
  C225     1.0000 0.49961  0.33307  0.10844  Biso   1.000  C
  C226     1.0000 0.90105  0.48916  0.66939  Biso   1.000  C
  C227     1.0000 0.15699  0.59687  0.50146  Biso   1.000  C
  C228     1.0000 0.99642  0.33688  0.40891  Biso   1.000  C
  C229     1.0000 0.89860  0.99591  0.16182  Biso   1.000  C
  C230     1.0000 0.15495  0.89031  0.00830  Biso   1.000  C
  C231     1.0000 0.01365  0.13632  0.91076  Biso   1.000  C
  C232     1.0000 0.40257  0.99321  0.36010  Biso   1.000  C
  C233     1.0000 0.65602  0.88720  0.51826  Biso   1.000  C
  C234     1.0000 0.51282  0.14918  0.61035  Biso   1.000  C
  C235     1.0000 0.59840  0.49507  0.17406  Biso   1.000  C
  C236     1.0000 0.35220  0.39380  0.99357  Biso   1.000  C
  C237     1.0000 0.50295  0.65233  0.92252  Biso   1.000  C
  C238     1.0000 0.10289  0.48549  0.35357  Biso   1.000  C
  C239     1.0000 0.84741  0.38789  0.51654  Biso   1.000  C
  C240     1.0000 0.00039  0.63456  0.61086  Biso   1.000  C
  C241     1.0000 0.60871  0.49716  0.86405  Biso   1.000  C
  C242     1.0000 0.84501  0.58762  0.51739  Biso   1.000  C
  C243     1.0000 0.50334  0.84258  0.62525  Biso   1.000  C
  C244     1.0000 0.10894  0.48405  0.66536  Biso   1.000  C
  C245     1.0000 0.34403  0.59474  0.02516  Biso   1.000  C
  C246     1.0000 0.98287  0.82334  0.90990  Biso   1.000  C
  C247     1.0000 0.90347  0.98316  0.85821  Biso   1.000  C
  C248     1.0000 0.65843  0.08838  0.50744  Biso   1.000  C
  C249     1.0000 0.00630  0.33312  0.61459  Biso   1.000  C
  C250     1.0000 0.39911  0.00277  0.66599  Biso   1.000  C
  C251     1.0000 0.16308  0.09435  0.01469  Biso   1.000  C
  C252     1.0000 0.50559  0.34403  0.90335  Biso   1.000  C
  C253     1.0000 0.39402  0.46244  0.16229  Biso   1.000  C
  C254     1.0000 0.15469  0.39525  0.52303  Biso   1.000  C
  C255     1.0000 0.51251  0.13669  0.40549  Biso   1.000  C
  C256     1.0000 0.89742  0.48908  0.36510  Biso   1.000  C
  C257     1.0000 0.66156  0.38659  0.99813  Biso   1.000  C
  C258     1.0000 0.01752  0.14556  0.11395  Biso   1.000  C
  C259     1.0000 0.11001  0.98859  0.16381  Biso   1.000  C
  C260     1.0000 0.34651  0.89622  0.50054  Biso   1.000  C
  C261     1.0000 0.99395  0.64695  0.40818  Biso   1.000  C
  C262     1.0000 0.60586  0.97567  0.35990  Biso   1.000  C
  C263     1.0000 0.84514  0.88229  0.01560  Biso   1.000  C
  C264     1.0000 0.47686  0.63572  0.12628  Biso   1.000  C
  C265     1.0000 0.01648  0.07947  0.86020  Biso   1.000  C
  C266     1.0000 0.84588  0.98828  0.11222  Biso   1.000  C
  C267     1.0000 0.10266  0.84458  0.99290  Biso   1.000  C
  C268     1.0000 0.50375  0.09918  0.66406  Biso   1.000  C
  C269     1.0000 0.34860  0.99977  0.41274  Biso   1.000  C
  C270     1.0000 0.60366  0.83613  0.51974  Biso   1.000  C
  C271     1.0000 0.50843  0.60332  0.86959  Biso   1.000  C
  C272     1.0000 0.65175  0.49128  0.12452  Biso   1.000  C
  C273     1.0000 0.40525  0.34036  0.99659  Biso   1.000  C
  C274     1.0000 0.00637  0.58239  0.66303  Biso   1.000  C
  C275     1.0000 0.15451  0.48600  0.40557  Biso   1.000  C
  C276     1.0000 0.90070  0.33678  0.52350  Biso   1.000  C
  C277     1.0000 0.99913  0.88982  0.16261  Biso   1.000  C
  C278     1.0000 0.15987  0.97530  0.91206  Biso   1.000  C
  C279     1.0000 0.90561  0.13842  0.00325  Biso   1.000  C
  C280     1.0000 0.49862  0.88206  0.36382  Biso   1.000  C
  C281     1.0000 0.65649  0.99054  0.61218  Biso   1.000  C
  C282     1.0000 0.40063  0.14980  0.50987  Biso   1.000  C
  C283     1.0000 0.50214  0.38296  0.16536  Biso   1.000  C
  C284     1.0000 0.34822  0.51036  0.90684  Biso   1.000  C
  C285     1.0000 0.60005  0.64060  0.02432  Biso   1.000  C
  C286     1.0000 0.99364  0.38839  0.35661  Biso   1.000  C
  C287     1.0000 0.84457  0.48514  0.62217  Biso   1.000  C
  C288     1.0000 0.10472  0.64511  0.51090  Biso   1.000  C
  C289     1.0000 0.34488  0.86501  0.50622  Biso   1.000  C
  C290     1.0000 0.50124  0.34713  0.87341  Biso   1.000  C
  C291     1.0000 0.86522  0.48931  0.36347  Biso   1.000  C
  C292     1.0000 0.84316  0.85216  0.01983  Biso   1.000  C
  C293     1.0000 0.00807  0.32932  0.64588  Biso   1.000  C
  C294     1.0000 0.36180  0.46336  0.16070  Biso   1.000  C
  C295     1.0000 0.15734  0.36572  0.52053  Biso   1.000  C
  C296     1.0000 0.98244  0.82252  0.87835  Biso   1.000  C
  C297     1.0000 0.63722  0.98001  0.35673  Biso   1.000  C
  C298     1.0000 0.66206  0.35573  0.99601  Biso   1.000  C
  C299     1.0000 0.50072  0.84263  0.65723  Biso   1.000  C
  C300     1.0000 0.14170  0.98630  0.16525  Biso   1.000  C
  C301     1.0000 0.66097  0.11904  0.50947  Biso   1.000  C
  C302     1.0000 0.47517  0.63433  0.15739  Biso   1.000  C
  C303     1.0000 0.13805  0.49402  0.66688  Biso   1.000  C
  C304     1.0000 0.16480  0.12584  0.01643  Biso   1.000  C
  C305     1.0000 0.99587  0.64727  0.37746  Biso   1.000  C
  C306     1.0000 0.63942  0.49623  0.86283  Biso   1.000  C
  C307     1.0000 0.84507  0.61942  0.51781  Biso   1.000  C
  C308     1.0000 0.01291  0.14579  0.14548  Biso   1.000  C
  C309     1.0000 0.36908  0.99493  0.66717  Biso   1.000  C
  C310     1.0000 0.34206  0.62534  0.02002  Biso   1.000  C
  C311     1.0000 0.51043  0.13805  0.37423  Biso   1.000  C
  C312     1.0000 0.87179  0.98206  0.85544  Biso   1.000  C
  C313     1.0000 0.15546  0.48092  0.37518  Biso   1.000  C
  C314     1.0000 0.36951  0.15235  0.51342  Biso   1.000  C
  C315     1.0000 0.50138  0.35078  0.16323  Biso   1.000  C
  C316     1.0000 0.65214  0.49083  0.15591  Biso   1.000  C
  C317     1.0000 0.87398  0.13974  0.00346  Biso   1.000  C
  C318     1.0000 0.99360  0.35696  0.35725  Biso   1.000  C
  C319     1.0000 0.34808  0.99578  0.38043  Biso   1.000  C
  C320     1.0000 0.13481  0.64943  0.51134  Biso   1.000  C
  C321     1.0000 0.00083  0.85911  0.16267  Biso   1.000  C
  C322     1.0000 0.84603  0.99252  0.14265  Biso   1.000  C
  C323     1.0000 0.63011  0.63969  0.02842  Biso   1.000  C
  C324     1.0000 0.49779  0.85019  0.36391  Biso   1.000  C
  C325     1.0000 0.84616  0.48823  0.65254  Biso   1.000  C
  C326     1.0000 0.63600  0.83556  0.52092  Biso   1.000  C
  C327     1.0000 0.50685  0.63496  0.86988  Biso   1.000  C
  C328     1.0000 0.34796  0.51181  0.87666  Biso   1.000  C
  C329     1.0000 0.13301  0.84082  0.99570  Biso   1.000  C
  C330     1.0000 0.00042  0.61325  0.66429  Biso   1.000  C
  C331     1.0000 0.65916  0.99174  0.64346  Biso   1.000  C
  C332     1.0000 0.86889  0.33413  0.52077  Biso   1.000  C
  C333     1.0000 0.01685  0.11234  0.85931  Biso   1.000  C
  C334     1.0000 0.16037  0.97711  0.88110  Biso   1.000  C
  C335     1.0000 0.37371  0.34127  0.99583  Biso   1.000  C
  C336     1.0000 0.50683  0.13131  0.66401  Biso   1.000  C
  C337     1.0000 0.66047  0.49677  0.88516  Biso   1.000  C
  C338     1.0000 0.86763  0.64039  0.51441  Biso   1.000  C
  C339     1.0000 0.50148  0.86475  0.67673  Biso   1.000  C
  C340     1.0000 0.15800  0.50053  0.64508  Biso   1.000  C
  C341     1.0000 0.36400  0.64614  0.01702  Biso   1.000  C
  C342     1.0000 0.98596  0.84415  0.85757  Biso   1.000  C
  C343     1.0000 0.84939  0.98131  0.87674  Biso   1.000  C
  C344     1.0000 0.63966  0.14256  0.51065  Biso   1.000  C
  C345     1.0000 0.00603  0.34883  0.66924  Biso   1.000  C
  C346     1.0000 0.34815  0.99104  0.64559  Biso   1.000  C
  C347     1.0000 0.14319  0.14713  0.01857  Biso   1.000  C
  C348     1.0000 0.50012  0.36932  0.85245  Biso   1.000  C
  C349     1.0000 0.34142  0.46918  0.14008  Biso   1.000  C
  C350     1.0000 0.13583  0.34374  0.51591  Biso   1.000  C
  C351     1.0000 0.51165  0.11588  0.35363  Biso   1.000  C
  C352     1.0000 0.84456  0.49190  0.38516  Biso   1.000  C
  C353     1.0000 0.63979  0.33482  0.99538  Biso   1.000  C
  C354     1.0000 0.01333  0.12479  0.16610  Biso   1.000  C
  C355     1.0000 0.16323  0.98666  0.14421  Biso   1.000  C
  C356     1.0000 0.36486  0.84248  0.51494  Biso   1.000  C
  C357     1.0000 0.99718  0.62396  0.35808  Biso   1.000  C
  C358     1.0000 0.65895  0.98495  0.37710  Biso   1.000  C
  C359     1.0000 0.86566  0.83077  0.02223  Biso   1.000  C
  C360     1.0000 0.47352  0.61253  0.17882  Biso   1.000  C
  C361     1.0000 0.01628  0.13488  0.87915  Biso   1.000  C
  C362     1.0000 0.86673  0.99474  0.16460  Biso   1.000  C
  C363     1.0000 0.15583  0.85970  0.00237  Biso   1.000  C
  C364     1.0000 0.51035  0.15118  0.64156  Biso   1.000  C
  C365     1.0000 0.37042  0.99266  0.35871  Biso   1.000  C
  C366     1.0000 0.65780  0.85634  0.51957  Biso   1.000  C
  C367     1.0000 0.50508  0.65466  0.89264  Biso   1.000  C
  C368     1.0000 0.62989  0.49444  0.17601  Biso   1.000  C
  C369     1.0000 0.35173  0.36267  0.99490  Biso   1.000  C
  C370     1.0000 0.99840  0.63472  0.64276  Biso   1.000  C
  C371     1.0000 0.13381  0.48115  0.35318  Biso   1.000  C
  C372     1.0000 0.84668  0.35489  0.51963  Biso   1.000  C
  C373     1.0000 0.00490  0.83755  0.14179  Biso   1.000  C
  C374     1.0000 0.13855  0.97547  0.85886  Biso   1.000  C
  C375     1.0000 0.85213  0.11785  0.00193  Biso   1.000  C
  C376     1.0000 0.49741  0.82992  0.38659  Biso   1.000  C
  C377     1.0000 0.63802  0.99378  0.66680  Biso   1.000  C
  C378     1.0000 0.34784  0.13086  0.51811  Biso   1.000  C
  C379     1.0000 0.50016  0.33114  0.13926  Biso   1.000  C
  C380     1.0000 0.37051  0.51116  0.85588  Biso   1.000  C
  C381     1.0000 0.65189  0.61861  0.03091  Biso   1.000  C
  C382     1.0000 0.99618  0.33547  0.37778  Biso   1.000  C
  C383     1.0000 0.86962  0.49034  0.67166  Biso   1.000  C
  C384     1.0000 0.15690  0.62836  0.50664  Biso   1.000  C
  C385     1.0000 0.19313  0.14154  0.01265  Biso   1.000  C
  C386     1.0000 0.00781  0.17142  0.16091  Biso   1.000  C
  C387     1.0000 0.15751  0.98360  0.19292  Biso   1.000  C
  C388     1.0000 0.68909  0.13454  0.51034  Biso   1.000  C
  C389     1.0000 0.50891  0.16465  0.35872  Biso   1.000  C
  C390     1.0000 0.65298  0.98111  0.32921  Biso   1.000  C
  C391     1.0000 0.31555  0.63952  0.01398  Biso   1.000  C
  C392     1.0000 0.47634  0.66041  0.17483  Biso   1.000  C
  C393     1.0000 0.34480  0.45908  0.18693  Biso   1.000  C
  C394     1.0000 0.81980  0.63648  0.52316  Biso   1.000  C
  C395     1.0000 0.99709  0.67220  0.35991  Biso   1.000  C
  C396     1.0000 0.85030  0.49346  0.33693  Biso   1.000  C
  C397     1.0000 0.81630  0.83756  0.02407  Biso   1.000  C
  C398     1.0000 0.97876  0.79591  0.86214  Biso   1.000  C
  C399     1.0000 0.85740  0.98240  0.82773  Biso   1.000  C
  C400     1.0000 0.31797  0.85040  0.50725  Biso   1.000  C
  C401     1.0000 0.49621  0.81668  0.67460  Biso   1.000  C
  C402     1.0000 0.35557  0.98970  0.69417  Biso   1.000  C
  C403     1.0000 0.68976  0.33963  0.99753  Biso   1.000  C
  C404     1.0000 0.49801  0.32150  0.85499  Biso   1.000  C
  C405     1.0000 0.65572  0.49910  0.83725  Biso   1.000  C
  C406     1.0000 0.18273  0.34885  0.52094  Biso   1.000  C
  C407     1.0000 0.01237  0.30168  0.65930  Biso   1.000  C
  C408     1.0000 0.15323  0.50031  0.69352  Biso   1.000  C
  C409     1.0000 0.15566  0.97826  0.83250  Biso   1.000  C
  C410     1.0000 0.82540  0.13370  0.00481  Biso   1.000  C
  C411     1.0000 0.00685  0.81102  0.15702  Biso   1.000  C
  C412     1.0000 0.65536  0.99213  0.69220  Biso   1.000  C
  C413     1.0000 0.32263  0.14817  0.52459  Biso   1.000  C
  C414     1.0000 0.49416  0.80266  0.37139  Biso   1.000  C
  C415     1.0000 0.35707  0.51282  0.82775  Biso   1.000  C
  C416     1.0000 0.67916  0.63457  0.03465  Biso   1.000  C
  C417     1.0000 0.50301  0.30295  0.15279  Biso   1.000  C
  C418     1.0000 0.85605  0.49723  0.69940  Biso   1.000  C
  C419     1.0000 0.18285  0.64368  0.50509  Biso   1.000  C
  C420     1.0000 0.99547  0.30871  0.36261  Biso   1.000  C
  C421     1.0000 0.85124  0.99651  0.19057  Biso   1.000  C
  C422     1.0000 0.18208  0.84287  0.00183  Biso   1.000  C
  C423     1.0000 0.01864  0.16031  0.86159  Biso   1.000  C
  C424     1.0000 0.35420  0.98884  0.33184  Biso   1.000  C
  C425     1.0000 0.68532  0.84058  0.52037  Biso   1.000  C
  C426     1.0000 0.51099  0.17886  0.65708  Biso   1.000  C
  C427     1.0000 0.64394  0.49472  0.20410  Biso   1.000  C
  C428     1.0000 0.32505  0.34758  0.99596  Biso   1.000  C
  C429     1.0000 0.50170  0.68265  0.88003  Biso   1.000  C
  C430     1.0000 0.14882  0.47230  0.32658  Biso   1.000  C
  C431     1.0000 0.81988  0.33799  0.51924  Biso   1.000  C
  C432     1.0000 0.99313  0.66114  0.65695  Biso   1.000  C
  C433     1.0000 0.01914  0.12623  0.83220  Biso   1.000  C
  C434     1.0000 0.81878  0.99591  0.15739  Biso   1.000  C
  C435     1.0000 0.14749  0.81372  0.99319  Biso   1.000  C
  C436     1.0000 0.50336  0.14750  0.69099  Biso   1.000  C
  C437     1.0000 0.32102  0.99445  0.36396  Biso   1.000  C
  C438     1.0000 0.65183  0.80812  0.52367  Biso   1.000  C
  C439     1.0000 0.50436  0.65210  0.84493  Biso   1.000  C
  C440     1.0000 0.67894  0.49099  0.17151  Biso   1.000  C
  C441     1.0000 0.35794  0.31439  0.99276  Biso   1.000  C
  C442     1.0000 0.99637  0.62955  0.69034  Biso   1.000  C
  C443     1.0000 0.18207  0.47544  0.35908  Biso   1.000  C
  C444     1.0000 0.85475  0.30645  0.52215  Biso   1.000  C
  C445     1.0000 0.00285  0.84239  0.19109  Biso   1.000  C
  C446     1.0000 0.18748  0.97860  0.86535  Biso   1.000  C
  C447     1.0000 0.85716  0.16640  0.00479  Biso   1.000  C
  C448     1.0000 0.49687  0.83405  0.33661  Biso   1.000  C
  C449     1.0000 0.68684  0.98896  0.65671  Biso   1.000  C
  C450     1.0000 0.35503  0.17979  0.51433  Biso   1.000  C
  C451     1.0000 0.50155  0.33327  0.18867  Biso   1.000  C
  C452     1.0000 0.32223  0.51467  0.85934  Biso   1.000  C
  C453     1.0000 0.64603  0.66641  0.03301  Biso   1.000  C
  C454     1.0000 0.99222  0.34128  0.32952  Biso   1.000  C
  C455     1.0000 0.82068  0.49101  0.67026  Biso   1.000  C
  C456     1.0000 0.14963  0.67625  0.51335  Biso   1.000  C
  C457     1.0000 0.99610  0.63641  0.32948  Biso   1.000  C
  C458     1.0000 0.32283  0.98316  0.66200  Biso   1.000  C
  C459     1.0000 0.65626  0.30844  0.99711  Biso   1.000  C
  C460     1.0000 0.47219  0.62655  0.20644  Biso   1.000  C
  C461     1.0000 0.82369  0.98063  0.85856  Biso   1.000  C
  C462     1.0000 0.15205  0.31667  0.51063  Biso   1.000  C
  C463     1.0000 0.50856  0.13033  0.32699  Biso   1.000  C
  C464     1.0000 0.18398  0.50956  0.65940  Biso   1.000  C
  C465     1.0000 0.84928  0.80420  0.03024  Biso   1.000  C
  C466     1.0000 0.00689  0.13931  0.19252  Biso   1.000  C
  C467     1.0000 0.68773  0.49417  0.87005  Biso   1.000  C
  C468     1.0000 0.34936  0.81666  0.51648  Biso   1.000  C
  C469     1.0000 0.00896  0.33182  0.69469  Biso   1.000  C
  C470     1.0000 0.68499  0.98741  0.36079  Biso   1.000  C
  C471     1.0000 0.34672  0.67204  0.01001  Biso   1.000  C
  C472     1.0000 0.49628  0.35666  0.82553  Biso   1.000  C
  C473     1.0000 0.18947  0.98321  0.15954  Biso   1.000  C
  C474     1.0000 0.85338  0.66840  0.51426  Biso   1.000  C
  C475     1.0000 0.49640  0.85190  0.70482  Biso   1.000  C
  C476     1.0000 0.81782  0.49429  0.36964  Biso   1.000  C
  C477     1.0000 0.15865  0.17393  0.01475  Biso   1.000  C
  C478     1.0000 0.98372  0.83039  0.83114  Biso   1.000  C
  C479     1.0000 0.31197  0.46660  0.15508  Biso   1.000  C
  C480     1.0000 0.65706  0.16877  0.51194  Biso   1.000  C
  C481     1.0000 0.36303  0.78885  0.52041  Biso   1.000  C
  C482     1.0000 0.49380  0.37366  0.79864  Biso   1.000  C
  C483     1.0000 0.79053  0.49299  0.38585  Biso   1.000  C
  C484     1.0000 0.86661  0.77921  0.03507  Biso   1.000  C
  C485     1.0000 0.00653  0.34663  0.72309  Biso   1.000  C
  C486     1.0000 0.28529  0.47332  0.13996  Biso   1.000  C
  C487     1.0000 0.13622  0.28998  0.50698  Biso   1.000  C
  C488     1.0000 0.98751  0.84733  0.80415  Biso   1.000  C
  C489     1.0000 0.71217  0.99105  0.37523  Biso   1.000  C
  C490     1.0000 0.64036  0.28134  0.99697  Biso   1.000  C
  C491     1.0000 0.49164  0.86913  0.73093  Biso   1.000  C
  C492     1.0000 0.21666  0.98133  0.14306  Biso   1.000  C
  C493     1.0000 0.64015  0.19681  0.51218  Biso   1.000  C
  C494     1.0000 0.47307  0.60774  0.23364  Biso   1.000  C
  C495     1.0000 0.21033  0.51751  0.64396  Biso   1.000  C
  C496     1.0000 0.14192  0.20180  0.01229  Biso   1.000  C
  C497     1.0000 0.99759  0.61821  0.30395  Biso   1.000  C
  C498     1.0000 0.71469  0.48848  0.88924  Biso   1.000  C
  C499     1.0000 0.87029  0.69423  0.51184  Biso   1.000  C
  C500     1.0000 0.00789  0.12415  0.22006  Biso   1.000  C
  C501     1.0000 0.29713  0.97441  0.64607  Biso   1.000  C
  C502     1.0000 0.36380  0.69925  0.00767  Biso   1.000  C
  C503     1.0000 0.50217  0.11447  0.30058  Biso   1.000  C
  C504     1.0000 0.79509  0.97960  0.87440  Biso   1.000  C
  C505     1.0000 0.64199  0.50293  0.80937  Biso   1.000  C
  C506     1.0000 0.79103  0.62289  0.52348  Biso   1.000  C
  C507     1.0000 0.49453  0.78929  0.65986  Biso   1.000  C
  C508     1.0000 0.13931  0.49369  0.72102  Biso   1.000  C
  C509     1.0000 0.28871  0.62491  0.01603  Biso   1.000  C
  C510     1.0000 0.97303  0.76974  0.87975  Biso   1.000  C
  C511     1.0000 0.87535  0.98243  0.79994  Biso   1.000  C
  C512     1.0000 0.71596  0.11757  0.51079  Biso   1.000  C
  C513     1.0000 0.01718  0.27572  0.64106  Biso   1.000  C
  C514     1.0000 0.37143  0.99426  0.72049  Biso   1.000  C
  C515     1.0000 0.21983  0.12572  0.00693  Biso   1.000  C
  C516     1.0000 0.50132  0.29343  0.86949  Biso   1.000  C
  C517     1.0000 0.36011  0.45007  0.21362  Biso   1.000  C
  C518     1.0000 0.21067  0.36406  0.52068  Biso   1.000  C
  C519     1.0000 0.51200  0.19098  0.37472  Biso   1.000  C
  C520     1.0000 0.86792  0.49718  0.31055  Biso   1.000  C
  C521     1.0000 0.71612  0.35549  0.99767  Biso   1.000  C
  C522     1.0000 0.00319  0.19799  0.14358  Biso   1.000  C
  C523     1.0000 0.13997  0.98142  0.21937  Biso   1.000  C
  C524     1.0000 0.29043  0.86709  0.50345  Biso   1.000  C
  C525     1.0000 0.99680  0.69923  0.37572  Biso   1.000  C
  C526     1.0000 0.63535  0.97498  0.30296  Biso   1.000  C
  C527     1.0000 0.79017  0.85472  0.02324  Biso   1.000  C
  C528     1.0000 0.47848  0.68778  0.15915  Biso   1.000  C
  C529     1.0000 0.79795  0.11724  0.00588  Biso   1.000  C
  C530     1.0000 0.00758  0.78284  0.14186  Biso   1.000  C
  C531     1.0000 0.14038  0.98114  0.80533  Biso   1.000  C
  C532     1.0000 0.29549  0.13396  0.53459  Biso   1.000  C
  C533     1.0000 0.48876  0.77630  0.38942  Biso   1.000  C
  C534     1.0000 0.63981  0.99404  0.72015  Biso   1.000  C
  C535     1.0000 0.70678  0.61986  0.03462  Biso   1.000  C
  C536     1.0000 0.50311  0.27502  0.13692  Biso   1.000  C
  C537     1.0000 0.37507  0.50971  0.80052  Biso   1.000  C
  C538     1.0000 0.20960  0.62917  0.49387  Biso   1.000  C
  C539     1.0000 0.99865  0.28186  0.37785  Biso   1.000  C
  C540     1.0000 0.87399  0.50340  0.72381  Biso   1.000  C
  C541     1.0000 0.21008  0.85770  0.00725  Biso   1.000  C
  C542     1.0000 0.01868  0.19028  0.87735  Biso   1.000  C
  C543     1.0000 0.86768  0.99615  0.21787  Biso   1.000  C
  C544     1.0000 0.71325  0.85602  0.52062  Biso   1.000  C
  C545     1.0000 0.51280  0.20555  0.64003  Biso   1.000  C
  C546     1.0000 0.37185  0.98250  0.30519  Biso   1.000  C
  C547     1.0000 0.29790  0.36406  0.00058  Biso   1.000  C
  C548     1.0000 0.49839  0.70763  0.89843  Biso   1.000  C
  C549     1.0000 0.62685  0.49781  0.23016  Biso   1.000  C
  C550     1.0000 0.79386  0.35355  0.51646  Biso   1.000  C
  C551     1.0000 0.98740  0.68710  0.64043  Biso   1.000  C
  C552     1.0000 0.13000  0.46704  0.30108  Biso   1.000  C
  C553     1.0000 0.02408  0.11076  0.80574  Biso   1.000  C
  C554     1.0000 0.79183  0.00048  0.14194  Biso   1.000  C
  C555     1.0000 0.13019  0.78847  0.98564  Biso   1.000  C
  C556     1.0000 0.49958  0.13354  0.71947  Biso   1.000  C
  C557     1.0000 0.29339  0.99675  0.38156  Biso   1.000  C
  C558     1.0000 0.63581  0.78179  0.52457  Biso   1.000  C
  C559     1.0000 0.50346  0.63764  0.81725  Biso   1.000  C
  C560     1.0000 0.70689  0.48868  0.15689  Biso   1.000  C
  C561     1.0000 0.37539  0.28752  0.98828  Biso   1.000  C
  C562     1.0000 0.99566  0.61583  0.71915  Biso   1.000  C
  C563     1.0000 0.20928  0.47434  0.37653  Biso   1.000  C
  C564     1.0000 0.87240  0.28044  0.52781  Biso   1.000  C
  C565     1.0000 0.00385  0.85822  0.21825  Biso   1.000  C
  C566     1.0000 0.21408  0.97789  0.88141  Biso   1.000  C
  C567     1.0000 0.87218  0.19313  0.00447  Biso   1.000  C
  C568     1.0000 0.49385  0.85167  0.30985  Biso   1.000  C
  C569     1.0000 0.71314  0.98568  0.63989  Biso   1.000  C
  C570     1.0000 0.37109  0.20573  0.50596  Biso   1.000  C
  C571     1.0000 0.50345  0.34821  0.21819  Biso   1.000  C
  C572     1.0000 0.29459  0.51915  0.87352  Biso   1.000  C
  C573     1.0000 0.63079  0.69398  0.03392  Biso   1.000  C
  C574     1.0000 0.98915  0.35841  0.30323  Biso   1.000  C
  C575     1.0000 0.79301  0.48887  0.65475  Biso   1.000  C
  C576     1.0000 0.13059  0.70103  0.52098  Biso   1.000  C
  C577     1.0000 0.28709  0.47921  0.10899  Biso   1.000  C
  C578     1.0000 0.10486  0.28960  0.50466  Biso   1.000  C
  C579     1.0000 0.50477  0.08306  0.30233  Biso   1.000  C
  C580     1.0000 0.78963  0.49146  0.41746  Biso   1.000  C
  C581     1.0000 0.60930  0.28015  0.99789  Biso   1.000  C
  C582     1.0000 0.01167  0.09344  0.22212  Biso   1.000  C
  C583     1.0000 0.21551  0.98308  0.11156  Biso   1.000  C
  C584     1.0000 0.39542  0.78744  0.52667  Biso   1.000  C
  C585     1.0000 0.99762  0.58802  0.30654  Biso   1.000  C
  C586     1.0000 0.71471  0.99286  0.40653  Biso   1.000  C
  C587     1.0000 0.89903  0.78029  0.03316  Biso   1.000  C
  C588     1.0000 0.47359  0.57682  0.23022  Biso   1.000  C
  C589     1.0000 0.71239  0.48802  0.92127  Biso   1.000  C
  C590     1.0000 0.90223  0.69131  0.50823  Biso   1.000  C
  C591     1.0000 0.49478  0.90115  0.72905  Biso   1.000  C
  C592     1.0000 0.20857  0.51722  0.61168  Biso   1.000  C
  C593     1.0000 0.39649  0.69848  0.00884  Biso   1.000  C
  C594     1.0000 0.99206  0.87824  0.80657  Biso   1.000  C
  C595     1.0000 0.79412  0.97979  0.90555  Biso   1.000  C
  C596     1.0000 0.60913  0.19717  0.50969  Biso   1.000  C
  C597     1.0000 0.00152  0.37761  0.72353  Biso   1.000  C
  C598     1.0000 0.29403  0.97711  0.61417  Biso   1.000  C
  C599     1.0000 0.11012  0.20246  0.01150  Biso   1.000  C
  C600     1.0000 0.49403  0.40415  0.79945  Biso   1.000  C
  C601     1.0000 0.21524  0.98006  0.91230  Biso   1.000  C
  C602     1.0000 0.90375  0.19165  0.00443  Biso   1.000  C
  C603     1.0000 0.00278  0.88977  0.21650  Biso   1.000  C
  C604     1.0000 0.71184  0.98900  0.60920  Biso   1.000  C
  C605     1.0000 0.40307  0.20456  0.50000  Biso   1.000  C
  C606     1.0000 0.49415  0.88243  0.31033  Biso   1.000  C
  C607     1.0000 0.29253  0.51766  0.90544  Biso   1.000  C
  C608     1.0000 0.60001  0.69485  0.03017  Biso   1.000  C
  C609     1.0000 0.50260  0.37983  0.21977  Biso   1.000  C
  C610     1.0000 0.79027  0.48563  0.62279  Biso   1.000  C
  C611     1.0000 0.09835  0.69815  0.52207  Biso   1.000  C
  C612     1.0000 0.98987  0.38973  0.30366  Biso   1.000  C
  C613     1.0000 0.79203  0.99569  0.11057  Biso   1.000  C
  C614     1.0000 0.09988  0.79233  0.98538  Biso   1.000  C
  C615     1.0000 0.02427  0.07980  0.80428  Biso   1.000  C
  C616     1.0000 0.29403  0.00203  0.41140  Biso   1.000  C
  C617     1.0000 0.60401  0.78133  0.52349  Biso   1.000  C
  C618     1.0000 0.49858  0.10246  0.71913  Biso   1.000  C
  C619     1.0000 0.70742  0.48607  0.12497  Biso   1.000  C
  C620     1.0000 0.40773  0.28723  0.99135  Biso   1.000  C
  C621     1.0000 0.50638  0.60654  0.81523  Biso   1.000  C
  C622     1.0000 0.20838  0.48061  0.40720  Biso   1.000  C
  C623     1.0000 0.90359  0.28252  0.52930  Biso   1.000  C
  C624     1.0000 0.00078  0.58463  0.71741  Biso   1.000  C
  C625     1.0000 0.01696  0.19067  0.90877  Biso   1.000  C
  C626     1.0000 0.89917  0.99640  0.21730  Biso   1.000  C
  C627     1.0000 0.20980  0.88915  0.01141  Biso   1.000  C
  C628     1.0000 0.51332  0.20359  0.60840  Biso   1.000  C
  C629     1.0000 0.40331  0.98272  0.30621  Biso   1.000  C
  C630     1.0000 0.71163  0.88707  0.52115  Biso   1.000  C
  C631     1.0000 0.50075  0.70466  0.92945  Biso   1.000  C
  C632     1.0000 0.59486  0.49784  0.22772  Biso   1.000  C
  C633     1.0000 0.29817  0.39547  0.99685  Biso   1.000  C
  C634     1.0000 0.99125  0.68732  0.60886  Biso   1.000  C
  C635     1.0000 0.09908  0.47020  0.30223  Biso   1.000  C
  C636     1.0000 0.79446  0.38454  0.51423  Biso   1.000  C
  C637     1.0000 0.01054  0.78536  0.11091  Biso   1.000  C
  C638     1.0000 0.10914  0.97630  0.80599  Biso   1.000  C
  C639     1.0000 0.79847  0.08504  0.00469  Biso   1.000  C
  C640     1.0000 0.49083  0.77716  0.42110  Biso   1.000  C
  C641     1.0000 0.60801  0.99517  0.72119  Biso   1.000  C
  C642     1.0000 0.29609  0.10210  0.53412  Biso   1.000  C
  C643     1.0000 0.50278  0.27786  0.10597  Biso   1.000  C
  C644     1.0000 0.40692  0.51041  0.80279  Biso   1.000  C
  C645     1.0000 0.70910  0.58749  0.03443  Biso   1.000  C
  C646     1.0000 0.00033  0.28252  0.40914  Biso   1.000  C
  C647     1.0000 0.90551  0.50345  0.72006  Biso   1.000  C
  C648     1.0000 0.21136  0.59759  0.49037  Biso   1.000  C
  C649     1.0000 0.99367  0.70273  0.40667  Biso   1.000  C
  C650     1.0000 0.40129  0.99662  0.71979  Biso   1.000  C
  C651     1.0000 0.71503  0.38723  0.99923  Biso   1.000  C
  C652     1.0000 0.48063  0.68867  0.12787  Biso   1.000  C
  C653     1.0000 0.90669  0.97991  0.80191  Biso   1.000  C
  C654     1.0000 0.21094  0.39544  0.52312  Biso   1.000  C
  C655     1.0000 0.51652  0.19025  0.40578  Biso   1.000  C
  C656     1.0000 0.11025  0.48226  0.72079  Biso   1.000  C
  C657     1.0000 0.79079  0.88631  0.01918  Biso   1.000  C
  C658     1.0000 0.00602  0.19875  0.11213  Biso   1.000  C
  C659     1.0000 0.61039  0.50398  0.80801  Biso   1.000  C
  C660     1.0000 0.29165  0.89818  0.50049  Biso   1.000  C
  C661     1.0000 0.01591  0.28003  0.60976  Biso   1.000  C
  C662     1.0000 0.60472  0.96996  0.30557  Biso   1.000  C
  C663     1.0000 0.28811  0.59518  0.02306  Biso   1.000  C
  C664     1.0000 0.50571  0.29059  0.90018  Biso   1.000  C
  C665     1.0000 0.10691  0.98172  0.21762  Biso   1.000  C
  C666     1.0000 0.78875  0.59183  0.52377  Biso   1.000  C
  C667     1.0000 0.49990  0.78974  0.62850  Biso   1.000  C
  C668     1.0000 0.89938  0.49425  0.31173  Biso   1.000  C
  C669     1.0000 0.21724  0.09437  0.00791  Biso   1.000  C
  C670     1.0000 0.97222  0.77109  0.91180  Biso   1.000  C
  C671     1.0000 0.39176  0.45141  0.21492  Biso   1.000  C
  C672     1.0000 0.71375  0.08686  0.51294  Biso   1.000  C
  C673     1.0000 0.20404  0.97484  0.81983  Biso   1.000  C
  C674     1.0000 0.81085  0.17957  0.00598  Biso   1.000  C
  C675     1.0000 0.00855  0.79599  0.20543  Biso   1.000  C
  C676     1.0000 0.70164  0.98671  0.70337  Biso   1.000  C
  C677     1.0000 0.30832  0.19427  0.52085  Biso   1.000  C
  C678     1.0000 0.49205  0.78624  0.32611  Biso   1.000  C
  C679     1.0000 0.30952  0.51310  0.81137  Biso   1.000  C
  C680     1.0000 0.69131  0.68134  0.03417  Biso   1.000  C
  C681     1.0000 0.50458  0.28729  0.19954  Biso   1.000  C
  C682     1.0000 0.81118  0.49697  0.71840  Biso   1.000  C
  C683     1.0000 0.19685  0.69137  0.50904  Biso   1.000  C
  C684     1.0000 0.99301  0.29572  0.31549  Biso   1.000  C
  C685     1.0000 0.80392  0.99630  0.20316  Biso   1.000  C
  C686     1.0000 0.19298  0.79667  0.99438  Biso   1.000  C
  C687     1.0000 0.01814  0.17291  0.81565  Biso   1.000  C
  C688     1.0000 0.30877  0.99004  0.31643  Biso   1.000  C
  C689     1.0000 0.69942  0.79441  0.52285  Biso   1.000  C
  C690     1.0000 0.50609  0.19656  0.70178  Biso   1.000  C
  C691     1.0000 0.69182  0.49377  0.21827  Biso   1.000  C
  C692     1.0000 0.31166  0.30208  0.99334  Biso   1.000  C
  C693     1.0000 0.49793  0.69903  0.83254  Biso   1.000  C
  C694     1.0000 0.19530  0.46541  0.31273  Biso   1.000  C
  C695     1.0000 0.80843  0.29099  0.51977  Biso   1.000  C
  C696     1.0000 0.98815  0.67594  0.70241  Biso   1.000  C
  C697     1.0000 0.69908  0.98360  0.31369  Biso   1.000  C
  C698     1.0000 0.30015  0.68487  0.00513  Biso   1.000  C
  C699     1.0000 0.01226  0.28451  0.70466  Biso   1.000  C
  C700     1.0000 0.20292  0.98165  0.20744  Biso   1.000  C
  C701     1.0000 0.80607  0.68400  0.52346  Biso   1.000  C
  C702     1.0000 0.49939  0.30896  0.80828  Biso   1.000  C
  C703     1.0000 0.80464  0.49485  0.32217  Biso   1.000  C
  C704     1.0000 0.20475  0.18863  0.00770  Biso   1.000  C
  C705     1.0000 0.49399  0.80653  0.72136  Biso   1.000  C
  C706     1.0000 0.29772  0.46095  0.20100  Biso   1.000  C
  C707     1.0000 0.70447  0.18001  0.51285  Biso   1.000  C
  C708     1.0000 0.97561  0.78357  0.81595  Biso   1.000  C
  C709     1.0000 0.31072  0.97866  0.71054  Biso   1.000  C
  C710     1.0000 0.70269  0.29215  0.99855  Biso   1.000  C
  C711     1.0000 0.00098  0.68382  0.31220  Biso   1.000  C
  C712     1.0000 0.80965  0.97821  0.81248  Biso   1.000  C
  C713     1.0000 0.19839  0.30395  0.51410  Biso   1.000  C
  C714     1.0000 0.47760  0.67310  0.22301  Biso   1.000  C
  C715     1.0000 0.19761  0.51314  0.70819  Biso   1.000  C
  C716     1.0000 0.80038  0.79323  0.03022  Biso   1.000  C
  C717     1.0000 0.50541  0.17919  0.31133  Biso   1.000  C
  C718     1.0000 0.70499  0.49910  0.82554  Biso   1.000  C
  C719     1.0000 0.30068  0.80513  0.51592  Biso   1.000  C
  C720     1.0000 0.00011  0.18607  0.20849  Biso   1.000  C
  C721     1.0000 0.47059  0.78778  0.30089  Biso   1.000  C
  C722     1.0000 0.31314  0.52933  0.78343  Biso   1.000  C
  C723     1.0000 0.78060  0.29541  0.53406  Biso   1.000  C
  C724     1.0000 0.02515  0.76976  0.20160  Biso   1.000  C
  C725     1.0000 0.78359  0.50990  0.71537  Biso   1.000  C
  C726     1.0000 0.28228  0.30791  0.98281  Biso   1.000  C
  C727     1.0000 0.98246  0.26605  0.32191  Biso   1.000  C
  C728     1.0000 0.22941  0.99222  0.82039  Biso   1.000  C
  C729     1.0000 0.72769  0.80023  0.53871  Biso   1.000  C
  C730     1.0000 0.48242  0.28706  0.22285  Biso   1.000  C
  C731     1.0000 0.72531  0.96646  0.70126  Biso   1.000  C
  C732     1.0000 0.22044  0.79957  0.97913  Biso   1.000  C
  C733     1.0000 0.48483  0.19605  0.72530  Biso   1.000  C
  C734     1.0000 0.68797  0.48570  0.24723  Biso   1.000  C
  C735     1.0000 0.18995  0.72103  0.50218  Biso   1.000  C
  C736     1.0000 0.03457  0.19892  0.81684  Biso   1.000  C
  C737     1.0000 0.22249  0.44860  0.31708  Biso   1.000  C
  C738     1.0000 0.71800  0.68009  0.05047  Biso   1.000  C
  C739     1.0000 0.00822  0.68039  0.72609  Biso   1.000  C
  C740     1.0000 0.78014  0.97651  0.19934  Biso   1.000  C
  C741     1.0000 0.27920  0.18948  0.50950  Biso   1.000  C
  C742     1.0000 0.47737  0.69642  0.80826  Biso   1.000  C
  C743     1.0000 0.28023  0.97657  0.32096  Biso   1.000  C
  C744     1.0000 0.81346  0.20414  0.02588  Biso   1.000  C
  C745     1.0000 0.01874  0.71026  0.31774  Biso   1.000  C
  C746     1.0000 0.28029  0.98706  0.70486  Biso   1.000  C
  C747     1.0000 0.72699  0.29411  0.01925  Biso   1.000  C
  C748     1.0000 0.49729  0.69698  0.21959  Biso   1.000  C
  C749     1.0000 0.78338  0.96122  0.81584  Biso   1.000  C
  C750     1.0000 0.22352  0.30620  0.53433  Biso   1.000  C
  C751     1.0000 0.51629  0.17270  0.28184  Biso   1.000  C
  C752     1.0000 0.22718  0.50043  0.70438  Biso   1.000  C
  C753     1.0000 0.77650  0.79056  0.00807  Biso   1.000  C
  C754     1.0000 0.01564  0.21278  0.20565  Biso   1.000  C
  C755     1.0000 0.69957  0.48689  0.79788  Biso   1.000  C
  C756     1.0000 0.30123  0.78253  0.53711  Biso   1.000  C
  C757     1.0000 0.00204  0.25560  0.69850  Biso   1.000  C
  C758     1.0000 0.69304  0.99482  0.28406  Biso   1.000  C
  C759     1.0000 0.27535  0.68623  0.02442  Biso   1.000  C
  C760     1.0000 0.52059  0.30830  0.78282  Biso   1.000  C
  C761     1.0000 0.22749  0.96225  0.20620  Biso   1.000  C
  C762     1.0000 0.80666  0.71027  0.50363  Biso   1.000  C
  C763     1.0000 0.47587  0.78133  0.72063  Biso   1.000  C
  C764     1.0000 0.77830  0.51198  0.32897  Biso   1.000  C
  C765     1.0000 0.23387  0.18669  0.02109  Biso   1.000  C
  C766     1.0000 0.96472  0.78861  0.78564  Biso   1.000  C
  C767     1.0000 0.30224  0.47382  0.22961  Biso   1.000  C
  C768     1.0000 0.70327  0.20859  0.49877  Biso   1.000  C
  C769     1.0000 0.51228  0.72666  0.83622  Biso   1.000  C
  C770     1.0000 0.81971  0.48530  0.74737  Biso   1.000  C
  C771     1.0000 0.69705  0.76552  0.51074  Biso   1.000  C
  C772     1.0000 0.96350  0.69780  0.70221  Biso   1.000  C
  C773     1.0000 0.28157  0.49816  0.81500  Biso   1.000  C
  C774     1.0000 0.18641  0.76966  0.00675  Biso   1.000  C
  C775     1.0000 0.99716  0.17112  0.79188  Biso   1.000  C
  C776     1.0000 0.69964  0.00250  0.73111  Biso   1.000  C
  C777     1.0000 0.81474  0.26233  0.50814  Biso   1.000  C
  C778     1.0000 0.52802  0.22111  0.70148  Biso   1.000  C
  C779     1.0000 0.20040  0.95394  0.79691  Biso   1.000  C
  C780     1.0000 0.31624  0.27328  0.00544  Biso   1.000  C
  C781     1.0000 0.52528  0.26190  0.19849  Biso   1.000  C
  C782     1.0000 0.19010  0.47639  0.28435  Biso   1.000  C
  C783     1.0000 0.31434  0.22485  0.52919  Biso   1.000  C
  C784     1.0000 0.00415  0.30124  0.28656  Biso   1.000  C
  C785     1.0000 0.72115  0.50723  0.21108  Biso   1.000  C
  C786     1.0000 0.78421  0.17765  0.98972  Biso   1.000  C
  C787     1.0000 0.99314  0.79799  0.23183  Biso   1.000  C
  C788     1.0000 0.31358  0.00384  0.28844  Biso   1.000  C
  C789     1.0000 0.22622  0.68747  0.52067  Biso   1.000  C
  C790     1.0000 0.51106  0.76246  0.32800  Biso   1.000  C
  C791     1.0000 0.80600  0.01163  0.23104  Biso   1.000  C
  C792     1.0000 0.68771  0.70734  0.01738  Biso   1.000  C
  C793     1.0000 0.49365  0.20793  0.31609  Biso   1.000  C
  C794     1.0000 0.27150  0.44385  0.19695  Biso   1.000  C
  C795     1.0000 0.19830  0.27786  0.49528  Biso   1.000  C
  C796     1.0000 0.98011  0.18071  0.23226  Biso   1.000  C
  C797     1.0000 0.80644  0.48311  0.29344  Biso   1.000  C
  C798     1.0000 0.70197  0.26574  0.98102  Biso   1.000  C
  C799     1.0000 0.98836  0.68275  0.28428  Biso   1.000  C
  C800     1.0000 0.19848  0.00139  0.23069  Biso   1.000  C
  C801     1.0000 0.27677  0.80502  0.49550  Biso   1.000  C
  C802     1.0000 0.46186  0.67178  0.25157  Biso   1.000  C
  C803     1.0000 0.72719  0.96966  0.31849  Biso   1.000  C
  C804     1.0000 0.79872  0.77307  0.05462  Biso   1.000  C
  C805     1.0000 0.51463  0.80951  0.74626  Biso   1.000  C
  C806     1.0000 0.73480  0.51021  0.83295  Biso   1.000  C
  C807     1.0000 0.78311  0.68281  0.54557  Biso   1.000  C
  C808     1.0000 0.98908  0.75473  0.82088  Biso   1.000  C
  C809     1.0000 0.19117  0.52873  0.73521  Biso   1.000  C
  C810     1.0000 0.29911  0.70623  0.98168  Biso   1.000  C
  C811     1.0000 0.02679  0.28819  0.73136  Biso   1.000  C
  C812     1.0000 0.81209  0.99424  0.78630  Biso   1.000  C
  C813     1.0000 0.73086  0.17320  0.52889  Biso   1.000  C
  C814     1.0000 0.48074  0.28331  0.81020  Biso   1.000  C
  C815     1.0000 0.31755  0.96499  0.73836  Biso   1.000  C
  C816     1.0000 0.19851  0.21414  0.98941  Biso   1.000  C
  C817     1.0000 0.03441  0.21903  0.79484  Biso   1.000  C
  C818     1.0000 0.75861  0.97456  0.22096  Biso   1.000  C
  C819     1.0000 0.24029  0.77757  0.97939  Biso   1.000  C
  C820     1.0000 0.48383  0.21785  0.74597  Biso   1.000  C
  C821     1.0000 0.25966  0.97823  0.29889  Biso   1.000  C
  C822     1.0000 0.75082  0.78046  0.53871  Biso   1.000  C
  C823     1.0000 0.47670  0.71997  0.78806  Biso   1.000  C
  C824     1.0000 0.71028  0.48741  0.26845  Biso   1.000  C
  C825     1.0000 0.26051  0.28637  0.98631  Biso   1.000  C
  C826     1.0000 0.00408  0.70154  0.74664  Biso   1.000  C
  C827     1.0000 0.24277  0.44726  0.29490  Biso   1.000  C
  C828     1.0000 0.76028  0.27283  0.53431  Biso   1.000  C
  C829     1.0000 0.02652  0.74948  0.22373  Biso   1.000  C
  C830     1.0000 0.24961  0.98764  0.79996  Biso   1.000  C
  C831     1.0000 0.79144  0.22516  0.02593  Biso   1.000  C
  C832     1.0000 0.47098  0.76569  0.28137  Biso   1.000  C
  C833     1.0000 0.74630  0.96462  0.72373  Biso   1.000  C
  C834     1.0000 0.25846  0.21118  0.51040  Biso   1.000  C
  C835     1.0000 0.48394  0.26669  0.24411  Biso   1.000  C
  C836     1.0000 0.29081  0.52987  0.76337  Biso   1.000  C
  C837     1.0000 0.73869  0.70103  0.04892  Biso   1.000  C
  C838     1.0000 0.98451  0.24488  0.30030  Biso   1.000  C
  C839     1.0000 0.76330  0.51119  0.73689  Biso   1.000  C
  C840     1.0000 0.20968  0.74284  0.50683  Biso   1.000  C
  C841     1.0000 0.22114  0.95186  0.77499  Biso   1.000  C
  C842     1.0000 0.76307  0.19953  0.98939  Biso   1.000  C
  C843     1.0000 0.99377  0.77723  0.25351  Biso   1.000  C
  C844     1.0000 0.71851  0.99772  0.75501  Biso   1.000  C
  C845     1.0000 0.29385  0.24691  0.52532  Biso   1.000  C
  C846     1.0000 0.50878  0.74047  0.30780  Biso   1.000  C
  C847     1.0000 0.26045  0.49874  0.79516  Biso   1.000  C
  C848     1.0000 0.70675  0.73136  0.01911  Biso   1.000  C
  C849     1.0000 0.52568  0.24295  0.22061  Biso   1.000  C
  C850     1.0000 0.79909  0.48650  0.76898  Biso   1.000  C
  C851     1.0000 0.24520  0.71045  0.52501  Biso   1.000  C
  C852     1.0000 0.00116  0.27944  0.26568  Biso   1.000  C
  C853     1.0000 0.78613  0.00828  0.25227  Biso   1.000  C
  C854     1.0000 0.20471  0.74606  0.00479  Biso   1.000  C
  C855     1.0000 0.99625  0.19267  0.77084  Biso   1.000  C
  C856     1.0000 0.29436  0.00049  0.26513  Biso   1.000  C
  C857     1.0000 0.71795  0.74581  0.51588  Biso   1.000  C
  C858     1.0000 0.52445  0.24184  0.72076  Biso   1.000  C
  C859     1.0000 0.74272  0.50963  0.23301  Biso   1.000  C
  C860     1.0000 0.29482  0.25347  0.00830  Biso   1.000  C
  C861     1.0000 0.51150  0.74765  0.81553  Biso   1.000  C
  C862     1.0000 0.21030  0.47095  0.26124  Biso   1.000  C
  C863     1.0000 0.79422  0.24005  0.50978  Biso   1.000  C
  C864     1.0000 0.95759  0.71670  0.72563  Biso   1.000  C
  C865     1.0000 0.72204  0.48905  0.77646  Biso   1.000  C
  C866     1.0000 0.78646  0.73183  0.50617  Biso   1.000  C
  C867     1.0000 0.47713  0.76164  0.74345  Biso   1.000  C
  C868     1.0000 0.24800  0.50184  0.72566  Biso   1.000  C
  C869     1.0000 0.25402  0.70772  0.02126  Biso   1.000  C
  C870     1.0000 0.96623  0.76814  0.76406  Biso   1.000  C
  C871     1.0000 0.76146  0.96225  0.79566  Biso   1.000  C
  C872     1.0000 0.72483  0.22830  0.50418  Biso   1.000  C
  C873     1.0000 0.00431  0.23450  0.72055  Biso   1.000  C
  C874     1.0000 0.25888  0.98051  0.72695  Biso   1.000  C
  C875     1.0000 0.25375  0.20919  0.01875  Biso   1.000  C
  C876     1.0000 0.52037  0.28709  0.76248  Biso   1.000  C
  C877     1.0000 0.28107  0.46923  0.25105  Biso   1.000  C
  C878     1.0000 0.24516  0.28526  0.53368  Biso   1.000  C
  C879     1.0000 0.51509  0.19451  0.26070  Biso   1.000  C
  C880     1.0000 0.75752  0.51581  0.30740  Biso   1.000  C
  C881     1.0000 0.74694  0.27243  0.02178  Biso   1.000  C
  C882     1.0000 0.01015  0.23444  0.22426  Biso   1.000  C
  C883     1.0000 0.24815  0.96547  0.22833  Biso   1.000  C
  C884     1.0000 0.28213  0.75999  0.53832  Biso   1.000  C
  C885     1.0000 0.02433  0.72998  0.29493  Biso   1.000  C
  C886     1.0000 0.71340  0.99344  0.26195  Biso   1.000  C
  C887     1.0000 0.75544  0.76968  0.01051  Biso   1.000  C
  C888     1.0000 0.50080  0.71839  0.24238  Biso   1.000  C
  C889     1.0000 0.74795  0.97091  0.29555  Biso   1.000  C
  C890     1.0000 0.27598  0.72462  0.97777  Biso   1.000  C
  C891     1.0000 0.02684  0.26559  0.75348  Biso   1.000  C
  C892     1.0000 0.22088  0.00336  0.25188  Biso   1.000  C
  C893     1.0000 0.76165  0.70483  0.54490  Biso   1.000  C
  C894     1.0000 0.48173  0.26184  0.78865  Biso   1.000  C
  C895     1.0000 0.78414  0.48559  0.27419  Biso   1.000  C
  C896     1.0000 0.21943  0.23659  0.98880  Biso   1.000  C
  C897     1.0000 0.51367  0.78964  0.76890  Biso   1.000  C
  C898     1.0000 0.25107  0.44163  0.21866  Biso   1.000  C
  C899     1.0000 0.75051  0.19589  0.53381  Biso   1.000  C
  C900     1.0000 0.98890  0.73436  0.79747  Biso   1.000  C
  C901     1.0000 0.29623  0.96109  0.75889  Biso   1.000  C
  C902     1.0000 0.72095  0.24302  0.98507  Biso   1.000  C
  C903     1.0000 0.99118  0.70527  0.26583  Biso   1.000  C
  C904     1.0000 0.79018  0.99489  0.76565  Biso   1.000  C
  C905     1.0000 0.22068  0.25853  0.49603  Biso   1.000  C
  C906     1.0000 0.46567  0.69350  0.27166  Biso   1.000  C
  C907     1.0000 0.21337  0.53011  0.75510  Biso   1.000  C
  C908     1.0000 0.77872  0.75015  0.05531  Biso   1.000  C
  C909     1.0000 0.49504  0.22870  0.29498  Biso   1.000  C
  C910     1.0000 0.75701  0.51018  0.81217  Biso   1.000  C
  C911     1.0000 0.25801  0.78103  0.49476  Biso   1.000  C
  C912     1.0000 0.97687  0.20271  0.25274  Biso   1.000  C
  C913     1.0000 0.77195  0.49920  0.76357  Biso   1.000  C
  C914     1.0000 0.74381  0.75318  0.52924  Biso   1.000  C
  C915     1.0000 0.49521  0.74339  0.79122  Biso   1.000  C
  C916     1.0000 0.26513  0.51457  0.76948  Biso   1.000  C
  C917     1.0000 0.23282  0.75128  0.99432  Biso   1.000  C
  C918     1.0000 0.97987  0.71932  0.74586  Biso   1.000  C
  C919     1.0000 0.74309  0.98024  0.74916  Biso   1.000  C
  C920     1.0000 0.76857  0.24585  0.52531  Biso   1.000  C
  C921     1.0000 0.01491  0.21667  0.77121  Biso   1.000  C
  C922     1.0000 0.24735  0.96742  0.77813  Biso   1.000  C
  C923     1.0000 0.26667  0.25857  0.99852  Biso   1.000  C
  C924     1.0000 0.50471  0.24009  0.74473  Biso   1.000  C
  C925     1.0000 0.23550  0.45549  0.26687  Biso   1.000  C
  C926     1.0000 0.26583  0.23999  0.51574  Biso   1.000  C
  C927     1.0000 0.50430  0.24448  0.24339  Biso   1.000  C
  C928     1.0000 0.73564  0.49999  0.26058  Biso   1.000  C
  C929     1.0000 0.76744  0.22346  0.00626  Biso   1.000  C
  C930     1.0000 0.99327  0.25071  0.27212  Biso   1.000  C
  C931     1.0000 0.26667  0.98851  0.27183  Biso   1.000  C
  C932     1.0000 0.23786  0.73824  0.51743  Biso   1.000  C
  C933     1.0000 0.01176  0.75340  0.24976  Biso   1.000  C
  C934     1.0000 0.76296  0.98874  0.24741  Biso   1.000  C
  C935     1.0000 0.73275  0.72749  0.03415  Biso   1.000  C
  C936     1.0000 0.48725  0.74112  0.28716  Biso   1.000  C
  C937     1.0000 0.74563  0.24703  0.00409  Biso   1.000  C
  C938     1.0000 0.01079  0.72784  0.26869  Biso   1.000  C
  C939     1.0000 0.26733  0.96684  0.75276  Biso   1.000  C
  C940     1.0000 0.24328  0.26295  0.51463  Biso   1.000  C
  C941     1.0000 0.48388  0.71710  0.26693  Biso   1.000  C
  C942     1.0000 0.76517  0.97801  0.77055  Biso   1.000  C
  C943     1.0000 0.75633  0.74917  0.03346  Biso   1.000  C
  C944     1.0000 0.50502  0.22320  0.26751  Biso   1.000  C
  C945     1.0000 0.24051  0.51632  0.74975  Biso   1.000  C
  C946     1.0000 0.25894  0.76011  0.51741  Biso   1.000  C
  C947     1.0000 0.99352  0.22848  0.24940  Biso   1.000  C
  C948     1.0000 0.74892  0.49934  0.78483  Biso   1.000  C
  C949     1.0000 0.25375  0.72653  0.99726  Biso   1.000  C
  C950     1.0000 0.01438  0.23924  0.74819  Biso   1.000  C
  C951     1.0000 0.74020  0.98363  0.26978  Biso   1.000  C
  C952     1.0000 0.76553  0.72963  0.52814  Biso   1.000  C
  C953     1.0000 0.49973  0.26357  0.76486  Biso   1.000  C
  C954     1.0000 0.24454  0.98552  0.25001  Biso   1.000  C
  C955     1.0000 0.24596  0.23419  0.00340  Biso   1.000  C
  C956     1.0000 0.49392  0.76629  0.76820  Biso   1.000  C
  C957     1.0000 0.75962  0.50210  0.28120  Biso   1.000  C
  C958     1.0000 0.74568  0.22393  0.52447  Biso   1.000  C
  C959     1.0000 0.97664  0.74015  0.77061  Biso   1.000  C
  C960     1.0000 0.25656  0.45359  0.24521  Biso   1.000  C
  Cu1      1.0000 0.00764  0.48038  0.66849  Biso   1.000  Cu
  Cu2      1.0000 0.65448  0.98859  0.50893  Biso   1.000  Cu
  Cu3      1.0000 0.49724  0.63916  0.02345  Biso   1.000  Cu
  Cu4      1.0000 0.50324  0.50008  0.86103  Biso   1.000  Cu
  Cu5      1.0000 0.16154  0.99182  0.01242  Biso   1.000  Cu
  Cu6      1.0000 0.00315  0.64025  0.50551  Biso   1.000  Cu
  Cu7      1.0000 0.50340  0.99834  0.66815  Biso   1.000  Cu
  Cu8      1.0000 0.84294  0.48877  0.51962  Biso   1.000  Cu
  Cu9      1.0000 0.00956  0.14201  0.01205  Biso   1.000  Cu
  Cu10     1.0000 0.00606  0.97859  0.85901  Biso   1.000  Cu
  Cu11     1.0000 0.34779  0.49720  0.00858  Biso   1.000  Cu
  Cu12     1.0000 0.50556  0.14432  0.51130  Biso   1.000  Cu
  Cu13     1.0000 0.00137  0.48946  0.36158  Biso   1.000  Cu
  Cu14     1.0000 0.34756  0.99712  0.51206  Biso   1.000  Cu
  Cu15     1.0000 0.50867  0.33544  0.00672  Biso   1.000  Cu
  Cu16     1.0000 0.49455  0.48327  0.17004  Biso   1.000  Cu
  Cu17     1.0000 0.84971  0.98677  0.00970  Biso   1.000  Cu
  Cu18     1.0000 0.00297  0.33922  0.51132  Biso   1.000  Cu
  Cu19     1.0000 0.50191  0.98456  0.36395  Biso   1.000  Cu
  Cu20     1.0000 0.15505  0.49452  0.50948  Biso   1.000  Cu
  Cu21     1.0000 0.99731  0.83747  0.00748  Biso   1.000  Cu
  Cu22     1.0000 0.00287  0.99164  0.16155  Biso   1.000  Cu
  Cu23     1.0000 0.65609  0.48710  0.02244  Biso   1.000  Cu
  Cu24     1.0000 0.50040  0.83522  0.52192  Biso   1.000  Cu
  Cu25     1.0000 0.21538  0.99079  0.01297  Biso   1.000  Cu
  Cu26     1.0000 0.00691  0.19470  0.01013  Biso   1.000  Cu
  Cu27     1.0000 0.00422  0.98943  0.21532  Biso   1.000  Cu
  Cu28     1.0000 0.70907  0.98687  0.51058  Biso   1.000  Cu
  Cu29     1.0000 0.50745  0.19677  0.50591  Biso   1.000  Cu
  Cu30     1.0000 0.50624  0.98381  0.30862  Biso   1.000  Cu
  Cu31     1.0000 0.29080  0.49334  0.00759  Biso   1.000  Cu
  Cu32     1.0000 0.49855  0.69280  0.03090  Biso   1.000  Cu
  Cu33     1.0000 0.49301  0.47949  0.22547  Biso   1.000  Cu
  Cu34     1.0000 0.78910  0.48862  0.52013  Biso   1.000  Cu
  Cu35     1.0000 0.99931  0.69456  0.50813  Biso   1.000  Cu
  Cu36     1.0000 0.99685  0.49091  0.30588  Biso   1.000  Cu
  Cu37     1.0000 0.79431  0.98669  0.00901  Biso   1.000  Cu
  Cu38     1.0000 0.00262  0.78363  0.00981  Biso   1.000  Cu
  Cu39     1.0000 0.00617  0.97621  0.80600  Biso   1.000  Cu
  Cu40     1.0000 0.29125  0.00011  0.51241  Biso   1.000  Cu
  Cu41     1.0000 0.49856  0.78091  0.52613  Biso   1.000  Cu
  Cu42     1.0000 0.50491  0.00051  0.72193  Biso   1.000  Cu
  Cu43     1.0000 0.70942  0.48730  0.02215  Biso   1.000  Cu
  Cu44     1.0000 0.50636  0.28465  0.00217  Biso   1.000  Cu
  Cu45     1.0000 0.50551  0.50393  0.80767  Biso   1.000  Cu
  Cu46     1.0000 0.20744  0.49594  0.50989  Biso   1.000  Cu
  Cu47     1.0000 0.00558  0.28520  0.51138  Biso   1.000  Cu
  Cu48     1.0000 0.00699  0.48117  0.72336  Biso   1.000  Cu
  H1       1.0000 0.28408  0.74383  0.55504  Biso   1.000  H
  H2       1.0000 0.53343  0.29008  0.74251  Biso   1.000  H
  H3       1.0000 0.73641  0.52610  0.31303  Biso   1.000  H
  H4       1.0000 0.73938  0.76938  0.99409  Biso   1.000  H
  H5       1.0000 0.99864  0.21311  0.71645  Biso   1.000  H
  H6       1.0000 0.28440  0.47812  0.27219  Biso   1.000  H
  H7       1.0000 0.26459  0.28797  0.54949  Biso   1.000  H
  H8       1.0000 0.96058  0.77514  0.74241  Biso   1.000  H
  H9       1.0000 0.70973  0.00221  0.24137  Biso   1.000  H
  H10      1.0000 0.76663  0.27749  0.03390  Biso   1.000  H
  H11      1.0000 0.46362  0.74371  0.74206  Biso   1.000  H
  H12      1.0000 0.26554  0.95090  0.22805  Biso   1.000  H
  H13      1.0000 0.72583  0.25013  0.49493  Biso   1.000  H
  H14      1.0000 0.51394  0.73637  0.23896  Biso   1.000  H
  H15      1.0000 0.26956  0.49406  0.72120  Biso   1.000  H
  H16      1.0000 0.27643  0.20524  0.02874  Biso   1.000  H
  H17      1.0000 0.03962  0.74667  0.29909  Biso   1.000  H
  H18      1.0000 0.71825  0.48163  0.75513  Biso   1.000  H
  H19      1.0000 0.78793  0.75118  0.49191  Biso   1.000  H
  H20      1.0000 0.02093  0.25591  0.22147  Biso   1.000  H
  H21      1.0000 0.23679  0.98801  0.72328  Biso   1.000  H
  H22      1.0000 0.23744  0.70836  0.03875  Biso   1.000  H
  H23      1.0000 0.52292  0.19041  0.23983  Biso   1.000  H
  H24      1.0000 0.74233  0.94945  0.79782  Biso   1.000  H
  H25      1.0000 0.27075  0.99921  0.80313  Biso   1.000  H
  H26      1.0000 0.79194  0.24197  0.04216  Biso   1.000  H
  H27      1.0000 0.04049  0.73053  0.22128  Biso   1.000  H
  H28      1.0000 0.76525  0.95089  0.72205  Biso   1.000  H
  H29      1.0000 0.23605  0.20532  0.50515  Biso   1.000  H
  H30      1.0000 0.45879  0.76479  0.26235  Biso   1.000  H
  H31      1.0000 0.29444  0.54261  0.74236  Biso   1.000  H
  H32      1.0000 0.76054  0.69480  0.05886  Biso   1.000  H
  H33      1.0000 0.46838  0.26673  0.26167  Biso   1.000  H
  H34      1.0000 0.74300  0.52423  0.73530  Biso   1.000  H
  H35      1.0000 0.20484  0.76539  0.50266  Biso   1.000  H
  H36      1.0000 0.98189  0.22300  0.30707  Biso   1.000  H
  H37      1.0000 0.73862  0.96177  0.21721  Biso   1.000  H
  H38      1.0000 0.26185  0.78161  0.97146  Biso   1.000  H
  H39      1.0000 0.04935  0.23653  0.79428  Biso   1.000  H
  H40      1.0000 0.23678  0.97003  0.30450  Biso   1.000  H
  H41      1.0000 0.77131  0.78382  0.54893  Biso   1.000  H
  H42      1.0000 0.46890  0.21405  0.76395  Biso   1.000  H
  H43      1.0000 0.70636  0.47721  0.29149  Biso   1.000  H
  H44      1.0000 0.23832  0.29184  0.97962  Biso   1.000  H
  H45      1.0000 0.45939  0.71967  0.77320  Biso   1.000  H
  H46      1.0000 0.26312  0.43666  0.29848  Biso   1.000  H
  H47      1.0000 0.73802  0.27717  0.54222  Biso   1.000  H
  H48      1.0000 0.02007  0.70307  0.76277  Biso   1.000  H
  H49      1.0000 0.20802  0.47908  0.23907  Biso   1.000  H
  H50      1.0000 0.29961  0.26841  0.53045  Biso   1.000  H
  H51      1.0000 0.54378  0.22782  0.22160  Biso   1.000  H
  H52      1.0000 0.76476  0.51744  0.23217  Biso   1.000  H
  H53      1.0000 0.74410  0.19651  0.97673  Biso   1.000  H
  H54      1.0000 0.00370  0.28691  0.24354  Biso   1.000  H
  H55      1.0000 0.29670  0.00985  0.24431  Biso   1.000  H
  H56      1.0000 0.26617  0.70540  0.53764  Biso   1.000  H
  H57      1.0000 0.98025  0.78024  0.27337  Biso   1.000  H
  H58      1.0000 0.78844  0.01935  0.27336  Biso   1.000  H
  H59      1.0000 0.70248  0.75040  0.00737  Biso   1.000  H
  H60      1.0000 0.52204  0.71966  0.31102  Biso   1.000  H
  H61      1.0000 0.80482  0.47691  0.79025  Biso   1.000  H
  H62      1.0000 0.71425  0.72505  0.50802  Biso   1.000  H
  H63      1.0000 0.52658  0.76659  0.81548  Biso   1.000  H
  H64      1.0000 0.24139  0.48413  0.79843  Biso   1.000  H
  H65      1.0000 0.19722  0.72361  0.01091  Biso   1.000  H
  H66      1.0000 0.93886  0.73120  0.72455  Biso   1.000  H
  H67      1.0000 0.71873  0.00969  0.77487  Biso   1.000  H
  H68      1.0000 0.80036  0.21955  0.49865  Biso   1.000  H
  H69      1.0000 0.98101  0.18957  0.75339  Biso   1.000  H
  H70      1.0000 0.21798  0.93723  0.75846  Biso   1.000  H
  H71      1.0000 0.30095  0.23189  0.01919  Biso   1.000  H
  H72      1.0000 0.53646  0.26174  0.71819  Biso   1.000  H
  H73      1.0000 0.77905  0.51826  0.81426  Biso   1.000  H
  H74      1.0000 0.74361  0.70473  0.56108  Biso   1.000  H
  H75      1.0000 0.52727  0.79507  0.78830  Biso   1.000  H
  H76      1.0000 0.21009  0.54156  0.77582  Biso   1.000  H
  H77      1.0000 0.27658  0.74051  0.96003  Biso   1.000  H
  H78      1.0000 0.99734  0.71370  0.80333  Biso   1.000  H
  H79      1.0000 0.79154  0.00912  0.74568  Biso   1.000  H
  H80      1.0000 0.77117  0.18923  0.54455  Biso   1.000  H
  H81      1.0000 0.03533  0.26992  0.77503  Biso   1.000  H
  H82      1.0000 0.30114  0.95073  0.77984  Biso   1.000  H
  H83      1.0000 0.21224  0.25567  0.97841  Biso   1.000  H
  H84      1.0000 0.46708  0.24368  0.79090  Biso   1.000  H
  H85      1.0000 0.23057  0.42944  0.21517  Biso   1.000  H
  H86      1.0000 0.22070  0.24094  0.48198  Biso   1.000  H
  H87      1.0000 0.48598  0.24932  0.29858  Biso   1.000  H
  H88      1.0000 0.78549  0.47498  0.25336  Biso   1.000  H
  H89      1.0000 0.71726  0.22648  0.96801  Biso   1.000  H
  H90      1.0000 0.96200  0.19987  0.27196  Biso   1.000  H
  H91      1.0000 0.21692  0.01718  0.27054  Biso   1.000  H
  H92      1.0000 0.24250  0.78156  0.47708  Biso   1.000  H
  H93      1.0000 0.97700  0.70604  0.24762  Biso   1.000  H
  H94      1.0000 0.77154  0.96277  0.29852  Biso   1.000  H
  H95      1.0000 0.78108  0.73456  0.07331  Biso   1.000  H
  H96      1.0000 0.45449  0.69062  0.29203  Biso   1.000  H
  H97      1.0000 0.87081  0.97387  0.91679  Biso   1.000  H
  H98      1.0000 0.90687  0.85329  0.01697  Biso   1.000  H
  H99      1.0000 0.99334  0.88215  0.88276  Biso   1.000  H
  H100     1.0000 0.36599  0.99648  0.60166  Biso   1.000  H
  H101     1.0000 0.41086  0.85918  0.51214  Biso   1.000  H
  H102     1.0000 0.50994  0.90657  0.65532  Biso   1.000  H
  H103     1.0000 0.63736  0.49692  0.92677  Biso   1.000  H
  H104     1.0000 0.59778  0.35580  0.99999  Biso   1.000  H
  H105     1.0000 0.50370  0.41005  0.87496  Biso   1.000  H
  H106     1.0000 0.13653  0.49160  0.60271  Biso   1.000  H
  H107     1.0000 0.09218  0.36514  0.51492  Biso   1.000  H
  H108     1.0000 0.99847  0.39006  0.64680  Biso   1.000  H
  H109     1.0000 0.14240  0.99442  0.09863  Biso   1.000  H
  H110     1.0000 0.09753  0.12792  0.02101  Biso   1.000  H
  H111     1.0000 0.01858  0.08160  0.14468  Biso   1.000  H
  H112     1.0000 0.64150  0.97745  0.42114  Biso   1.000  H
  H113     1.0000 0.59687  0.12124  0.50608  Biso   1.000  H
  H114     1.0000 0.51782  0.07609  0.37730  Biso   1.000  H
  H115     1.0000 0.36348  0.47683  0.09928  Biso   1.000  H
  H116     1.0000 0.40501  0.62585  0.02858  Biso   1.000  H
  H117     1.0000 0.47180  0.57285  0.15467  Biso   1.000  H
  H118     1.0000 0.86798  0.49001  0.42714  Biso   1.000  H
  H119     1.0000 0.90998  0.61556  0.51045  Biso   1.000  H
  H120     1.0000 0.99218  0.58250  0.38260  Biso   1.000  H
  H121     1.0000 0.09291  0.97999  0.88064  Biso   1.000  H
  H122     1.0000 0.87295  0.07509  0.99363  Biso   1.000  H
  H123     1.0000 0.00586  0.86179  0.10170  Biso   1.000  H
  H124     1.0000 0.59628  0.99832  0.64578  Biso   1.000  H
  H125     1.0000 0.36971  0.08759  0.51638  Biso   1.000  H
  H126     1.0000 0.50153  0.85347  0.42781  Biso   1.000  H
  H127     1.0000 0.40933  0.50443  0.87993  Biso   1.000  H
  H128     1.0000 0.63234  0.57703  0.02656  Biso   1.000  H
  H129     1.0000 0.49647  0.35398  0.09844  Biso   1.000  H
  H130     1.0000 0.91012  0.48403  0.64693  Biso   1.000  H
  H131     1.0000 0.13739  0.58424  0.49973  Biso   1.000  H
  H132     1.0000 0.99436  0.35785  0.41901  Biso   1.000  H
  H133     1.0000 0.90779  0.99682  0.13933  Biso   1.000  H
  H134     1.0000 0.13525  0.90306  0.00947  Biso   1.000  H
  H135     1.0000 0.00918  0.11670  0.92385  Biso   1.000  H
  H136     1.0000 0.41316  0.99599  0.38023  Biso   1.000  H
  H137     1.0000 0.63424  0.89628  0.51891  Biso   1.000  H
  H138     1.0000 0.51658  0.12740  0.60101  Biso   1.000  H
  H139     1.0000 0.58866  0.49385  0.15277  Biso   1.000  H
  H140     1.0000 0.37179  0.40784  0.99165  Biso   1.000  H
  H141     1.0000 0.49973  0.63062  0.93191  Biso   1.000  H
  H142     1.0000 0.09426  0.49154  0.37431  Biso   1.000  H
  H143     1.0000 0.86871  0.39750  0.51332  Biso   1.000  H
  H144     1.0000 0.00632  0.61457  0.60120  Biso   1.000  H
  H145     1.0000 0.59649  0.49615  0.88482  Biso   1.000  H
  H146     1.0000 0.86327  0.57466  0.51097  Biso   1.000  H
  H147     1.0000 0.50260  0.86369  0.61408  Biso   1.000  H
  H148     1.0000 0.09756  0.47916  0.64560  Biso   1.000  H
  H149     1.0000 0.36496  0.58330  0.02898  Biso   1.000  H
  H150     1.0000 0.98479  0.84471  0.91841  Biso   1.000  H
  H151     1.0000 0.91259  0.98203  0.88050  Biso   1.000  H
  H152     1.0000 0.63720  0.07806  0.50338  Biso   1.000  H
  H153     1.0000 0.00197  0.35478  0.60528  Biso   1.000  H
  H154     1.0000 0.41109  0.00792  0.64594  Biso   1.000  H
  H155     1.0000 0.14232  0.08292  0.01679  Biso   1.000  H
  H156     1.0000 0.50661  0.36350  0.91647  Biso   1.000  H
  H157     1.0000 0.40708  0.46583  0.14274  Biso   1.000  H
  H158     1.0000 0.13339  0.40281  0.52136  Biso   1.000  H
  H159     1.0000 0.51289  0.11645  0.41551  Biso   1.000  H
  H160     1.0000 0.90722  0.48563  0.38552  Biso   1.000  H
  H161     1.0000 0.63924  0.39511  0.00025  Biso   1.000  H
  H162     1.0000 0.02048  0.12452  0.10387  Biso   1.000  H
  H163     1.0000 0.10054  0.99170  0.14271  Biso   1.000  H
  H164     1.0000 0.36801  0.90533  0.50037  Biso   1.000  H
  H165     1.0000 0.99438  0.62711  0.42180  Biso   1.000  H
  H166     1.0000 0.59335  0.97568  0.38012  Biso   1.000  H
  H167     1.0000 0.86659  0.89221  0.01398  Biso   1.000  H
  H168     1.0000 0.47536  0.61522  0.11511  Biso   1.000  H
  H169     1.0000 0.01339  0.06790  0.88128  Biso   1.000  H
  H170     1.0000 0.86806  0.98732  0.10033  Biso   1.000  H
  H171     1.0000 0.09421  0.86619  0.99378  Biso   1.000  H
  H172     1.0000 0.50326  0.08722  0.64333  Biso   1.000  H
  H173     1.0000 0.36736  0.00029  0.42639  Biso   1.000  H
  H174     1.0000 0.59236  0.85632  0.51876  Biso   1.000  H
  H175     1.0000 0.51065  0.59258  0.89110  Biso   1.000  H
  H176     1.0000 0.63137  0.49520  0.11471  Biso   1.000  H
  H177     1.0000 0.41685  0.36112  0.99406  Biso   1.000  H
  H178     1.0000 0.00959  0.57142  0.64331  Biso   1.000  H
  H179     1.0000 0.13391  0.48765  0.41636  Biso   1.000  H
  H180     1.0000 0.91143  0.35850  0.52518  Biso   1.000  H
  H181     1.0000 0.99809  0.90114  0.14200  Biso   1.000  H
  H182     1.0000 0.14025  0.96962  0.92311  Biso   1.000  H
  H183     1.0000 0.91893  0.11917  0.00142  Biso   1.000  H
  H184     1.0000 0.50065  0.89450  0.38332  Biso   1.000  H
  H185     1.0000 0.63506  0.99295  0.60255  Biso   1.000  H
  H186     1.0000 0.40966  0.12829  0.51410  Biso   1.000  H
  H187     1.0000 0.50351  0.39725  0.14641  Biso   1.000  H
  H188     1.0000 0.36844  0.50951  0.91833  Biso   1.000  H
  H189     1.0000 0.58656  0.62099  0.02225  Biso   1.000  H
  H190     1.0000 0.99447  0.40172  0.37570  Biso   1.000  H
  H191     1.0000 0.86488  0.48596  0.60780  Biso   1.000  H
  H192     1.0000 0.09689  0.62278  0.50826  Biso   1.000  H
  H193     1.0000 0.26835  0.85689  0.50562  Biso   1.000  H
  H194     1.0000 0.50046  0.27421  0.85706  Biso   1.000  H
  H195     1.0000 0.85895  0.50208  0.28911  Biso   1.000  H
  H196     1.0000 0.77049  0.84439  0.02756  Biso   1.000  H
  H197     1.0000 0.02090  0.25390  0.64916  Biso   1.000  H
  H198     1.0000 0.34871  0.44357  0.23284  Biso   1.000  H
  H199     1.0000 0.23180  0.35219  0.52074  Biso   1.000  H
  H200     1.0000 0.96736  0.75061  0.86947  Biso   1.000  H
  H201     1.0000 0.64590  0.96979  0.28201  Biso   1.000  H
  H202     1.0000 0.73761  0.34567  0.99831  Biso   1.000  H
  H203     1.0000 0.48870  0.76848  0.66977  Biso   1.000  H
  H204     1.0000 0.15127  0.97937  0.23976  Biso   1.000  H
  H205     1.0000 0.73742  0.12831  0.50807  Biso   1.000  H
  H206     1.0000 0.47741  0.70808  0.16863  Biso   1.000  H
  H207     1.0000 0.15163  0.49613  0.74085  Biso   1.000  H
  H208     1.0000 0.24048  0.13659  0.00592  Biso   1.000  H
  H209     1.0000 0.00039  0.71980  0.36378  Biso   1.000  H
  H210     1.0000 0.65539  0.50940  0.79109  Biso   1.000  H
  H211     1.0000 0.77102  0.63581  0.52479  Biso   1.000  H
  H212     1.0000 0.99733  0.21891  0.15346  Biso   1.000  H
  H213     1.0000 0.35941  0.99748  0.74171  Biso   1.000  H
  H214     1.0000 0.26767  0.63438  0.01301  Biso   1.000  H
  H215     1.0000 0.51626  0.21174  0.36372  Biso   1.000  H
  H216     1.0000 0.86434  0.97992  0.78012  Biso   1.000  H
  H217     1.0000 0.23096  0.47141  0.36505  Biso   1.000  H
  H218     1.0000 0.35966  0.22525  0.50007  Biso   1.000  H
  H219     1.0000 0.50702  0.33494  0.23696  Biso   1.000  H
  H220     1.0000 0.72712  0.48759  0.16696  Biso   1.000  H
  H221     1.0000 0.86557  0.21553  0.00497  Biso   1.000  H
  H222     1.0000 0.98533  0.34864  0.28157  Biso   1.000  H
  H223     1.0000 0.27352  0.99683  0.37134  Biso   1.000  H
  H224     1.0000 0.13948  0.72056  0.53066  Biso   1.000  H
  H225     1.0000 0.00723  0.84810  0.23914  Biso   1.000  H
  H226     1.0000 0.77301  0.00557  0.15648  Biso   1.000  H
  H227     1.0000 0.64127  0.71407  0.03927  Biso   1.000  H
  H228     1.0000 0.49163  0.83889  0.28982  Biso   1.000  H
  H229     1.0000 0.77247  0.49199  0.66714  Biso   1.000  H
  H230     1.0000 0.64783  0.76175  0.52614  Biso   1.000  H
  H231     1.0000 0.50469  0.64862  0.79611  Biso   1.000  H
  H232     1.0000 0.27521  0.52542  0.85959  Biso   1.000  H
  H233     1.0000 0.14072  0.76810  0.98162  Biso   1.000  H
  H234     1.0000 0.99212  0.62506  0.74061  Biso   1.000  H
  H235     1.0000 0.73304  0.98042  0.65004  Biso   1.000  H
  H236     1.0000 0.86306  0.26019  0.53172  Biso   1.000  H
  H237     1.0000 0.02565  0.12320  0.78570  Biso   1.000  H
  H238     1.0000 0.23499  0.97261  0.87143  Biso   1.000  H
  H239     1.0000 0.36664  0.26493  0.98441  Biso   1.000  H
  H240     1.0000 0.49696  0.14401  0.74028  Biso   1.000  H
  H241     1.0000 0.73546  0.48628  0.87809  Biso   1.000  H
  H242     1.0000 0.86396  0.71744  0.51534  Biso   1.000  H
  H243     1.0000 0.48728  0.85913  0.75232  Biso   1.000  H
  H244     1.0000 0.23038  0.52244  0.65428  Biso   1.000  H
  H245     1.0000 0.35422  0.72053  0.00160  Biso   1.000  H
  H246     1.0000 0.98821  0.83691  0.78295  Biso   1.000  H
  H247     1.0000 0.77457  0.98159  0.86415  Biso   1.000  H
  H248     1.0000 0.65111  0.21685  0.51706  Biso   1.000  H
  H249     1.0000 0.00724  0.33749  0.74409  Biso   1.000  H
  H250     1.0000 0.28060  0.96519  0.66028  Biso   1.000  H
  H251     1.0000 0.14985  0.22369  0.01204  Biso   1.000  H
  H252     1.0000 0.49263  0.36503  0.77614  Biso   1.000  H
  H253     1.0000 0.26345  0.47447  0.15097  Biso   1.000  H
  H254     1.0000 0.14887  0.26863  0.50708  Biso   1.000  H
  H255     1.0000 0.49618  0.12610  0.28086  Biso   1.000  H
  H256     1.0000 0.77163  0.48898  0.37331  Biso   1.000  H
  H257     1.0000 0.65303  0.26126  0.99798  Biso   1.000  H
  H258     1.0000 0.00562  0.13425  0.24094  Biso   1.000  H
  H259     1.0000 0.23710  0.97957  0.15181  Biso   1.000  H
  H260     1.0000 0.35073  0.76810  0.51992  Biso   1.000  H
  H261     1.0000 0.99813  0.62685  0.28066  Biso   1.000  H
  H262     1.0000 0.73121  0.99540  0.36239  Biso   1.000  H
  H263     1.0000 0.85762  0.75819  0.04199  Biso   1.000  H
  H264     1.0000 0.47209  0.61631  0.25551  Biso   1.000  H
  H265     1.0000 0.01907  0.21130  0.86717  Biso   1.000  H
  H266     1.0000 0.85754  0.99633  0.23857  Biso   1.000  H
  H267     1.0000 0.23112  0.84548  0.00559  Biso   1.000  H
  H268     1.0000 0.51231  0.22640  0.65167  Biso   1.000  H
  H269     1.0000 0.35948  0.97566  0.28696  Biso   1.000  H
  H270     1.0000 0.73366  0.84251  0.52121  Biso   1.000  H
  H271     1.0000 0.49623  0.72846  0.88962  Biso   1.000  H
  H272     1.0000 0.63713  0.49677  0.25205  Biso   1.000  H
  H273     1.0000 0.27755  0.35482  0.00801  Biso   1.000  H
  H274     1.0000 0.98172  0.70512  0.65291  Biso   1.000  H
  H275     1.0000 0.13818  0.45843  0.28118  Biso   1.000  H
  H276     1.0000 0.77269  0.34167  0.51379  Biso   1.000  H
  H277     1.0000 0.00671  0.76034  0.15110  Biso   1.000  H
  H278     1.0000 0.14981  0.98398  0.78303  Biso   1.000  H
  H279     1.0000 0.77774  0.12974  0.00757  Biso   1.000  H
  H280     1.0000 0.48277  0.75581  0.37967  Biso   1.000  H
  H281     1.0000 0.65131  0.99277  0.74103  Biso   1.000  H
  H282     1.0000 0.27755  0.14653  0.54357  Biso   1.000  H
  H283     1.0000 0.50611  0.25452  0.14846  Biso   1.000  H
  H284     1.0000 0.36537  0.50717  0.77853  Biso   1.000  H
  H285     1.0000 0.72689  0.63264  0.03330  Biso   1.000  H
  H286     1.0000 0.00057  0.26081  0.36791  Biso   1.000  H
  H287     1.0000 0.86440  0.50810  0.74487  Biso   1.000  H
  H288     1.0000 0.22683  0.64293  0.48811  Biso   1.000  H
  H289     1.0000 0.09795  0.22370  0.01165  Biso   1.000  H
  H290     1.0000 0.00898  0.08337  0.24378  Biso   1.000  H
  H291     1.0000 0.23702  0.97854  0.10031  Biso   1.000  H
  H292     1.0000 0.59653  0.21716  0.50773  Biso   1.000  H
  H293     1.0000 0.50348  0.07132  0.28240  Biso   1.000  H
  H294     1.0000 0.73472  0.99805  0.41693  Biso   1.000  H
  H295     1.0000 0.40950  0.71732  0.00617  Biso   1.000  H
  H296     1.0000 0.47087  0.56302  0.24860  Biso   1.000  H
  H297     1.0000 0.26728  0.48228  0.09634  Biso   1.000  H
  H298     1.0000 0.91550  0.70998  0.50380  Biso   1.000  H
  H299     1.0000 0.99550  0.57561  0.28667  Biso   1.000  H
  H300     1.0000 0.76855  0.49252  0.43033  Biso   1.000  H
  H301     1.0000 0.91171  0.76022  0.03637  Biso   1.000  H
  H302     1.0000 0.99697  0.89264  0.78892  Biso   1.000  H
  H303     1.0000 0.77361  0.97763  0.91620  Biso   1.000  H
  H304     1.0000 0.40769  0.76694  0.53021  Biso   1.000  H
  H305     1.0000 0.49235  0.91589  0.74741  Biso   1.000  H
  H306     1.0000 0.27420  0.97038  0.60413  Biso   1.000  H
  H307     1.0000 0.59852  0.25839  0.99840  Biso   1.000  H
  H308     1.0000 0.48916  0.41580  0.77954  Biso   1.000  H
  H309     1.0000 0.73107  0.48532  0.93529  Biso   1.000  H
  H310     1.0000 0.09426  0.26926  0.49870  Biso   1.000  H
  H311     1.0000 0.99880  0.38945  0.74362  Biso   1.000  H
  H312     1.0000 0.22754  0.52411  0.60070  Biso   1.000  H
  H313     1.0000 0.23442  0.97599  0.92452  Biso   1.000  H
  H314     1.0000 0.91574  0.21309  0.00819  Biso   1.000  H
  H315     1.0000 0.00346  0.90183  0.23606  Biso   1.000  H
  H316     1.0000 0.73239  0.98855  0.59671  Biso   1.000  H
  H317     1.0000 0.41413  0.22581  0.49384  Biso   1.000  H
  H318     1.0000 0.49135  0.89115  0.28832  Biso   1.000  H
  H319     1.0000 0.27209  0.51761  0.91777  Biso   1.000  H
  H320     1.0000 0.58765  0.71446  0.03464  Biso   1.000  H
  H321     1.0000 0.50054  0.38865  0.24190  Biso   1.000  H
  H322     1.0000 0.76999  0.48131  0.61206  Biso   1.000  H
  H323     1.0000 0.08330  0.71662  0.52687  Biso   1.000  H
  H324     1.0000 0.99064  0.40194  0.28354  Biso   1.000  H
  H325     1.0000 0.77247  0.99734  0.10033  Biso   1.000  H
  H326     1.0000 0.08739  0.77418  0.98049  Biso   1.000  H
  H327     1.0000 0.02710  0.06832  0.78481  Biso   1.000  H
  H328     1.0000 0.27224  0.00760  0.42271  Biso   1.000  H
  H329     1.0000 0.59303  0.76110  0.52331  Biso   1.000  H
  H330     1.0000 0.49346  0.09094  0.73902  Biso   1.000  H
  H331     1.0000 0.72850  0.48615  0.11364  Biso   1.000  H
  H332     1.0000 0.42095  0.26874  0.98830  Biso   1.000  H
  H333     1.0000 0.50782  0.59671  0.79318  Biso   1.000  H
  H334     1.0000 0.22806  0.48340  0.41961  Biso   1.000  H
  H335     1.0000 0.91716  0.26451  0.53523  Biso   1.000  H
  H336     1.0000 0.99955  0.57376  0.73781  Biso   1.000  H
  H337     1.0000 0.01690  0.21041  0.92022  Biso   1.000  H
  H338     1.0000 0.91095  0.99459  0.23789  Biso   1.000  H
  H339     1.0000 0.23086  0.89965  0.01455  Biso   1.000  H
  H340     1.0000 0.51286  0.22424  0.59693  Biso   1.000  H
  H341     1.0000 0.41433  0.97745  0.28672  Biso   1.000  H
  H342     1.0000 0.73214  0.89899  0.52245  Biso   1.000  H
  H343     1.0000 0.50028  0.72414  0.94352  Biso   1.000  H
  H344     1.0000 0.58159  0.49979  0.24854  Biso   1.000  H
  H345     1.0000 0.27782  0.40597  0.99820  Biso   1.000  H
  H346     1.0000 0.98656  0.70725  0.59744  Biso   1.000  H
  H347     1.0000 0.08822  0.46258  0.28283  Biso   1.000  H
  H348     1.0000 0.77238  0.39247  0.51138  Biso   1.000  H
  H349     1.0000 0.00696  0.76495  0.09954  Biso   1.000  H
  H350     1.0000 0.09843  0.97502  0.78438  Biso   1.000  H
  H351     1.0000 0.77915  0.07249  0.00424  Biso   1.000  H
  H352     1.0000 0.48686  0.75814  0.43294  Biso   1.000  H
  H353     1.0000 0.59710  0.99547  0.74191  Biso   1.000  H
  H354     1.0000 0.27542  0.09216  0.54002  Biso   1.000  H
  H355     1.0000 0.50349  0.25904  0.09315  Biso   1.000  H
  H356     1.0000 0.41845  0.50707  0.78207  Biso   1.000  H
  H357     1.0000 0.72982  0.57503  0.03204  Biso   1.000  H
  H358     1.0000 0.00100  0.26312  0.42271  Biso   1.000  H
  H359     1.0000 0.91805  0.50740  0.73987  Biso   1.000  H
  H360     1.0000 0.23197  0.58783  0.48387  Biso   1.000  H
  H361     1.0000 0.98908  0.72435  0.41536  Biso   1.000  H
  H362     1.0000 0.41297  0.99753  0.73951  Biso   1.000  H
  H363     1.0000 0.73571  0.39935  0.00004  Biso   1.000  H
  H364     1.0000 0.48193  0.70959  0.11766  Biso   1.000  H
  H365     1.0000 0.91871  0.97889  0.78087  Biso   1.000  H
  H366     1.0000 0.23171  0.40668  0.52209  Biso   1.000  H
  H367     1.0000 0.52111  0.21052  0.41640  Biso   1.000  H
  H368     1.0000 0.09741  0.47966  0.73997  Biso   1.000  H
  H369     1.0000 0.77172  0.89891  0.02013  Biso   1.000  H
  H370     1.0000 0.99988  0.21832  0.09864  Biso   1.000  H
  H371     1.0000 0.59775  0.50653  0.78782  Biso   1.000  H
  H372     1.0000 0.26994  0.90993  0.49911  Biso   1.000  H
  H373     1.0000 0.01897  0.26095  0.59719  Biso   1.000  H
  H374     1.0000 0.59474  0.96225  0.28576  Biso   1.000  H
  H375     1.0000 0.26686  0.58280  0.02159  Biso   1.000  H
  H376     1.0000 0.50945  0.26868  0.90998  Biso   1.000  H
  H377     1.0000 0.09500  0.98013  0.23728  Biso   1.000  H
  H378     1.0000 0.76834  0.58115  0.52514  Biso   1.000  H
  H379     1.0000 0.49878  0.76882  0.61775  Biso   1.000  H
  H380     1.0000 0.91238  0.49497  0.29233  Biso   1.000  H
  H381     1.0000 0.23791  0.08286  0.00910  Biso   1.000  H
  H382     1.0000 0.96720  0.75190  0.92517  Biso   1.000  H
  H383     1.0000 0.40235  0.44653  0.23526  Biso   1.000  H
  H384     1.0000 0.73337  0.07372  0.51076  Biso   1.000  H
  H385     1.0000 0.22648  0.43906  0.33863  Biso   1.000  H
  H386     1.0000 0.27200  0.16858  0.50105  Biso   1.000  H
  H387     1.0000 0.46485  0.30368  0.22361  Biso   1.000  H
  H388     1.0000 0.66934  0.47433  0.25434  Biso   1.000  H
  H389     1.0000 0.83220  0.20449  0.03999  Biso   1.000  H
  H390     1.0000 0.97301  0.25980  0.34234  Biso   1.000  H
  H391     1.0000 0.27388  0.96829  0.34222  Biso   1.000  H
  H392     1.0000 0.16969  0.72834  0.49294  Biso   1.000  H
  H393     1.0000 0.03695  0.76349  0.18227  Biso   1.000  H
  H394     1.0000 0.77827  0.96233  0.18040  Biso   1.000  H
  H395     1.0000 0.72381  0.66135  0.06239  Biso   1.000  H
  H396     1.0000 0.45564  0.80620  0.29834  Biso   1.000  H
  H397     1.0000 0.77920  0.52041  0.69530  Biso   1.000  H
  H398     1.0000 0.72909  0.81875  0.55196  Biso   1.000  H
  H399     1.0000 0.46388  0.67600  0.80860  Biso   1.000  H
  H400     1.0000 0.33194  0.54132  0.77956  Biso   1.000  H
  H401     1.0000 0.22750  0.81979  0.97013  Biso   1.000  H
  H402     1.0000 0.02515  0.66463  0.73020  Biso   1.000  H
  H403     1.0000 0.72688  0.95139  0.68347  Biso   1.000  H
  H404     1.0000 0.77497  0.31526  0.54668  Biso   1.000  H
  H405     1.0000 0.04904  0.20027  0.83439  Biso   1.000  H
  H406     1.0000 0.23085  0.01163  0.83505  Biso   1.000  H
  H407     1.0000 0.27704  0.32869  0.97318  Biso   1.000  H
  H408     1.0000 0.47106  0.17768  0.72680  Biso   1.000  H
  H409     1.0000 0.26684  0.43460  0.17642  Biso   1.000  H
  H410     1.0000 0.18022  0.27607  0.47865  Biso   1.000  H
  H411     1.0000 0.48457  0.21618  0.33644  Biso   1.000  H
  H412     1.0000 0.82349  0.46880  0.28801  Biso   1.000  H
  H413     1.0000 0.68729  0.26445  0.96238  Biso   1.000  H
  H414     1.0000 0.96836  0.15974  0.23308  Biso   1.000  H
  H415     1.0000 0.18041  0.01498  0.23268  Biso   1.000  H
  H416     1.0000 0.27285  0.82382  0.48086  Biso   1.000  H
  H417     1.0000 0.97329  0.66585  0.27840  Biso   1.000  H
  H418     1.0000 0.73176  0.96225  0.34004  Biso   1.000  H
  H419     1.0000 0.81436  0.77493  0.07258  Biso   1.000  H
  H420     1.0000 0.44543  0.65549  0.25400  Biso   1.000  H
  H421     1.0000 0.74004  0.51809  0.85444  Biso   1.000  H
  H422     1.0000 0.77933  0.66441  0.56196  Biso   1.000  H
  H423     1.0000 0.52739  0.82792  0.74731  Biso   1.000  H
  H424     1.0000 0.17192  0.54094  0.73769  Biso   1.000  H
  H425     1.0000 0.31646  0.70704  0.96656  Biso   1.000  H
  H426     1.0000 0.99834  0.74845  0.84192  Biso   1.000  H
  H427     1.0000 0.83150  0.00612  0.78027  Biso   1.000  H
  H428     1.0000 0.73723  0.15211  0.53751  Biso   1.000  H
  H429     1.0000 0.04014  0.30682  0.73533  Biso   1.000  H
  H430     1.0000 0.33924  0.95992  0.74153  Biso   1.000  H
  H431     1.0000 0.17803  0.21880  0.97845  Biso   1.000  H
  H432     1.0000 0.46529  0.28214  0.82653  Biso   1.000  H
  H433     1.0000 0.27159  0.99919  0.68683  Biso   1.000  H
  H434     1.0000 0.72912  0.31259  0.03549  Biso   1.000  H
  H435     1.0000 0.03077  0.71377  0.33872  Biso   1.000  H
  H436     1.0000 0.78140  0.94531  0.83372  Biso   1.000  H
  H437     1.0000 0.22230  0.32380  0.54961  Biso   1.000  H
  H438     1.0000 0.50888  0.70043  0.19985  Biso   1.000  H
  H439     1.0000 0.23240  0.48903  0.68386  Biso   1.000  H
  H440     1.0000 0.77522  0.80440  0.98921  Biso   1.000  H
  H441     1.0000 0.52483  0.15190  0.27416  Biso   1.000  H
  H442     1.0000 0.68138  0.47354  0.79078  Biso   1.000  H
  H443     1.0000 0.31704  0.78284  0.55381  Biso   1.000  H
  H444     1.0000 0.03204  0.21731  0.18838  Biso   1.000  H
  H445     1.0000 0.67087  0.00346  0.27789  Biso   1.000  H
  H446     1.0000 0.27610  0.66949  0.04183  Biso   1.000  H
  H447     1.0000 0.99122  0.25140  0.67870  Biso   1.000  H
  H448     1.0000 0.23000  0.94420  0.19113  Biso   1.000  H
  H449     1.0000 0.82246  0.71206  0.48478  Biso   1.000  H
  H450     1.0000 0.53410  0.32638  0.77757  Biso   1.000  H
  H451     1.0000 0.77116  0.52330  0.34773  Biso   1.000  H
  H452     1.0000 0.23913  0.16728  0.03282  Biso   1.000  H
  H453     1.0000 0.45973  0.77843  0.70469  Biso   1.000  H
  H454     1.0000 0.32187  0.48597  0.23393  Biso   1.000  H
  H455     1.0000 0.68464  0.21142  0.48298  Biso   1.000  H
  H456     1.0000 0.95444  0.80892  0.78069  Biso   1.000  H
  H457     1.0000 0.67857  0.75760  0.49940  Biso   1.000  H
  H458     1.0000 0.52775  0.72897  0.85465  Biso   1.000  H
  H459     1.0000 0.83922  0.47321  0.75146  Biso   1.000  H
  H460     1.0000 0.16568  0.76548  0.01887  Biso   1.000  H
  H461     1.0000 0.94734  0.69824  0.68581  Biso   1.000  H
  H462     1.0000 0.27794  0.48743  0.83486  Biso   1.000  H
  H463     1.0000 0.83379  0.25610  0.49590  Biso   1.000  H
  H464     1.0000 0.98366  0.15069  0.78975  Biso   1.000  H
  H465     1.0000 0.68267  0.01784  0.73154  Biso   1.000  H
  H466     1.0000 0.33712  0.26617  0.01353  Biso   1.000  H
  H467     1.0000 0.54483  0.22328  0.68371  Biso   1.000  H
  H468     1.0000 0.18032  0.94066  0.79746  Biso   1.000  H
  H469     1.0000 0.33480  0.23155  0.53822  Biso   1.000  H
  H470     1.0000 0.53759  0.25842  0.17875  Biso   1.000  H
  H471     1.0000 0.17367  0.49192  0.28010  Biso   1.000  H
  H472     1.0000 0.78393  0.15980  0.97596  Biso   1.000  H
  H473     1.0000 0.01224  0.32198  0.27901  Biso   1.000  H
  H474     1.0000 0.72661  0.51536  0.18997  Biso   1.000  H
  H475     1.0000 0.23412  0.66542  0.52333  Biso   1.000  H
  H476     1.0000 0.97791  0.81700  0.23659  Biso   1.000  H
  H477     1.0000 0.33232  0.01901  0.28223  Biso   1.000  H
  H478     1.0000 0.66822  0.71218  0.00342  Biso   1.000  H
  H479     1.0000 0.52813  0.75701  0.34402  Biso   1.000  H
  H480     1.0000 0.82473  0.02524  0.23373  Biso   1.000  H
  N1       1.0000 0.68369  0.16190  0.51144  Biso   1.000  N
  N2       1.0000 0.47630  0.65408  0.20217  Biso   1.000  N
  N3       1.0000 0.17908  0.50882  0.68788  Biso   1.000  N
  N4       1.0000 0.18606  0.16820  0.01222  Biso   1.000  N
  N5       1.0000 0.99689  0.66485  0.33240  Biso   1.000  N
  N6       1.0000 0.68340  0.49684  0.84226  Biso   1.000  N
  N7       1.0000 0.82670  0.66465  0.52160  Biso   1.000  N
  N8       1.0000 0.00497  0.16712  0.18791  Biso   1.000  N
  N9       1.0000 0.32907  0.98348  0.68938  Biso   1.000  N
  N10      1.0000 0.31994  0.66640  0.00979  Biso   1.000  N
  N11      1.0000 0.50683  0.15894  0.33089  Biso   1.000  N
  N12      1.0000 0.82987  0.98010  0.83151  Biso   1.000  N
  N13      1.0000 0.32212  0.82311  0.51359  Biso   1.000  N
  N14      1.0000 0.49788  0.32886  0.82749  Biso   1.000  N
  N15      1.0000 0.82275  0.49333  0.34174  Biso   1.000  N
  N16      1.0000 0.82179  0.80998  0.02774  Biso   1.000  N
  N17      1.0000 0.01174  0.30522  0.68614  Biso   1.000  N
  N18      1.0000 0.31726  0.46186  0.18144  Biso   1.000  N
  N19      1.0000 0.17817  0.32207  0.51551  Biso   1.000  N
  N20      1.0000 0.97911  0.80283  0.83499  Biso   1.000  N
  N21      1.0000 0.67974  0.98368  0.33359  Biso   1.000  N
  N22      1.0000 0.68465  0.31232  0.99790  Biso   1.000  N
  N23      1.0000 0.49500  0.82497  0.70120  Biso   1.000  N
  N24      1.0000 0.18495  0.98244  0.18713  Biso   1.000  N
  N25      1.0000 0.82852  0.49610  0.69671  Biso   1.000  N
  N26      1.0000 0.67924  0.81312  0.52187  Biso   1.000  N
  N27      1.0000 0.50152  0.67972  0.85240  Biso   1.000  N
  N28      1.0000 0.32878  0.51295  0.83150  Biso   1.000  N
  N29      1.0000 0.17499  0.81703  0.99718  Biso   1.000  N
  N30      1.0000 0.99222  0.65620  0.68425  Biso   1.000  N
  N31      1.0000 0.68205  0.98880  0.68430  Biso   1.000  N
  N32      1.0000 0.82699  0.31078  0.51984  Biso   1.000  N
  N33      1.0000 0.01894  0.15343  0.83541  Biso   1.000  N
  N34      1.0000 0.18337  0.97828  0.83843  Biso   1.000  N
  N35      1.0000 0.33138  0.32043  0.99388  Biso   1.000  N
  N36      1.0000 0.50709  0.17475  0.68484  Biso   1.000  N
  N37      1.0000 0.17637  0.47059  0.33223  Biso   1.000  N
  N38      1.0000 0.32781  0.17452  0.52113  Biso   1.000  N
  N39      1.0000 0.50311  0.30737  0.18115  Biso   1.000  N
  N40      1.0000 0.67274  0.49295  0.19885  Biso   1.000  N
  N41      1.0000 0.83023  0.16051  0.00535  Biso   1.000  N
  N42      1.0000 0.99460  0.31471  0.33543  Biso   1.000  N
  N43      1.0000 0.32750  0.99046  0.33738  Biso   1.000  N
  N44      1.0000 0.17666  0.67091  0.50819  Biso   1.000  N
  N45      1.0000 0.00573  0.81516  0.18514  Biso   1.000  N
  N46      1.0000 0.82450  0.99662  0.18438  Biso   1.000  N
  N47      1.0000 0.67330  0.66137  0.03417  Biso   1.000  N
  N48      1.0000 0.49347  0.80750  0.34382  Biso   1.000  N
  O1       1.0000 0.34224  0.53713  0.01703  Biso   1.000  O
  O2       1.0000 0.01127  0.33561  0.55406  Biso   1.000  O
  O3       1.0000 0.54351  0.97659  0.35664  Biso   1.000  O
  O4       1.0000 0.83837  0.52990  0.52358  Biso   1.000  O
  O5       1.0000 0.51135  0.33610  0.96300  Biso   1.000  O
  O6       1.0000 0.04760  0.98914  0.16362  Biso   1.000  O
  O7       1.0000 0.16613  0.03422  0.00945  Biso   1.000  O
  O8       1.0000 0.50066  0.83471  0.56489  Biso   1.000  O
  O9       1.0000 0.95939  0.48866  0.36224  Biso   1.000  O
  O10      1.0000 0.65704  0.03077  0.51079  Biso   1.000  O
  O11      1.0000 0.98372  0.82608  0.96861  Biso   1.000  O
  O12      1.0000 0.45504  0.47085  0.16978  Biso   1.000  O
  O13      1.0000 0.66122  0.44377  0.01468  Biso   1.000  O
  O14      1.0000 0.00065  0.64900  0.46584  Biso   1.000  O
  O15      1.0000 0.46166  0.99506  0.66947  Biso   1.000  O
  O16      1.0000 0.15847  0.45493  0.52207  Biso   1.000  O
  O17      1.0000 0.49204  0.63936  0.06663  Biso   1.000  O
  O18      1.0000 0.96488  0.98172  0.85685  Biso   1.000  O
  O19      1.0000 0.84435  0.94657  0.00742  Biso   1.000  O
  O20      1.0000 0.51064  0.14162  0.46897  Biso   1.000  O
  O21      1.0000 0.04908  0.47789  0.67090  Biso   1.000  O
  O22      1.0000 0.34619  0.95435  0.50567  Biso   1.000  O
  O23      1.0000 0.00301  0.14786  0.05298  Biso   1.000  O
  O24      1.0000 0.54681  0.49687  0.86166  Biso   1.000  O
  O25      1.0000 0.96145  0.99897  0.16626  Biso   1.000  O
  O26      1.0000 0.16037  0.95086  0.01643  Biso   1.000  O
  O27      1.0000 0.01251  0.14293  0.97012  Biso   1.000  O
  O28      1.0000 0.46256  0.99386  0.36072  Biso   1.000  O
  O29      1.0000 0.66124  0.94759  0.50819  Biso   1.000  O
  O30      1.0000 0.50434  0.15121  0.55122  Biso   1.000  O
  O31      1.0000 0.53467  0.49406  0.17390  Biso   1.000  O
  O32      1.0000 0.34899  0.45600  0.99983  Biso   1.000  O
  O33      1.0000 0.50158  0.64751  0.98261  Biso   1.000  O
  O34      1.0000 0.04339  0.48931  0.35626  Biso   1.000  O
  O35      1.0000 0.84425  0.44761  0.51341  Biso   1.000  O
  O36      1.0000 0.00404  0.63729  0.54867  Biso   1.000  O
  O37      1.0000 0.04870  0.97386  0.85779  Biso   1.000  O
  O38      1.0000 0.84932  0.02876  0.00646  Biso   1.000  O
  O39      1.0000 0.00678  0.83728  0.04919  Biso   1.000  O
  O40      1.0000 0.54666  0.99971  0.66971  Biso   1.000  O
  O41      1.0000 0.34558  0.03882  0.51860  Biso   1.000  O
  O42      1.0000 0.49777  0.82908  0.48054  Biso   1.000  O
  O43      1.0000 0.46246  0.50376  0.85540  Biso   1.000  O
  O44      1.0000 0.65963  0.52988  0.02871  Biso   1.000  O
  O45      1.0000 0.50090  0.33122  0.04725  Biso   1.000  O
  O46      1.0000 0.96482  0.48450  0.67224  Biso   1.000  O
  O47      1.0000 0.15807  0.53769  0.50321  Biso   1.000  O
  O48      1.0000 0.99458  0.33202  0.47054  Biso   1.000  O
  O49      1.0000 0.00145  0.94971  0.16175  Biso   1.000  O
  O50      1.0000 0.16391  0.98521  0.96977  Biso   1.000  O
  O51      1.0000 0.96708  0.14376  0.00712  Biso   1.000  O
  O52      1.0000 0.48931  0.94215  0.36021  Biso   1.000  O
  O53      1.0000 0.65738  0.99046  0.54956  Biso   1.000  O
  O54      1.0000 0.46467  0.15062  0.50733  Biso   1.000  O
  O55      1.0000 0.50240  0.44378  0.17356  Biso   1.000  O
  O56      1.0000 0.34082  0.50401  0.96811  Biso   1.000  O
  O57      1.0000 0.53807  0.64423  0.02749  Biso   1.000  O
  O58      1.0000 0.00091  0.44808  0.35446  Biso   1.000  O
  O59      1.0000 0.84037  0.48434  0.56131  Biso   1.000  O
  O60      1.0000 0.04513  0.64465  0.50596  Biso   1.000  O
  O61      1.0000 0.01079  0.01992  0.85592  Biso   1.000  O
  O62      1.0000 0.84660  0.98516  0.05373  Biso   1.000  O
  O63      1.0000 0.03790  0.84243  0.99221  Biso   1.000  O
  O64      1.0000 0.49788  0.04087  0.67044  Biso   1.000  O
  O65      1.0000 0.34541  0.00316  0.47101  Biso   1.000  O
  O66      1.0000 0.54298  0.83198  0.52352  Biso   1.000  O
  O67      1.0000 0.50588  0.54272  0.86337  Biso   1.000  O
  O68      1.0000 0.65767  0.48410  0.06383  Biso   1.000  O
  O69      1.0000 0.46667  0.33738  0.99936  Biso   1.000  O
  O70      1.0000 0.01192  0.52229  0.66769  Biso   1.000  O
  O71      1.0000 0.15464  0.48597  0.46725  Biso   1.000  O
  O72      1.0000 0.96037  0.33807  0.52120  Biso   1.000  O
  O73      1.0000 0.00033  0.43840  0.67271  Biso   1.000  O
  O74      1.0000 0.66277  0.99043  0.46868  Biso   1.000  O
  O75      1.0000 0.45291  0.64204  0.01524  Biso   1.000  O
  O76      1.0000 0.49707  0.45911  0.85481  Biso   1.000  O
  O77      1.0000 0.16387  0.99684  0.05230  Biso   1.000  O
  O78      1.0000 0.96045  0.63716  0.50662  Biso   1.000  O
  O79      1.0000 0.50681  0.95703  0.67529  Biso   1.000  O
  O80      1.0000 0.84158  0.49346  0.47713  Biso   1.000  O
  O81      1.0000 0.05189  0.14774  0.01468  Biso   1.000  O
  O82      1.0000 0.00106  0.93398  0.86118  Biso   1.000  O
  O83      1.0000 0.34197  0.48904  0.04990  Biso   1.000  O
  O84      1.0000 0.54788  0.14796  0.51343  Biso   1.000  O
  O85      1.0000 0.00035  0.53240  0.36247  Biso   1.000  O
  O86      1.0000 0.34239  0.99084  0.55489  Biso   1.000  O
  O87      1.0000 0.54945  0.33120  0.01154  Biso   1.000  O
  O88      1.0000 0.48239  0.52245  0.17532  Biso   1.000  O
  O89      1.0000 0.84357  0.98878  0.96857  Biso   1.000  O
  O90      1.0000 0.04380  0.34147  0.50569  Biso   1.000  O
  O91      1.0000 0.50882  0.02473  0.35719  Biso   1.000  O
  O92      1.0000 0.15847  0.50449  0.55259  Biso   1.000  O
  O93      1.0000 0.95748  0.83201  0.01754  Biso   1.000  O
  O94      1.0000 0.00764  0.03267  0.16889  Biso   1.000  O
  O95      1.0000 0.65708  0.48988  0.97960  Biso   1.000  O
  O96      1.0000 0.45768  0.83538  0.52211  Biso   1.000  O
  O97      1.0000 0.46528  0.19877  0.50235  Biso   1.000  O
  O98      1.0000 0.50343  0.43967  0.22251  Biso   1.000  O
  O99      1.0000 0.20373  0.48932  0.46814  Biso   1.000  O
  O100     1.0000 0.96289  0.19261  0.00954  Biso   1.000  O
  O101     1.0000 0.99446  0.44917  0.30452  Biso   1.000  O
  O102     1.0000 0.70602  0.48788  0.06597  Biso   1.000  O
  O103     1.0000 0.04202  0.69330  0.51266  Biso   1.000  O
  O104     1.0000 0.99943  0.94953  0.21058  Biso   1.000  O
  O105     1.0000 0.29616  0.00384  0.47228  Biso   1.000  O
  O106     1.0000 0.53998  0.69364  0.02944  Biso   1.000  O
  O107     1.0000 0.49883  0.94225  0.31262  Biso   1.000  O
  O108     1.0000 0.79639  0.98769  0.05140  Biso   1.000  O
  O109     1.0000 0.54194  0.78281  0.52610  Biso   1.000  O
  O110     1.0000 0.51286  0.54557  0.81498  Biso   1.000  O
  O111     1.0000 0.79024  0.48634  0.56224  Biso   1.000  O
  O112     1.0000 0.04347  0.79339  0.99612  Biso   1.000  O
  O113     1.0000 0.00959  0.52255  0.71624  Biso   1.000  O
  O114     1.0000 0.29238  0.50073  0.96667  Biso   1.000  O
  O115     1.0000 0.96227  0.28976  0.51886  Biso   1.000  O
  O116     1.0000 0.00935  0.01843  0.80812  Biso   1.000  O
  O117     1.0000 0.70598  0.99302  0.55076  Biso   1.000  O
  O118     1.0000 0.46639  0.28965  0.99966  Biso   1.000  O
  O119     1.0000 0.50184  0.04245  0.71847  Biso   1.000  O
  O120     1.0000 0.21330  0.98950  0.97033  Biso   1.000  O
  O121     1.0000 0.05065  0.47860  0.71853  Biso   1.000  O
  O122     1.0000 0.70583  0.02771  0.50477  Biso   1.000  O
  O123     1.0000 0.49278  0.68871  0.06964  Biso   1.000  O
  O124     1.0000 0.54832  0.49590  0.81497  Biso   1.000  O
  O125     1.0000 0.21307  0.03247  0.00911  Biso   1.000  O
  O126     1.0000 0.00311  0.69921  0.46764  Biso   1.000  O
  O127     1.0000 0.46249  0.99406  0.71844  Biso   1.000  O
  O128     1.0000 0.78971  0.53102  0.52227  Biso   1.000  O
  O129     1.0000 0.00943  0.19458  0.05106  Biso   1.000  O
  O130     1.0000 0.96395  0.97717  0.80867  Biso   1.000  O
  O131     1.0000 0.29338  0.53497  0.01664  Biso   1.000  O
  O132     1.0000 0.51078  0.18948  0.46401  Biso   1.000  O
  O133     1.0000 0.95598  0.49487  0.31311  Biso   1.000  O
  O134     1.0000 0.29628  0.95744  0.50291  Biso   1.000  O
  O135     1.0000 0.50965  0.28725  0.95969  Biso   1.000  O
  O136     1.0000 0.45341  0.46588  0.21849  Biso   1.000  O
  O137     1.0000 0.79615  0.94567  0.01146  Biso   1.000  O
  O138     1.0000 0.01420  0.28667  0.54979  Biso   1.000  O
  O139     1.0000 0.54545  0.97436  0.30860  Biso   1.000  O
  O140     1.0000 0.20691  0.45352  0.51633  Biso   1.000  O
  O141     1.0000 0.99140  0.77659  0.96914  Biso   1.000  O
  O142     1.0000 0.04563  0.98605  0.21238  Biso   1.000  O
  O143     1.0000 0.70859  0.44592  0.01537  Biso   1.000  O
  O144     1.0000 0.50056  0.78692  0.57043  Biso   1.000  O
  O145     1.0000 0.53440  0.48915  0.22228  Biso   1.000  O
  O146     1.0000 0.20678  0.53734  0.50204  Biso   1.000  O
  O147     1.0000 0.51043  0.19976  0.54702  Biso   1.000  O
  O148     1.0000 0.03996  0.48766  0.30627  Biso   1.000  O
  O149     1.0000 0.70886  0.52930  0.02677  Biso   1.000  O
  O150     1.0000 0.00811  0.19122  0.96784  Biso   1.000  O
  O151     1.0000 0.96063  0.99582  0.21357  Biso   1.000  O
  O152     1.0000 0.29596  0.04118  0.51936  Biso   1.000  O
  O153     1.0000 0.99610  0.68573  0.55036  Biso   1.000  O
  O154     1.0000 0.46426  0.99206  0.31042  Biso   1.000  O
  O155     1.0000 0.79929  0.02961  0.00576  Biso   1.000  O
  O156     1.0000 0.49922  0.69705  0.98818  Biso   1.000  O
  O157     1.0000 0.46410  0.51083  0.80756  Biso   1.000  O
  O158     1.0000 0.79591  0.44796  0.51983  Biso   1.000  O
  O159     1.0000 0.49818  0.77976  0.48052  Biso   1.000  O
  O160     1.0000 0.96351  0.48771  0.72022  Biso   1.000  O
  O161     1.0000 0.29923  0.45427  0.99921  Biso   1.000  O
  O162     1.0000 0.01937  0.79152  0.04791  Biso   1.000  O
  O163     1.0000 0.04706  0.97173  0.80903  Biso   1.000  O
  O164     1.0000 0.70883  0.94708  0.51807  Biso   1.000  O
  O165     1.0000 0.00386  0.28269  0.46797  Biso   1.000  O
  O166     1.0000 0.54891  0.00165  0.71890  Biso   1.000  O
  O167     1.0000 0.20971  0.94811  0.01619  Biso   1.000  O
  O168     1.0000 0.50701  0.28364  0.04546  Biso   1.000  O
  O169     1.0000 0.01033  0.03211  0.21839  Biso   1.000  O
  O170     1.0000 0.21345  0.99171  0.05474  Biso   1.000  O
  O171     1.0000 0.04817  0.19470  0.00972  Biso   1.000  O
  O172     1.0000 0.51340  0.02517  0.30747  Biso   1.000  O
  O173     1.0000 0.71016  0.98326  0.47026  Biso   1.000  O
  O174     1.0000 0.54937  0.19604  0.50720  Biso   1.000  O
  O175     1.0000 0.47971  0.51858  0.22404  Biso   1.000  O
  O176     1.0000 0.29286  0.48736  0.04868  Biso   1.000  O
  O177     1.0000 0.45716  0.68873  0.02842  Biso   1.000  O
  O178     1.0000 0.00310  0.53057  0.31171  Biso   1.000  O
  O179     1.0000 0.79235  0.48918  0.47831  Biso   1.000  O
  O180     1.0000 0.95857  0.68516  0.50224  Biso   1.000  O
  O181     1.0000 0.00443  0.93509  0.81175  Biso   1.000  O
  O182     1.0000 0.79449  0.98402  0.96735  Biso   1.000  O
  O183     1.0000 0.95825  0.78330  0.02067  Biso   1.000  O
  O184     1.0000 0.50983  0.95976  0.72276  Biso   1.000  O
  O185     1.0000 0.29301  0.99500  0.55509  Biso   1.000  O
  O186     1.0000 0.45620  0.78749  0.52658  Biso   1.000  O
  O187     1.0000 0.50075  0.46280  0.80651  Biso   1.000  O
  O188     1.0000 0.70504  0.48992  0.98115  Biso   1.000  O
  O189     1.0000 0.54962  0.28367  0.00432  Biso   1.000  O
  O190     1.0000 0.00834  0.43891  0.72131  Biso   1.000  O
  O191     1.0000 0.20754  0.50528  0.55187  Biso   1.000  O
  O192     1.0000 0.04477  0.29291  0.50452  Biso   1.000  O
