data_image0
_cell_length_a       47.0716
_cell_length_b       46.489
_cell_length_c       46.4555
_cell_angle_alpha    90
_cell_angle_beta     90
_cell_angle_gamma    90

_symmetry_space_group_name_H-M    "P 1"
_symmetry_int_tables_number       1

loop_
  _symmetry_equiv_pos_as_xyz
  'x, y, z'

loop_
  _atom_site_label
  _atom_site_occupancy
  _atom_site_fract_x
  _atom_site_fract_y
  _atom_site_fract_z
  _atom_site_thermal_displace_type
  _atom_site_B_iso_or_equiv
  _atom_site_type_symbol
  C1       1.0000 0.53326  0.98628  0.32144  Biso   1.000  C
  C2       1.0000 0.30376  0.55450  0.01383  Biso   1.000  C
  C3       1.0000 0.99550  0.31751  0.56946  Biso   1.000  C
  C4       1.0000 0.02866  0.99530  0.19358  Biso   1.000  C
  C5       1.0000 0.79457  0.54157  0.49774  Biso   1.000  C
  C6       1.0000 0.48181  0.32403  0.93348  Biso   1.000  C
  C7       1.0000 0.94514  0.49792  0.32083  Biso   1.000  C
  C8       1.0000 0.16328  0.05751  0.01622  Biso   1.000  C
  C9       1.0000 0.48566  0.81384  0.56341  Biso   1.000  C
  C10      1.0000 0.44492  0.47211  0.18790  Biso   1.000  C
  C11      1.0000 0.67206  0.04493  0.49791  Biso   1.000  C
  C12      1.0000 0.98443  0.82032  0.94007  Biso   1.000  C
  C13      1.0000 0.44547  0.00674  0.68191  Biso   1.000  C
  C14      1.0000 0.66335  0.43650  0.98794  Biso   1.000  C
  C15      1.0000 0.98397  0.67445  0.43603  Biso   1.000  C
  C16      1.0000 0.94231  0.00283  0.82161  Biso   1.000  C
  C17      1.0000 0.16709  0.45182  0.51056  Biso   1.000  C
  C18      1.0000 0.49863  0.66889  0.07144  Biso   1.000  C
  C19      1.0000 0.02132  0.50118  0.68892  Biso   1.000  C
  C20      1.0000 0.80706  0.94053  0.99260  Biso   1.000  C
  C21      1.0000 0.49278  0.16895  0.42973  Biso   1.000  C
  C22      1.0000 0.52429  0.50853  0.81769  Biso   1.000  C
  C23      1.0000 0.30896  0.95312  0.51253  Biso   1.000  C
  C24      1.0000 0.98297  0.17681  0.07460  Biso   1.000  C
  C25      1.0000 0.31383  0.06314  0.51296  Biso   1.000  C
  C26      1.0000 0.46860  0.31394  0.03959  Biso   1.000  C
  C27      1.0000 0.05094  0.47745  0.32749  Biso   1.000  C
  C28      1.0000 0.80275  0.04792  0.00436  Biso   1.000  C
  C29      1.0000 0.98817  0.31368  0.46004  Biso   1.000  C
  C30      1.0000 0.55298  0.48798  0.17899  Biso   1.000  C
  C31      1.0000 0.15561  0.56101  0.51543  Biso   1.000  C
  C32      1.0000 0.00142  0.81285  0.04687  Biso   1.000  C
  C33      1.0000 0.42439  0.97595  0.32206  Biso   1.000  C
  C34      1.0000 0.67060  0.54351  0.99112  Biso   1.000  C
  C35      1.0000 0.46844  0.80946  0.45468  Biso   1.000  C
  C36      1.0000 0.92381  0.97576  0.18539  Biso   1.000  C
  C37      1.0000 0.66340  0.93928  0.49539  Biso   1.000  C
  C38      1.0000 0.49136  0.67803  0.96466  Biso   1.000  C
  C39      1.0000 0.91287  0.51096  0.67961  Biso   1.000  C
  C40      1.0000 0.16848  0.94847  0.01605  Biso   1.000  C
  C41      1.0000 0.97051  0.67548  0.54532  Biso   1.000  C
  C42      1.0000 0.41382  0.50961  0.82698  Biso   1.000  C
  C43      1.0000 0.80317  0.43413  0.49008  Biso   1.000  C
  C44      1.0000 0.98033  0.18311  0.96400  Biso   1.000  C
  C45      1.0000 0.55500  0.00278  0.67836  Biso   1.000  C
  C46      1.0000 0.29952  0.44547  0.01866  Biso   1.000  C
  C47      1.0000 0.49215  0.18314  0.53751  Biso   1.000  C
  C48      1.0000 0.04978  0.01873  0.83113  Biso   1.000  C
  C49      1.0000 0.98610  0.06201  0.83263  Biso   1.000  C
  C50      1.0000 0.80164  0.98665  0.05095  Biso   1.000  C
  C51      1.0000 0.04849  0.81451  0.98166  Biso   1.000  C
  C52      1.0000 0.49799  0.05893  0.67509  Biso   1.000  C
  C53      1.0000 0.30784  0.00624  0.45676  Biso   1.000  C
  C54      1.0000 0.53278  0.80811  0.50214  Biso   1.000  C
  C55      1.0000 0.47258  0.56227  0.82750  Biso   1.000  C
  C56      1.0000 0.67471  0.48910  0.04585  Biso   1.000  C
  C57      1.0000 0.42166  0.32286  0.97958  Biso   1.000  C
  C58      1.0000 0.97598  0.56116  0.68424  Biso   1.000  C
  C59      1.0000 0.16761  0.50733  0.46180  Biso   1.000  C
  C60      1.0000 0.93751  0.31292  0.51674  Biso   1.000  C
  C61      1.0000 0.98830  0.93412  0.18407  Biso   1.000  C
  C62      1.0000 0.17252  0.00833  0.96176  Biso   1.000  C
  C63      1.0000 0.92809  0.17697  0.02078  Biso   1.000  C
  C64      1.0000 0.48482  0.92859  0.32244  Biso   1.000  C
  C65      1.0000 0.67626  0.99084  0.54775  Biso   1.000  C
  C66      1.0000 0.44051  0.18314  0.48028  Biso   1.000  C
  C67      1.0000 0.50659  0.42634  0.17510  Biso   1.000  C
  C68      1.0000 0.29348  0.49686  0.96168  Biso   1.000  C
  C69      1.0000 0.54871  0.67405  0.01126  Biso   1.000  C
  C70      1.0000 0.98171  0.43346  0.32536  Biso   1.000  C
  C71      1.0000 0.79448  0.48225  0.54933  Biso   1.000  C
  C72      1.0000 0.03036  0.68230  0.49912  Biso   1.000  C
  C73      1.0000 0.00785  0.53947  0.31704  Biso   1.000  C
  C74      1.0000 0.31074  0.01021  0.56783  Biso   1.000  C
  C75      1.0000 0.53008  0.31338  0.98480  Biso   1.000  C
  C76      1.0000 0.49195  0.53343  0.18833  Biso   1.000  C
  C77      1.0000 0.80618  0.99914  0.94346  Biso   1.000  C
  C78      1.0000 0.04612  0.31944  0.50245  Biso   1.000  C
  C79      1.0000 0.47310  0.03563  0.31592  Biso   1.000  C
  C80      1.0000 0.15216  0.50659  0.56795  Biso   1.000  C
  C81      1.0000 0.93906  0.81800  0.99804  Biso   1.000  C
  C82      1.0000 0.96698  0.03989  0.18799  Biso   1.000  C
  C83      1.0000 0.66212  0.49546  0.93457  Biso   1.000  C
  C84      1.0000 0.42491  0.81513  0.51923  Biso   1.000  C
  C85      1.0000 0.96367  0.45218  0.69026  Biso   1.000  C
  C86      1.0000 0.66785  0.99514  0.43940  Biso   1.000  C
  C87      1.0000 0.44000  0.67353  0.02205  Biso   1.000  C
  C88      1.0000 0.46818  0.45290  0.81412  Biso   1.000  C
  C89      1.0000 0.16062  0.00140  0.07317  Biso   1.000  C
  C90      1.0000 0.92124  0.67108  0.48374  Biso   1.000  C
  C91      1.0000 0.49830  0.94763  0.68453  Biso   1.000  C
  C92      1.0000 0.80433  0.49456  0.44180  Biso   1.000  C
  C93      1.0000 0.03657  0.18116  0.01621  Biso   1.000  C
  C94      1.0000 0.00275  0.95395  0.82407  Biso   1.000  C
  C95      1.0000 0.31272  0.50097  0.06926  Biso   1.000  C
  C96      1.0000 0.54791  0.17574  0.48806  Biso   1.000  C
  C97      1.0000 0.67230  0.07692  0.50203  Biso   1.000  C
  C98      1.0000 0.49868  0.66836  0.10533  Biso   1.000  C
  C99      1.0000 0.05259  0.49749  0.69129  Biso   1.000  C
  C100     1.0000 0.16238  0.08941  0.00919  Biso   1.000  C
  C101     1.0000 0.98778  0.67337  0.40383  Biso   1.000  C
  C102     1.0000 0.55580  0.51447  0.81693  Biso   1.000  C
  C103     1.0000 0.79470  0.57153  0.49067  Biso   1.000  C
  C104     1.0000 0.98530  0.17424  0.10716  Biso   1.000  C
  C105     1.0000 0.41323  0.00942  0.68583  Biso   1.000  C
  C106     1.0000 0.30604  0.58628  0.02003  Biso   1.000  C
  C107     1.0000 0.48280  0.16715  0.39942  Biso   1.000  C
  C108     1.0000 0.91040  0.00233  0.82139  Biso   1.000  C
  C109     1.0000 0.30690  0.92164  0.51535  Biso   1.000  C
  C110     1.0000 0.48638  0.32441  0.90170  Biso   1.000  C
  C111     1.0000 0.91380  0.50360  0.32073  Biso   1.000  C
  C112     1.0000 0.80877  0.90911  0.99115  Biso   1.000  C
  C113     1.0000 0.99578  0.31967  0.60137  Biso   1.000  C
  C114     1.0000 0.41231  0.47331  0.19167  Biso   1.000  C
  C115     1.0000 0.16961  0.41931  0.51220  Biso   1.000  C
  C116     1.0000 0.97823  0.82299  0.90804  Biso   1.000  C
  C117     1.0000 0.56581  0.98237  0.31909  Biso   1.000  C
  C118     1.0000 0.66205  0.40461  0.98500  Biso   1.000  C
  C119     1.0000 0.49077  0.81767  0.59512  Biso   1.000  C
  C120     1.0000 0.06082  0.99234  0.19584  Biso   1.000  C
  C121     1.0000 0.80452  0.97691  0.08116  Biso   1.000  C
  C122     1.0000 0.08100  0.81687  0.98331  Biso   1.000  C
  C123     1.0000 0.98372  0.09374  0.83238  Biso   1.000  C
  C124     1.0000 0.30439  0.99559  0.42660  Biso   1.000  C
  C125     1.0000 0.56564  0.80828  0.49936  Biso   1.000  C
  C126     1.0000 0.49241  0.09024  0.67063  Biso   1.000  C
  C127     1.0000 0.67741  0.49213  0.07725  Biso   1.000  C
  C128     1.0000 0.39113  0.32261  0.98008  Biso   1.000  C
  C129     1.0000 0.47464  0.59392  0.83032  Biso   1.000  C
  C130     1.0000 0.17056  0.50560  0.42861  Biso   1.000  C
  C131     1.0000 0.90546  0.31191  0.51248  Biso   1.000  C
  C132     1.0000 0.98356  0.59435  0.68057  Biso   1.000  C
  C133     1.0000 0.17555  0.01058  0.93039  Biso   1.000  C
  C134     1.0000 0.89584  0.17660  0.02116  Biso   1.000  C
  C135     1.0000 0.99620  0.90301  0.18019  Biso   1.000  C
  C136     1.0000 0.68028  0.99357  0.57975  Biso   1.000  C
  C137     1.0000 0.40845  0.18500  0.48470  Biso   1.000  C
  C138     1.0000 0.47959  0.89750  0.32459  Biso   1.000  C
  C139     1.0000 0.29053  0.50270  0.93021  Biso   1.000  C
  C140     1.0000 0.57970  0.67410  0.00379  Biso   1.000  C
  C141     1.0000 0.50392  0.39496  0.17189  Biso   1.000  C
  C142     1.0000 0.79101  0.48647  0.58105  Biso   1.000  C
  C143     1.0000 0.06203  0.68447  0.50334  Biso   1.000  C
  C144     1.0000 0.97251  0.40273  0.32898  Biso   1.000  C
  C145     1.0000 0.31817  0.50538  0.10034  Biso   1.000  C
  C146     1.0000 0.07641  0.32086  0.49283  Biso   1.000  C
  C147     1.0000 0.47504  0.06846  0.31324  Biso   1.000  C
  C148     1.0000 0.80701  0.50137  0.40981  Biso   1.000  C
  C149     1.0000 0.56295  0.31202  0.97949  Biso   1.000  C
  C150     1.0000 0.96510  0.07185  0.19096  Biso   1.000  C
  C151     1.0000 0.16033  0.00119  0.10594  Biso   1.000  C
  C152     1.0000 0.39404  0.81880  0.52644  Biso   1.000  C
  C153     1.0000 0.00525  0.57156  0.31647  Biso   1.000  C
  C154     1.0000 0.66627  0.99540  0.40806  Biso   1.000  C
  C155     1.0000 0.90723  0.81736  0.99433  Biso   1.000  C
  C156     1.0000 0.49401  0.56635  0.19393  Biso   1.000  C
  C157     1.0000 0.65733  0.50251  0.90336  Biso   1.000  C
  C158     1.0000 0.88948  0.66919  0.48091  Biso   1.000  C
  C159     1.0000 0.49530  0.91639  0.68928  Biso   1.000  C
  C160     1.0000 0.14852  0.50800  0.59997  Biso   1.000  C
  C161     1.0000 0.40855  0.67490  0.02223  Biso   1.000  C
  C162     1.0000 0.99758  0.92283  0.81844  Biso   1.000  C
  C163     1.0000 0.80829  0.99713  0.91055  Biso   1.000  C
  C164     1.0000 0.57890  0.17341  0.49046  Biso   1.000  C
  C165     1.0000 0.96786  0.41890  0.69092  Biso   1.000  C
  C166     1.0000 0.31105  0.01759  0.59902  Biso   1.000  C
  C167     1.0000 0.06877  0.18129  0.01334  Biso   1.000  C
  C168     1.0000 0.47210  0.42034  0.81153  Biso   1.000  C
  C169     1.0000 0.99839  0.81203  0.07845  Biso   1.000  C
  C170     1.0000 0.08197  0.02576  0.83328  Biso   1.000  C
  C171     1.0000 0.80176  0.08010  0.99906  Biso   1.000  C
  C172     1.0000 0.45882  0.80755  0.42437  Biso   1.000  C
  C173     1.0000 0.58679  0.00308  0.67684  Biso   1.000  C
  C174     1.0000 0.31404  0.09554  0.51512  Biso   1.000  C
  C175     1.0000 0.46432  0.31189  0.07173  Biso   1.000  C
  C176     1.0000 0.38185  0.51451  0.82879  Biso   1.000  C
  C177     1.0000 0.67091  0.57502  0.98607  Biso   1.000  C
  C178     1.0000 0.98333  0.31113  0.42802  Biso   1.000  C
  C179     1.0000 0.88159  0.51473  0.67691  Biso   1.000  C
  C180     1.0000 0.15627  0.59275  0.51731  Biso   1.000  C
  C181     1.0000 0.98459  0.18493  0.93162  Biso   1.000  C
  C182     1.0000 0.88952  0.97212  0.18438  Biso   1.000  C
  C183     1.0000 0.16921  0.91556  0.01257  Biso   1.000  C
  C184     1.0000 0.49278  0.18239  0.57009  Biso   1.000  C
  C185     1.0000 0.39139  0.97629  0.32426  Biso   1.000  C
  C186     1.0000 0.66305  0.90658  0.49913  Biso   1.000  C
  C187     1.0000 0.49298  0.67928  0.93245  Biso   1.000  C
  C188     1.0000 0.58520  0.49536  0.17716  Biso   1.000  C
  C189     1.0000 0.29877  0.41303  0.01479  Biso   1.000  C
  C190     1.0000 0.97339  0.67859  0.57714  Biso   1.000  C
  C191     1.0000 0.08312  0.48270  0.32756  Biso   1.000  C
  C192     1.0000 0.80686  0.40126  0.48866  Biso   1.000  C
  C193     1.0000 0.83686  0.99801  0.89503  Biso   1.000  C
  C194     1.0000 0.89037  0.84420  0.99405  Biso   1.000  C
  C195     1.0000 0.99476  0.90361  0.84442  Biso   1.000  C
  C196     1.0000 0.33938  0.01758  0.61214  Biso   1.000  C
  C197     1.0000 0.38016  0.84724  0.52707  Biso   1.000  C
  C198     1.0000 0.49763  0.89860  0.66427  Biso   1.000  C
  C199     1.0000 0.63039  0.50457  0.88938  Biso   1.000  C
  C200     1.0000 0.57975  0.33892  0.97850  Biso   1.000  C
  C201     1.0000 0.47851  0.40395  0.83642  Biso   1.000  C
  C202     1.0000 0.12040  0.50585  0.61513  Biso   1.000  C
  C203     1.0000 0.09186  0.34928  0.49571  Biso   1.000  C
  C204     1.0000 0.97226  0.40178  0.66414  Biso   1.000  C
  C205     1.0000 0.13155  0.00025  0.12050  Biso   1.000  C
  C206     1.0000 0.08384  0.15282  0.01117  Biso   1.000  C
  C207     1.0000 0.96822  0.09157  0.16604  Biso   1.000  C
  C208     1.0000 0.63781  0.99452  0.39415  Biso   1.000  C
  C209     1.0000 0.59422  0.14555  0.49253  Biso   1.000  C
  C210     1.0000 0.47743  0.08664  0.33958  Biso   1.000  C
  C211     1.0000 0.34445  0.49439  0.11427  Biso   1.000  C
  C212     1.0000 0.38974  0.64880  0.01952  Biso   1.000  C
  C213     1.0000 0.49540  0.58315  0.16762  Biso   1.000  C
  C214     1.0000 0.83604  0.50472  0.39652  Biso   1.000  C
  C215     1.0000 0.87454  0.64153  0.48471  Biso   1.000  C
  C216     1.0000 0.00012  0.58860  0.34340  Biso   1.000  C
  C217     1.0000 0.09487  0.01915  0.86186  Biso   1.000  C
  C218     1.0000 0.82797  0.09577  0.00404  Biso   1.000  C
  C219     1.0000 0.99603  0.83960  0.09629  Biso   1.000  C
  C220     1.0000 0.60216  0.99954  0.65033  Biso   1.000  C
  C221     1.0000 0.33997  0.11135  0.50931  Biso   1.000  C
  C222     1.0000 0.46246  0.83356  0.40747  Biso   1.000  C
  C223     1.0000 0.36659  0.51434  0.85684  Biso   1.000  C
  C224     1.0000 0.64368  0.59138  0.99103  Biso   1.000  C
  C225     1.0000 0.47432  0.33627  0.08833  Biso   1.000  C
  C226     1.0000 0.86697  0.50492  0.65015  Biso   1.000  C
  C227     1.0000 0.12942  0.60862  0.51373  Biso   1.000  C
  C228     1.0000 0.97949  0.33802  0.41193  Biso   1.000  C
  C229     1.0000 0.87452  0.97667  0.15925  Biso   1.000  C
  C230     1.0000 0.14400  0.89830  0.00346  Biso   1.000  C
  C231     1.0000 0.98643  0.15877  0.91416  Biso   1.000  C
  C232     1.0000 0.37863  0.97816  0.35313  Biso   1.000  C
  C233     1.0000 0.63455  0.89014  0.49711  Biso   1.000  C
  C234     1.0000 0.49247  0.15481  0.58592  Biso   1.000  C
  C235     1.0000 0.60081  0.49316  0.14843  Biso   1.000  C
  C236     1.0000 0.32271  0.39892  0.00158  Biso   1.000  C
  C237     1.0000 0.48633  0.65364  0.91453  Biso   1.000  C
  C238     1.0000 0.09744  0.48874  0.35449  Biso   1.000  C
  C239     1.0000 0.83457  0.38775  0.49197  Biso   1.000  C
  C240     1.0000 0.97691  0.65295  0.59562  Biso   1.000  C
  C241     1.0000 0.57473  0.51174  0.84202  Biso   1.000  C
  C242     1.0000 0.82247  0.58730  0.49100  Biso   1.000  C
  C243     1.0000 0.49292  0.84565  0.61156  Biso   1.000  C
  C244     1.0000 0.06951  0.49949  0.66463  Biso   1.000  C
  C245     1.0000 0.33430  0.59939  0.01681  Biso   1.000  C
  C246     1.0000 0.98129  0.85121  0.89381  Biso   1.000  C
  C247     1.0000 0.89347  0.99828  0.84757  Biso   1.000  C
  C248     1.0000 0.64539  0.09312  0.50035  Biso   1.000  C
  C249     1.0000 0.98929  0.34800  0.61525  Biso   1.000  C
  C250     1.0000 0.39609  0.01327  0.66017  Biso   1.000  C
  C251     1.0000 0.13323  0.10378  0.00783  Biso   1.000  C
  C252     1.0000 0.48269  0.35101  0.88645  Biso   1.000  C
  C253     1.0000 0.39626  0.47769  0.16518  Biso   1.000  C
  C254     1.0000 0.14283  0.40312  0.50902  Biso   1.000  C
  C255     1.0000 0.48154  0.13867  0.38477  Biso   1.000  C
  C256     1.0000 0.89567  0.50614  0.34715  Biso   1.000  C
  C257     1.0000 0.63466  0.38847  0.98406  Biso   1.000  C
  C258     1.0000 0.98166  0.14500  0.11936  Biso   1.000  C
  C259     1.0000 0.07971  0.99420  0.17055  Biso   1.000  C
  C260     1.0000 0.33128  0.90386  0.52192  Biso   1.000  C
  C261     1.0000 0.99315  0.64454  0.39086  Biso   1.000  C
  C262     1.0000 0.58196  0.98751  0.34566  Biso   1.000  C
  C263     1.0000 0.83718  0.89490  0.99060  Biso   1.000  C
  C264     1.0000 0.49989  0.64039  0.11872  Biso   1.000  C
  C265     1.0000 0.98317  0.10765  0.86015  Biso   1.000  C
  C266     1.0000 0.82944  0.97869  0.10036  Biso   1.000  C
  C267     1.0000 0.09525  0.84412  0.99155  Biso   1.000  C
  C268     1.0000 0.49238  0.10366  0.64218  Biso   1.000  C
  C269     1.0000 0.33040  0.98666  0.41090  Biso   1.000  C
  C270     1.0000 0.58223  0.83511  0.50005  Biso   1.000  C
  C271     1.0000 0.47874  0.60752  0.85800  Biso   1.000  C
  C272     1.0000 0.65165  0.49519  0.09475  Biso   1.000  C
  C273     1.0000 0.37393  0.34849  0.98570  Biso   1.000  C
  C274     1.0000 0.98355  0.60676  0.65142  Biso   1.000  C
  C275     1.0000 0.14584  0.50103  0.41074  Biso   1.000  C
  C276     1.0000 0.88964  0.33846  0.50536  Biso   1.000  C
  C277     1.0000 0.99354  0.88879  0.15159  Biso   1.000  C
  C278     1.0000 0.14876  0.01485  0.91416  Biso   1.000  C
  C279     1.0000 0.87924  0.14842  0.01553  Biso   1.000  C
  C280     1.0000 0.47443  0.88251  0.35209  Biso   1.000  C
  C281     1.0000 0.65412  0.99592  0.59600  Biso   1.000  C
  C282     1.0000 0.39182  0.15841  0.49112  Biso   1.000  C
  C283     1.0000 0.49473  0.38202  0.14395  Biso   1.000  C
  C284     1.0000 0.31776  0.50787  0.91339  Biso   1.000  C
  C285     1.0000 0.59411  0.64665  0.00285  Biso   1.000  C
  C286     1.0000 0.97120  0.38951  0.35727  Biso   1.000  C
  C287     1.0000 0.81682  0.48953  0.59849  Biso   1.000  C
  C288     1.0000 0.07872  0.65929  0.50544  Biso   1.000  C
  C289     1.0000 0.32872  0.87222  0.52251  Biso   1.000  C
  C290     1.0000 0.48351  0.35034  0.85522  Biso   1.000  C
  C291     1.0000 0.86405  0.50464  0.34524  Biso   1.000  C
  C292     1.0000 0.83596  0.86287  0.99130  Biso   1.000  C
  C293     1.0000 0.98608  0.34878  0.64738  Biso   1.000  C
  C294     1.0000 0.36621  0.48685  0.16675  Biso   1.000  C
  C295     1.0000 0.14439  0.37282  0.50124  Biso   1.000  C
  C296     1.0000 0.98560  0.85138  0.86080  Biso   1.000  C
  C297     1.0000 0.61315  0.98798  0.34294  Biso   1.000  C
  C298     1.0000 0.63399  0.35764  0.98306  Biso   1.000  C
  C299     1.0000 0.49366  0.84524  0.64350  Biso   1.000  C
  C300     1.0000 0.11063  0.99221  0.17234  Biso   1.000  C
  C301     1.0000 0.64588  0.12388  0.49659  Biso   1.000  C
  C302     1.0000 0.49565  0.63760  0.14935  Biso   1.000  C
  C303     1.0000 0.10011  0.50137  0.66663  Biso   1.000  C
  C304     1.0000 0.13523  0.13503  0.00552  Biso   1.000  C
  C305     1.0000 0.99674  0.64451  0.35976  Biso   1.000  C
  C306     1.0000 0.60666  0.51277  0.83863  Biso   1.000  C
  C307     1.0000 0.82088  0.61864  0.49123  Biso   1.000  C
  C308     1.0000 0.97565  0.14513  0.15009  Biso   1.000  C
  C309     1.0000 0.36436  0.01611  0.66364  Biso   1.000  C
  C310     1.0000 0.33528  0.63046  0.01890  Biso   1.000  C
  C311     1.0000 0.47951  0.13989  0.35398  Biso   1.000  C
  C312     1.0000 0.86123  0.00055  0.84498  Biso   1.000  C
  C313     1.0000 0.14705  0.50216  0.37885  Biso   1.000  C
  C314     1.0000 0.36030  0.16284  0.49603  Biso   1.000  C
  C315     1.0000 0.48857  0.35141  0.14151  Biso   1.000  C
  C316     1.0000 0.65432  0.49508  0.12652  Biso   1.000  C
  C317     1.0000 0.84765  0.14898  0.01498  Biso   1.000  C
  C318     1.0000 0.96986  0.35898  0.35872  Biso   1.000  C
  C319     1.0000 0.32706  0.98139  0.37995  Biso   1.000  C
  C320     1.0000 0.11066  0.66214  0.50487  Biso   1.000  C
  C321     1.0000 0.99756  0.85826  0.14972  Biso   1.000  C
  C322     1.0000 0.82571  0.97243  0.13159  Biso   1.000  C
  C323     1.0000 0.62561  0.64661  0.99657  Biso   1.000  C
  C324     1.0000 0.47234  0.85079  0.35237  Biso   1.000  C
  C325     1.0000 0.81527  0.49975  0.62840  Biso   1.000  C
  C326     1.0000 0.61389  0.83579  0.49866  Biso   1.000  C
  C327     1.0000 0.48083  0.63847  0.86058  Biso   1.000  C
  C328     1.0000 0.31543  0.50835  0.88132  Biso   1.000  C
  C329     1.0000 0.12485  0.84465  0.00006  Biso   1.000  C
  C330     1.0000 0.98316  0.63865  0.64924  Biso   1.000  C
  C331     1.0000 0.65511  0.99890  0.62737  Biso   1.000  C
  C332     1.0000 0.85817  0.33588  0.50364  Biso   1.000  C
  C333     1.0000 0.98584  0.14022  0.85938  Biso   1.000  C
  C334     1.0000 0.14939  0.01723  0.88228  Biso   1.000  C
  C335     1.0000 0.34365  0.34611  0.99084  Biso   1.000  C
  C336     1.0000 0.49113  0.13558  0.64025  Biso   1.000  C
  C337     1.0000 0.63038  0.51104  0.85845  Biso   1.000  C
  C338     1.0000 0.84229  0.64000  0.48737  Biso   1.000  C
  C339     1.0000 0.49552  0.86780  0.66445  Biso   1.000  C
  C340     1.0000 0.12225  0.50478  0.64649  Biso   1.000  C
  C341     1.0000 0.35792  0.65185  0.01930  Biso   1.000  C
  C342     1.0000 0.99124  0.87297  0.84054  Biso   1.000  C
  C343     1.0000 0.83752  0.99955  0.86395  Biso   1.000  C
  C344     1.0000 0.62583  0.14609  0.49350  Biso   1.000  C
  C345     1.0000 0.97887  0.37100  0.66728  Biso   1.000  C
  C346     1.0000 0.34125  0.01801  0.64402  Biso   1.000  C
  C347     1.0000 0.11395  0.15685  0.00583  Biso   1.000  C
  C348     1.0000 0.48219  0.37272  0.83373  Biso   1.000  C
  C349     1.0000 0.34523  0.49371  0.14541  Biso   1.000  C
  C350     1.0000 0.12430  0.35009  0.49675  Biso   1.000  C
  C351     1.0000 0.47735  0.11757  0.33312  Biso   1.000  C
  C352     1.0000 0.83957  0.50437  0.36462  Biso   1.000  C
  C353     1.0000 0.61154  0.33701  0.97972  Biso   1.000  C
  C354     1.0000 0.97094  0.12263  0.16968  Biso   1.000  C
  C355     1.0000 0.13301  0.99369  0.15176  Biso   1.000  C
  C356     1.0000 0.34876  0.84911  0.52613  Biso   1.000  C
  C357     1.0000 0.00023  0.62090  0.34113  Biso   1.000  C
  C358     1.0000 0.63626  0.99135  0.36279  Biso   1.000  C
  C359     1.0000 0.85849  0.84222  0.99131  Biso   1.000  C
  C360     1.0000 0.49368  0.61550  0.17017  Biso   1.000  C
  C361     1.0000 0.98846  0.16103  0.88263  Biso   1.000  C
  C362     1.0000 0.84425  0.97301  0.15580  Biso   1.000  C
  C363     1.0000 0.14470  0.86674  0.00381  Biso   1.000  C
  C364     1.0000 0.49069  0.15545  0.61729  Biso   1.000  C
  C365     1.0000 0.34598  0.97659  0.35601  Biso   1.000  C
  C366     1.0000 0.63597  0.85812  0.49847  Biso   1.000  C
  C367     1.0000 0.48448  0.65775  0.88371  Biso   1.000  C
  C368     1.0000 0.63168  0.49425  0.14844  Biso   1.000  C
  C369     1.0000 0.32313  0.36785  0.99892  Biso   1.000  C
  C370     1.0000 0.98057  0.65729  0.62584  Biso   1.000  C
  C371     1.0000 0.12715  0.49734  0.35497  Biso   1.000  C
  C372     1.0000 0.83533  0.35598  0.49638  Biso   1.000  C
  C373     1.0000 0.99850  0.83796  0.12721  Biso   1.000  C
  C374     1.0000 0.12782  0.01934  0.86104  Biso   1.000  C
  C375     1.0000 0.82697  0.12746  0.00870  Biso   1.000  C
  C376     1.0000 0.46579  0.83134  0.37503  Biso   1.000  C
  C377     1.0000 0.63345  0.99923  0.64934  Biso   1.000  C
  C378     1.0000 0.33907  0.14255  0.50445  Biso   1.000  C
  C379     1.0000 0.47984  0.33228  0.11876  Biso   1.000  C
  C380     1.0000 0.33512  0.51149  0.85767  Biso   1.000  C
  C381     1.0000 0.64558  0.62342  0.99198  Biso   1.000  C
  C382     1.0000 0.97336  0.33647  0.38068  Biso   1.000  C
  C383     1.0000 0.83611  0.50661  0.64991  Biso   1.000  C
  C384     1.0000 0.13046  0.64017  0.50877  Biso   1.000  C
  C385     1.0000 0.16305  0.14994  0.00136  Biso   1.000  C
  C386     1.0000 0.97798  0.16976  0.16883  Biso   1.000  C
  C387     1.0000 0.12376  0.98762  0.19927  Biso   1.000  C
  C388     1.0000 0.67275  0.13887  0.50082  Biso   1.000  C
  C389     1.0000 0.47492  0.16522  0.33691  Biso   1.000  C
  C390     1.0000 0.62681  0.98024  0.31464  Biso   1.000  C
  C391     1.0000 0.30963  0.64822  0.02089  Biso   1.000  C
  C392     1.0000 0.49365  0.66368  0.16735  Biso   1.000  C
  C393     1.0000 0.35144  0.49267  0.19518  Biso   1.000  C
  C394     1.0000 0.79415  0.63352  0.49081  Biso   1.000  C
  C395     1.0000 0.99694  0.67001  0.34227  Biso   1.000  C
  C396     1.0000 0.85141  0.50309  0.31585  Biso   1.000  C
  C397     1.0000 0.80921  0.84626  0.99289  Biso   1.000  C
  C398     1.0000 0.98283  0.82622  0.84256  Biso   1.000  C
  C399     1.0000 0.84680  0.00316  0.81662  Biso   1.000  C
  C400     1.0000 0.30181  0.85808  0.51835  Biso   1.000  C
  C401     1.0000 0.49256  0.81824  0.66061  Biso   1.000  C
  C402     1.0000 0.35010  0.01945  0.69204  Biso   1.000  C
  C403     1.0000 0.66027  0.34118  0.98350  Biso   1.000  C
  C404     1.0000 0.48634  0.32317  0.83934  Biso   1.000  C
  C405     1.0000 0.61971  0.51810  0.81097  Biso   1.000  C
  C406     1.0000 0.17213  0.35828  0.49838  Biso   1.000  C
  C407     1.0000 0.99104  0.32361  0.66527  Biso   1.000  C
  C408     1.0000 0.11535  0.49943  0.69343  Biso   1.000  C
  C409     1.0000 0.14508  0.02542  0.83463  Biso   1.000  C
  C410     1.0000 0.79954  0.14284  0.00718  Biso   1.000  C
  C411     1.0000 0.00150  0.80972  0.14116  Biso   1.000  C
  C412     1.0000 0.64951  0.00193  0.67535  Biso   1.000  C
  C413     1.0000 0.31322  0.15864  0.50558  Biso   1.000  C
  C414     1.0000 0.46579  0.80345  0.35957  Biso   1.000  C
  C415     1.0000 0.31770  0.50899  0.83246  Biso   1.000  C
  C416     1.0000 0.67329  0.63782  0.98779  Biso   1.000  C
  C417     1.0000 0.47331  0.30496  0.13365  Biso   1.000  C
  C418     1.0000 0.81821  0.51617  0.67348  Biso   1.000  C
  C419     1.0000 0.15860  0.65601  0.51184  Biso   1.000  C
  C420     1.0000 0.96961  0.31024  0.36642  Biso   1.000  C
  C421     1.0000 0.82638  0.96460  0.18048  Biso   1.000  C
  C422     1.0000 0.17200  0.85228  0.01049  Biso   1.000  C
  C423     1.0000 0.98910  0.18931  0.86842  Biso   1.000  C
  C424     1.0000 0.32905  0.97259  0.33076  Biso   1.000  C
  C425     1.0000 0.66302  0.84255  0.49791  Biso   1.000  C
  C426     1.0000 0.49115  0.18356  0.63202  Biso   1.000  C
  C427     1.0000 0.64832  0.49748  0.17489  Biso   1.000  C
  C428     1.0000 0.29638  0.35104  0.00409  Biso   1.000  C
  C429     1.0000 0.48479  0.68606  0.87111  Biso   1.000  C
  C430     1.0000 0.14386  0.50039  0.32878  Biso   1.000  C
  C431     1.0000 0.80914  0.33838  0.49771  Biso   1.000  C
  C432     1.0000 0.97844  0.68571  0.64032  Biso   1.000  C
  C433     1.0000 0.98863  0.15726  0.83359  Biso   1.000  C
  C434     1.0000 0.79776  0.96305  0.14320  Biso   1.000  C
  C435     1.0000 0.14212  0.81819  0.00109  Biso   1.000  C
  C436     1.0000 0.48741  0.15311  0.66581  Biso   1.000  C
  C437     1.0000 0.29906  0.98047  0.36596  Biso   1.000  C
  C438     1.0000 0.62935  0.80900  0.49697  Biso   1.000  C
  C439     1.0000 0.47949  0.65637  0.83551  Biso   1.000  C
  C440     1.0000 0.68057  0.49973  0.14151  Biso   1.000  C
  C441     1.0000 0.32732  0.31898  0.99045  Biso   1.000  C
  C442     1.0000 0.98550  0.65666  0.67402  Biso   1.000  C
  C443     1.0000 0.17374  0.50708  0.36278  Biso   1.000  C
  C444     1.0000 0.84327  0.30822  0.50475  Biso   1.000  C
  C445     1.0000 0.00021  0.84095  0.17535  Biso   1.000  C
  C446     1.0000 0.17597  0.02032  0.86603  Biso   1.000  C
  C447     1.0000 0.83173  0.17530  0.01802  Biso   1.000  C
  C448     1.0000 0.47581  0.83372  0.32654  Biso   1.000  C
  C449     1.0000 0.68237  0.99782  0.64219  Biso   1.000  C
  C450     1.0000 0.34421  0.19037  0.49411  Biso   1.000  C
  C451     1.0000 0.48975  0.33320  0.16784  Biso   1.000  C
  C452     1.0000 0.28770  0.50484  0.86745  Biso   1.000  C
  C453     1.0000 0.64133  0.67271  0.99198  Biso   1.000  C
  C454     1.0000 0.96584  0.34092  0.33205  Biso   1.000  C
  C455     1.0000 0.78747  0.50513  0.64215  Biso   1.000  C
  C456     1.0000 0.12564  0.68909  0.50529  Biso   1.000  C
  C457     1.0000 0.00090  0.63324  0.31297  Biso   1.000  C
  C458     1.0000 0.31620  0.02039  0.66284  Biso   1.000  C
  C459     1.0000 0.62652  0.30902  0.97818  Biso   1.000  C
  C460     1.0000 0.49293  0.63075  0.19756  Biso   1.000  C
  C461     1.0000 0.81212  0.99971  0.84708  Biso   1.000  C
  C462     1.0000 0.14185  0.32323  0.49106  Biso   1.000  C
  C463     1.0000 0.47783  0.13135  0.30495  Biso   1.000  C
  C464     1.0000 0.14854  0.50598  0.66244  Biso   1.000  C
  C465     1.0000 0.84455  0.81428  0.99153  Biso   1.000  C
  C466     1.0000 0.97014  0.13472  0.19894  Biso   1.000  C
  C467     1.0000 0.65635  0.51557  0.84125  Biso   1.000  C
  C468     1.0000 0.33134  0.82268  0.52344  Biso   1.000  C
  C469     1.0000 0.97845  0.35700  0.69527  Biso   1.000  C
  C470     1.0000 0.66337  0.98752  0.34535  Biso   1.000  C
  C471     1.0000 0.34362  0.67820  0.02078  Biso   1.000  C
  C472     1.0000 0.48343  0.35746  0.80616  Biso   1.000  C
  C473     1.0000 0.15887  0.99235  0.16875  Biso   1.000  C
  C474     1.0000 0.82613  0.66757  0.48708  Biso   1.000  C
  C475     1.0000 0.49487  0.85326  0.69197  Biso   1.000  C
  C476     1.0000 0.81425  0.50337  0.34660  Biso   1.000  C
  C477     1.0000 0.13053  0.18315  0.00299  Biso   1.000  C
  C478     1.0000 0.99082  0.85923  0.81159  Biso   1.000  C
  C479     1.0000 0.31982  0.50268  0.16154  Biso   1.000  C
  C480     1.0000 0.64077  0.17337  0.49742  Biso   1.000  C
  C481     1.0000 0.34497  0.79453  0.52608  Biso   1.000  C
  C482     1.0000 0.47863  0.37471  0.77915  Biso   1.000  C
  C483     1.0000 0.78528  0.50119  0.35973  Biso   1.000  C
  C484     1.0000 0.86100  0.78648  0.98918  Biso   1.000  C
  C485     1.0000 0.96928  0.37250  0.72069  Biso   1.000  C
  C486     1.0000 0.29392  0.51775  0.14832  Biso   1.000  C
  C487     1.0000 0.12707  0.29574  0.48796  Biso   1.000  C
  C488     1.0000 0.99348  0.87879  0.78662  Biso   1.000  C
  C489     1.0000 0.69100  0.98942  0.35933  Biso   1.000  C
  C490     1.0000 0.60892  0.28181  0.97844  Biso   1.000  C
  C491     1.0000 0.49093  0.87124  0.71926  Biso   1.000  C
  C492     1.0000 0.18597  0.99978  0.15496  Biso   1.000  C
  C493     1.0000 0.62459  0.20033  0.49776  Biso   1.000  C
  C494     1.0000 0.49445  0.61385  0.22481  Biso   1.000  C
  C495     1.0000 0.17527  0.51077  0.64608  Biso   1.000  C
  C496     1.0000 0.11445  0.21111  0.00701  Biso   1.000  C
  C497     1.0000 0.00374  0.61704  0.28568  Biso   1.000  C
  C498     1.0000 0.68321  0.51200  0.85591  Biso   1.000  C
  C499     1.0000 0.84204  0.69563  0.48453  Biso   1.000  C
  C500     1.0000 0.96462  0.11649  0.22340  Biso   1.000  C
  C501     1.0000 0.28788  0.02203  0.64977  Biso   1.000  C
  C502     1.0000 0.36247  0.70458  0.02204  Biso   1.000  C
  C503     1.0000 0.47830  0.11298  0.27948  Biso   1.000  C
  C504     1.0000 0.78325  0.99682  0.86206  Biso   1.000  C
  C505     1.0000 0.60205  0.52506  0.78650  Biso   1.000  C
  C506     1.0000 0.76586  0.61877  0.48911  Biso   1.000  C
  C507     1.0000 0.49078  0.79165  0.64386  Biso   1.000  C
  C508     1.0000 0.09864  0.49621  0.72079  Biso   1.000  C
  C509     1.0000 0.28206  0.63330  0.02547  Biso   1.000  C
  C510     1.0000 0.97719  0.79826  0.85690  Biso   1.000  C
  C511     1.0000 0.86477  0.00713  0.79116  Biso   1.000  C
  C512     1.0000 0.69980  0.12358  0.50363  Biso   1.000  C
  C513     1.0000 0.00147  0.29639  0.65097  Biso   1.000  C
  C514     1.0000 0.36908  0.01778  0.71863  Biso   1.000  C
  C515     1.0000 0.19016  0.13538  0.00008  Biso   1.000  C
  C516     1.0000 0.48840  0.29591  0.85585  Biso   1.000  C
  C517     1.0000 0.36723  0.48662  0.22108  Biso   1.000  C
  C518     1.0000 0.19901  0.37475  0.50446  Biso   1.000  C
  C519     1.0000 0.47564  0.19365  0.35185  Biso   1.000  C
  C520     1.0000 0.86923  0.50425  0.29065  Biso   1.000  C
  C521     1.0000 0.68753  0.35592  0.98328  Biso   1.000  C
  C522     1.0000 0.98464  0.19865  0.15662  Biso   1.000  C
  C523     1.0000 0.10487  0.98327  0.22550  Biso   1.000  C
  C524     1.0000 0.27487  0.87732  0.51552  Biso   1.000  C
  C525     1.0000 0.99253  0.69833  0.35506  Biso   1.000  C
  C526     1.0000 0.61011  0.97244  0.28852  Biso   1.000  C
  C527     1.0000 0.78105  0.86245  0.99453  Biso   1.000  C
  C528     1.0000 0.49289  0.69322  0.15365  Biso   1.000  C
  C529     1.0000 0.77312  0.12604  0.00163  Biso   1.000  C
  C530     1.0000 0.00351  0.78234  0.12402  Biso   1.000  C
  C531     1.0000 0.13032  0.03196  0.80783  Biso   1.000  C
  C532     1.0000 0.28741  0.14417  0.51590  Biso   1.000  C
  C533     1.0000 0.46033  0.77703  0.37727  Biso   1.000  C
  C534     1.0000 0.63438  0.00755  0.70275  Biso   1.000  C
  C535     1.0000 0.69963  0.62221  0.98183  Biso   1.000  C
  C536     1.0000 0.46037  0.28182  0.11706  Biso   1.000  C
  C537     1.0000 0.33457  0.50852  0.80423  Biso   1.000  C
  C538     1.0000 0.18527  0.64012  0.51536  Biso   1.000  C
  C539     1.0000 0.97333  0.28337  0.38244  Biso   1.000  C
  C540     1.0000 0.83293  0.52623  0.70005  Biso   1.000  C
  C541     1.0000 0.19630  0.87029  0.02005  Biso   1.000  C
  C542     1.0000 0.98979  0.21532  0.88624  Biso   1.000  C
  C543     1.0000 0.84016  0.96274  0.20836  Biso   1.000  C
  C544     1.0000 0.69052  0.85875  0.49739  Biso   1.000  C
  C545     1.0000 0.49108  0.21022  0.61586  Biso   1.000  C
  C546     1.0000 0.34303  0.96822  0.30183  Biso   1.000  C
  C547     1.0000 0.26979  0.36634  0.01354  Biso   1.000  C
  C548     1.0000 0.48904  0.71158  0.88828  Biso   1.000  C
  C549     1.0000 0.63226  0.49952  0.20256  Biso   1.000  C
  C550     1.0000 0.78191  0.35175  0.49186  Biso   1.000  C
  C551     1.0000 0.97177  0.71091  0.62185  Biso   1.000  C
  C552     1.0000 0.12925  0.49639  0.30033  Biso   1.000  C
  C553     1.0000 0.98768  0.14165  0.80592  Biso   1.000  C
  C554     1.0000 0.77372  0.95507  0.12364  Biso   1.000  C
  C555     1.0000 0.12740  0.78954  0.99153  Biso   1.000  C
  C556     1.0000 0.48790  0.13912  0.69468  Biso   1.000  C
  C557     1.0000 0.27309  0.99176  0.38107  Biso   1.000  C
  C558     1.0000 0.61316  0.78104  0.49891  Biso   1.000  C
  C559     1.0000 0.47875  0.64401  0.80691  Biso   1.000  C
  C560     1.0000 0.70697  0.50092  0.12163  Biso   1.000  C
  C561     1.0000 0.34512  0.29349  0.98135  Biso   1.000  C
  C562     1.0000 0.99288  0.64365  0.70284  Biso   1.000  C
  C563     1.0000 0.19988  0.51036  0.38025  Biso   1.000  C
  C564     1.0000 0.85986  0.28137  0.50847  Biso   1.000  C
  C565     1.0000 0.00019  0.85576  0.20440  Biso   1.000  C
  C566     1.0000 0.20258  0.01993  0.88179  Biso   1.000  C
  C567     1.0000 0.84725  0.20220  0.02306  Biso   1.000  C
  C568     1.0000 0.48186  0.84747  0.29853  Biso   1.000  C
  C569     1.0000 0.70864  0.99152  0.62631  Biso   1.000  C
  C570     1.0000 0.36192  0.21606  0.48668  Biso   1.000  C
  C571     1.0000 0.50105  0.34619  0.19524  Biso   1.000  C
  C572     1.0000 0.26068  0.50181  0.88472  Biso   1.000  C
  C573     1.0000 0.62523  0.70034  0.99368  Biso   1.000  C
  C574     1.0000 0.96177  0.35528  0.30384  Biso   1.000  C
  C575     1.0000 0.76065  0.50107  0.62614  Biso   1.000  C
  C576     1.0000 0.10878  0.71611  0.50726  Biso   1.000  C
  C577     1.0000 0.29327  0.51740  0.11675  Biso   1.000  C
  C578     1.0000 0.09385  0.29597  0.48650  Biso   1.000  C
  C579     1.0000 0.47552  0.08185  0.28433  Biso   1.000  C
  C580     1.0000 0.78156  0.49995  0.39119  Biso   1.000  C
  C581     1.0000 0.57712  0.28422  0.98029  Biso   1.000  C
  C582     1.0000 0.96131  0.08512  0.21942  Biso   1.000  C
  C583     1.0000 0.18626  0.00220  0.12415  Biso   1.000  C
  C584     1.0000 0.37619  0.79234  0.52854  Biso   1.000  C
  C585     1.0000 0.00708  0.58631  0.28768  Biso   1.000  C
  C586     1.0000 0.69251  0.99212  0.39095  Biso   1.000  C
  C587     1.0000 0.89260  0.78970  0.98967  Biso   1.000  C
  C588     1.0000 0.49454  0.58236  0.22270  Biso   1.000  C
  C589     1.0000 0.68358  0.50496  0.88707  Biso   1.000  C
  C590     1.0000 0.87313  0.69532  0.48088  Biso   1.000  C
  C591     1.0000 0.49045  0.90303  0.71829  Biso   1.000  C
  C592     1.0000 0.17659  0.51137  0.61421  Biso   1.000  C
  C593     1.0000 0.39385  0.70337  0.02365  Biso   1.000  C
  C594     1.0000 0.99553  0.90962  0.78951  Biso   1.000  C
  C595     1.0000 0.78217  0.99420  0.89344  Biso   1.000  C
  C596     1.0000 0.59443  0.20105  0.49167  Biso   1.000  C
  C597     1.0000 0.96597  0.40381  0.72039  Biso   1.000  C
  C598     1.0000 0.28486  0.02063  0.61748  Biso   1.000  C
  C599     1.0000 0.08342  0.20933  0.01099  Biso   1.000  C
  C600     1.0000 0.47124  0.40562  0.78253  Biso   1.000  C
  C601     1.0000 0.20375  0.01284  0.91355  Biso   1.000  C
  C602     1.0000 0.87821  0.20294  0.02551  Biso   1.000  C
  C603     1.0000 0.00061  0.88647  0.20634  Biso   1.000  C
  C604     1.0000 0.70689  0.98860  0.59498  Biso   1.000  C
  C605     1.0000 0.39411  0.21345  0.48259  Biso   1.000  C
  C606     1.0000 0.48414  0.87953  0.29771  Biso   1.000  C
  C607     1.0000 0.26272  0.50079  0.91487  Biso   1.000  C
  C608     1.0000 0.59469  0.70085  0.99940  Biso   1.000  C
  C609     1.0000 0.50912  0.37715  0.19781  Biso   1.000  C
  C610     1.0000 0.76341  0.49101  0.59623  Biso   1.000  C
  C611     1.0000 0.07733  0.71252  0.50480  Biso   1.000  C
  C612     1.0000 0.96566  0.38588  0.30237  Biso   1.000  C
  C613     1.0000 0.77773  0.96278  0.09295  Biso   1.000  C
  C614     1.0000 0.09760  0.78953  0.98288  Biso   1.000  C
  C615     1.0000 0.98396  0.11050  0.80516  Biso   1.000  C
  C616     1.0000 0.27729  0.99806  0.41169  Biso   1.000  C
  C617     1.0000 0.58030  0.78121  0.50141  Biso   1.000  C
  C618     1.0000 0.48960  0.10828  0.69617  Biso   1.000  C
  C619     1.0000 0.70589  0.49475  0.09111  Biso   1.000  C
  C620     1.0000 0.37602  0.29449  0.97704  Biso   1.000  C
  C621     1.0000 0.47099  0.61195  0.80452  Biso   1.000  C
  C622     1.0000 0.19864  0.50879  0.41217  Biso   1.000  C
  C623     1.0000 0.89039  0.28289  0.51324  Biso   1.000  C
  C624     1.0000 0.99038  0.61206  0.70588  Biso   1.000  C
  C625     1.0000 0.98762  0.21344  0.91762  Biso   1.000  C
  C626     1.0000 0.87298  0.96514  0.21129  Biso   1.000  C
  C627     1.0000 0.19584  0.90062  0.02002  Biso   1.000  C
  C628     1.0000 0.49159  0.20998  0.58533  Biso   1.000  C
  C629     1.0000 0.37445  0.97119  0.29776  Biso   1.000  C
  C630     1.0000 0.69091  0.88944  0.49973  Biso   1.000  C
  C631     1.0000 0.49524  0.70723  0.91878  Biso   1.000  C
  C632     1.0000 0.60000  0.49800  0.20417  Biso   1.000  C
  C633     1.0000 0.27058  0.39812  0.01681  Biso   1.000  C
  C634     1.0000 0.97009  0.70645  0.59031  Biso   1.000  C
  C635     1.0000 0.09860  0.48738  0.30072  Biso   1.000  C
  C636     1.0000 0.78056  0.38318  0.48714  Biso   1.000  C
  C637     1.0000 0.99824  0.78500  0.09407  Biso   1.000  C
  C638     1.0000 0.09930  0.03302  0.80724  Biso   1.000  C
  C639     1.0000 0.77447  0.09497  0.99686  Biso   1.000  C
  C640     1.0000 0.45416  0.77909  0.40891  Biso   1.000  C
  C641     1.0000 0.60294  0.00710  0.70361  Biso   1.000  C
  C642     1.0000 0.28718  0.11279  0.51922  Biso   1.000  C
  C643     1.0000 0.45522  0.28531  0.08631  Biso   1.000  C
  C644     1.0000 0.36496  0.51191  0.80342  Biso   1.000  C
  C645     1.0000 0.69828  0.59074  0.98032  Biso   1.000  C
  C646     1.0000 0.98073  0.28373  0.41254  Biso   1.000  C
  C647     1.0000 0.86495  0.52584  0.70171  Biso   1.000  C
  C648     1.0000 0.18398  0.60814  0.51784  Biso   1.000  C
  C649     1.0000 0.98731  0.70020  0.38616  Biso   1.000  C
  C650     1.0000 0.40029  0.01294  0.71542  Biso   1.000  C
  C651     1.0000 0.68873  0.38732  0.98512  Biso   1.000  C
  C652     1.0000 0.49479  0.69502  0.12178  Biso   1.000  C
  C653     1.0000 0.89644  0.00729  0.79370  Biso   1.000  C
  C654     1.0000 0.19700  0.40479  0.51202  Biso   1.000  C
  C655     1.0000 0.47967  0.19474  0.38266  Biso   1.000  C
  C656     1.0000 0.06659  0.49460  0.72002  Biso   1.000  C
  C657     1.0000 0.78191  0.89365  0.99402  Biso   1.000  C
  C658     1.0000 0.98765  0.20082  0.12575  Biso   1.000  C
  C659     1.0000 0.56993  0.52166  0.78845  Biso   1.000  C
  C660     1.0000 0.27824  0.90845  0.51241  Biso   1.000  C
  C661     1.0000 0.00352  0.29548  0.61936  Biso   1.000  C
  C662     1.0000 0.57842  0.97398  0.29129  Biso   1.000  C
  C663     1.0000 0.28026  0.60331  0.02469  Biso   1.000  C
  C664     1.0000 0.48821  0.29702  0.88624  Biso   1.000  C
  C665     1.0000 0.07390  0.98656  0.22462  Biso   1.000  C
  C666     1.0000 0.76551  0.58648  0.48991  Biso   1.000  C
  C667     1.0000 0.49020  0.79199  0.61246  Biso   1.000  C
  C668     1.0000 0.90039  0.50369  0.29174  Biso   1.000  C
  C669     1.0000 0.18945  0.10439  0.00522  Biso   1.000  C
  C670     1.0000 0.97538  0.79660  0.88923  Biso   1.000  C
  C671     1.0000 0.39784  0.47876  0.21961  Biso   1.000  C
  C672     1.0000 0.69973  0.09253  0.50466  Biso   1.000  C
  C673     1.0000 0.19151  0.02558  0.81934  Biso   1.000  C
  C674     1.0000 0.78563  0.18842  0.00992  Biso   1.000  C
  C675     1.0000 0.00399  0.79352  0.18633  Biso   1.000  C
  C676     1.0000 0.69770  0.00222  0.68707  Biso   1.000  C
  C677     1.0000 0.29799  0.20469  0.50145  Biso   1.000  C
  C678     1.0000 0.47612  0.78679  0.31603  Biso   1.000  C
  C679     1.0000 0.27106  0.50353  0.81899  Biso   1.000  C
  C680     1.0000 0.68996  0.68465  0.98656  Biso   1.000  C
  C681     1.0000 0.48088  0.28836  0.18023  Biso   1.000  C
  C682     1.0000 0.77200  0.52048  0.68588  Biso   1.000  C
  C683     1.0000 0.17000  0.70543  0.50829  Biso   1.000  C
  C684     1.0000 0.96816  0.29343  0.32130  Biso   1.000  C
  C685     1.0000 0.78026  0.95503  0.18901  Biso   1.000  C
  C686     1.0000 0.18829  0.80441  0.01192  Biso   1.000  C
  C687     1.0000 0.98925  0.20480  0.82294  Biso   1.000  C
  C688     1.0000 0.28238  0.97650  0.31877  Biso   1.000  C
  C689     1.0000 0.67628  0.79485  0.49590  Biso   1.000  C
  C690     1.0000 0.48467  0.20044  0.67872  Biso   1.000  C
  C691     1.0000 0.69555  0.50231  0.18799  Biso   1.000  C
  C692     1.0000 0.28100  0.30557  0.99710  Biso   1.000  C
  C693     1.0000 0.48155  0.70378  0.82407  Biso   1.000  C
  C694     1.0000 0.19194  0.50721  0.31586  Biso   1.000  C
  C695     1.0000 0.79579  0.29109  0.50496  Biso   1.000  C
  C696     1.0000 0.98200  0.70412  0.68626  Biso   1.000  C
  C697     1.0000 0.67030  0.97350  0.29843  Biso   1.000  C
  C698     1.0000 0.29630  0.69548  0.02227  Biso   1.000  C
  C699     1.0000 0.98921  0.31271  0.71420  Biso   1.000  C
  C700     1.0000 0.17196  0.98599  0.21437  Biso   1.000  C
  C701     1.0000 0.77945  0.68020  0.49021  Biso   1.000  C
  C702     1.0000 0.48855  0.31180  0.79073  Biso   1.000  C
  C703     1.0000 0.80425  0.50273  0.29962  Biso   1.000  C
  C704     1.0000 0.17594  0.19817  0.99927  Biso   1.000  C
  C705     1.0000 0.49422  0.80710  0.70924  Biso   1.000  C
  C706     1.0000 0.30585  0.50389  0.20925  Biso   1.000  C
  C707     1.0000 0.68681  0.18551  0.50360  Biso   1.000  C
  C708     1.0000 0.98102  0.81469  0.79471  Biso   1.000  C
  C709     1.0000 0.30384  0.02230  0.71002  Biso   1.000  C
  C710     1.0000 0.67301  0.29512  0.98685  Biso   1.000  C
  C711     1.0000 0.00246  0.68078  0.29489  Biso   1.000  C
  C712     1.0000 0.80082  0.99956  0.79942  Biso   1.000  C
  C713     1.0000 0.18893  0.31372  0.49366  Biso   1.000  C
  C714     1.0000 0.48686  0.67710  0.21527  Biso   1.000  C
  C715     1.0000 0.16203  0.50309  0.70948  Biso   1.000  C
  C716     1.0000 0.79763  0.79870  0.98916  Biso   1.000  C
  C717     1.0000 0.47054  0.17834  0.29078  Biso   1.000  C
  C718     1.0000 0.66495  0.52831  0.79412  Biso   1.000  C
  C719     1.0000 0.28414  0.81179  0.51538  Biso   1.000  C
  C720     1.0000 0.97041  0.18087  0.21665  Biso   1.000  C
  C721     1.0000 0.50356  0.78198  0.30201  Biso   1.000  C
  C722     1.0000 0.27456  0.52072  0.79120  Biso   1.000  C
  C723     1.0000 0.76616  0.29659  0.51863  Biso   1.000  C
  C724     1.0000 0.98925  0.76594  0.18326  Biso   1.000  C
  C725     1.0000 0.74602  0.53611  0.67910  Biso   1.000  C
  C726     1.0000 0.25215  0.31274  0.98715  Biso   1.000  C
  C727     1.0000 0.95007  0.26706  0.32683  Biso   1.000  C
  C728     1.0000 0.21718  0.04510  0.82298  Biso   1.000  C
  C729     1.0000 0.70328  0.79622  0.51256  Biso   1.000  C
  C730     1.0000 0.46947  0.29662  0.20951  Biso   1.000  C
  C731     1.0000 0.69276  0.98875  0.71481  Biso   1.000  C
  C732     1.0000 0.21959  0.80856  0.00304  Biso   1.000  C
  C733     1.0000 0.46834  0.19898  0.70649  Biso   1.000  C
  C734     1.0000 0.69432  0.48452  0.21345  Biso   1.000  C
  C735     1.0000 0.16829  0.73143  0.49034  Biso   1.000  C
  C736     1.0000 0.97379  0.23252  0.82766  Biso   1.000  C
  C737     1.0000 0.22125  0.49360  0.32262  Biso   1.000  C
  C738     1.0000 0.71604  0.68083  0.00210  Biso   1.000  C
  C739     1.0000 0.97094  0.69920  0.71589  Biso   1.000  C
  C740     1.0000 0.78031  0.93772  0.21494  Biso   1.000  C
  C741     1.0000 0.27054  0.19823  0.48619  Biso   1.000  C
  C742     1.0000 0.46247  0.70307  0.79963  Biso   1.000  C
  C743     1.0000 0.25350  0.96478  0.32710  Biso   1.000  C
  C744     1.0000 0.78267  0.21363  0.03036  Biso   1.000  C
  C745     1.0000 0.01937  0.70720  0.29712  Biso   1.000  C
  C746     1.0000 0.27781  0.00543  0.70789  Biso   1.000  C
  C747     1.0000 0.69820  0.30057  0.00669  Biso   1.000  C
  C748     1.0000 0.50588  0.70176  0.21367  Biso   1.000  C
  C749     1.0000 0.80907  0.98714  0.77190  Biso   1.000  C
  C750     1.0000 0.21026  0.31351  0.51634  Biso   1.000  C
  C751     1.0000 0.49035  0.17722  0.26557  Biso   1.000  C
  C752     1.0000 0.19048  0.48877  0.70600  Biso   1.000  C
  C753     1.0000 0.77009  0.80167  0.97338  Biso   1.000  C
  C754     1.0000 0.98234  0.17532  0.24466  Biso   1.000  C
  C755     1.0000 0.66148  0.51910  0.76311  Biso   1.000  C
  C756     1.0000 0.25232  0.81576  0.52912  Biso   1.000  C
  C757     1.0000 0.97977  0.28218  0.71140  Biso   1.000  C
  C758     1.0000 0.66837  0.98809  0.27076  Biso   1.000  C
  C759     1.0000 0.26886  0.69264  0.00831  Biso   1.000  C
  C760     1.0000 0.50354  0.31648  0.76299  Biso   1.000  C
  C761     1.0000 0.19916  0.97153  0.20778  Biso   1.000  C
  C762     1.0000 0.78251  0.70726  0.47157  Biso   1.000  C
  C763     1.0000 0.51046  0.81075  0.73653  Biso   1.000  C
  C764     1.0000 0.77983  0.48145  0.29880  Biso   1.000  C
  C765     1.0000 0.20187  0.19637  0.01610  Biso   1.000  C
  C766     1.0000 0.00221  0.81603  0.77017  Biso   1.000  C
  C767     1.0000 0.31253  0.51832  0.23707  Biso   1.000  C
  C768     1.0000 0.68603  0.21160  0.48579  Biso   1.000  C
  C769     1.0000 0.50169  0.72882  0.82625  Biso   1.000  C
  C770     1.0000 0.77621  0.51169  0.71571  Biso   1.000  C
  C771     1.0000 0.67054  0.76669  0.48110  Biso   1.000  C
  C772     1.0000 0.99533  0.73195  0.67982  Biso   1.000  C
  C773     1.0000 0.24439  0.48570  0.82251  Biso   1.000  C
  C774     1.0000 0.18199  0.77671  0.02477  Biso   1.000  C
  C775     1.0000 0.00816  0.20153  0.79708  Biso   1.000  C
  C776     1.0000 0.72603  0.01549  0.68098  Biso   1.000  C
  C777     1.0000 0.80198  0.26120  0.49646  Biso   1.000  C
  C778     1.0000 0.50170  0.22748  0.67604  Biso   1.000  C
  C779     1.0000 0.19066  0.00972  0.79147  Biso   1.000  C
  C780     1.0000 0.28647  0.27572  0.00495  Biso   1.000  C
  C781     1.0000 0.48841  0.25763  0.17496  Biso   1.000  C
  C782     1.0000 0.18947  0.52107  0.28826  Biso   1.000  C
  C783     1.0000 0.30288  0.23388  0.51368  Biso   1.000  C
  C784     1.0000 0.98535  0.29435  0.29493  Biso   1.000  C
  C785     1.0000 0.72043  0.52206  0.18459  Biso   1.000  C
  C786     1.0000 0.76446  0.18660  0.98635  Biso   1.000  C
  C787     1.0000 0.01990  0.79654  0.21471  Biso   1.000  C
  C788     1.0000 0.28657  0.98728  0.28827  Biso   1.000  C
  C789     1.0000 0.19493  0.70383  0.52686  Biso   1.000  C
  C790     1.0000 0.45090  0.76796  0.31212  Biso   1.000  C
  C791     1.0000 0.75239  0.96973  0.18165  Biso   1.000  C
  C792     1.0000 0.68512  0.71320  0.97312  Biso   1.000  C
  C793     1.0000 0.45153  0.20408  0.29306  Biso   1.000  C
  C794     1.0000 0.27597  0.49246  0.20749  Biso   1.000  C
  C795     1.0000 0.19139  0.28896  0.47256  Biso   1.000  C
  C796     1.0000 0.95485  0.20738  0.21233  Biso   1.000  C
  C797     1.0000 0.80522  0.52460  0.27609  Biso   1.000  C
  C798     1.0000 0.67233  0.26586  0.97282  Biso   1.000  C
  C799     1.0000 0.98365  0.67825  0.26836  Biso   1.000  C
  C800     1.0000 0.16683  0.99597  0.24391  Biso   1.000  C
  C801     1.0000 0.28819  0.78526  0.49754  Biso   1.000  C
  C802     1.0000 0.46749  0.67170  0.23974  Biso   1.000  C
  C803     1.0000 0.69512  0.95493  0.30232  Biso   1.000  C
  C804     1.0000 0.80326  0.77129  0.00321  Biso   1.000  C
  C805     1.0000 0.47630  0.78098  0.70585  Biso   1.000  C
  C806     1.0000 0.69135  0.54529  0.80036  Biso   1.000  C
  C807     1.0000 0.75304  0.67773  0.50904  Biso   1.000  C
  C808     1.0000 0.96014  0.79033  0.79648  Biso   1.000  C
  C809     1.0000 0.15799  0.51807  0.73724  Biso   1.000  C
  C810     1.0000 0.30121  0.72318  0.03668  Biso   1.000  C
  C811     1.0000 0.00147  0.32122  0.74232  Biso   1.000  C
  C812     1.0000 0.77152  0.01511  0.80161  Biso   1.000  C
  C813     1.0000 0.71067  0.17996  0.52341  Biso   1.000  C
  C814     1.0000 0.47237  0.28519  0.79417  Biso   1.000  C
  C815     1.0000 0.30702  0.03977  0.73593  Biso   1.000  C
  C816     1.0000 0.17089  0.22139  0.97887  Biso   1.000  C
  C817     1.0000 0.97631  0.25493  0.80707  Biso   1.000  C
  C818     1.0000 0.75879  0.94006  0.23626  Biso   1.000  C
  C819     1.0000 0.24050  0.78905  0.01040  Biso   1.000  C
  C820     1.0000 0.46852  0.22173  0.72665  Biso   1.000  C
  C821     1.0000 0.23231  0.96540  0.30579  Biso   1.000  C
  C822     1.0000 0.72383  0.77409  0.51112  Biso   1.000  C
  C823     1.0000 0.46616  0.72365  0.77753  Biso   1.000  C
  C824     1.0000 0.71281  0.48496  0.23610  Biso   1.000  C
  C825     1.0000 0.22981  0.29230  0.98680  Biso   1.000  C
  C826     1.0000 0.97254  0.72048  0.73757  Biso   1.000  C
  C827     1.0000 0.24530  0.49861  0.30249  Biso   1.000  C
  C828     1.0000 0.74619  0.27369  0.52075  Biso   1.000  C
  C829     1.0000 0.99022  0.74344  0.20391  Biso   1.000  C
  C830     1.0000 0.23803  0.04569  0.79886  Biso   1.000  C
  C831     1.0000 0.75845  0.23165  0.02930  Biso   1.000  C
  C832     1.0000 0.50542  0.75586  0.28658  Biso   1.000  C
  C833     1.0000 0.71464  0.98858  0.73503  Biso   1.000  C
  C834     1.0000 0.24777  0.21765  0.48787  Biso   1.000  C
  C835     1.0000 0.46793  0.27488  0.23126  Biso   1.000  C
  C836     1.0000 0.25317  0.51734  0.76971  Biso   1.000  C
  C837     1.0000 0.73772  0.70205  0.00153  Biso   1.000  C
  C838     1.0000 0.95213  0.24449  0.30744  Biso   1.000  C
  C839     1.0000 0.72649  0.54451  0.70122  Biso   1.000  C
  C840     1.0000 0.19074  0.75280  0.49103  Biso   1.000  C
  C841     1.0000 0.21303  0.01069  0.77186  Biso   1.000  C
  C842     1.0000 0.74299  0.20751  0.98549  Biso   1.000  C
  C843     1.0000 0.01929  0.77370  0.23486  Biso   1.000  C
  C844     1.0000 0.74587  0.01865  0.70291  Biso   1.000  C
  C845     1.0000 0.27932  0.25301  0.50990  Biso   1.000  C
  C846     1.0000 0.45342  0.74551  0.29191  Biso   1.000  C
  C847     1.0000 0.22500  0.48475  0.80015  Biso   1.000  C
  C848     1.0000 0.70649  0.73403  0.97557  Biso   1.000  C
  C849     1.0000 0.48445  0.23761  0.19671  Biso   1.000  C
  C850     1.0000 0.75526  0.51876  0.73684  Biso   1.000  C
  C851     1.0000 0.21652  0.72490  0.52567  Biso   1.000  C
  C852     1.0000 0.98482  0.26992  0.27547  Biso   1.000  C
  C853     1.0000 0.72995  0.97042  0.20244  Biso   1.000  C
  C854     1.0000 0.20370  0.75669  0.03201  Biso   1.000  C
  C855     1.0000 0.01191  0.22433  0.77753  Biso   1.000  C
  C856     1.0000 0.26536  0.98370  0.26778  Biso   1.000  C
  C857     1.0000 0.69077  0.74399  0.48043  Biso   1.000  C
  C858     1.0000 0.49998  0.25117  0.69667  Biso   1.000  C
  C859     1.0000 0.74095  0.52162  0.20758  Biso   1.000  C
  C860     1.0000 0.26503  0.25648  0.00422  Biso   1.000  C
  C861     1.0000 0.50240  0.74899  0.80426  Biso   1.000  C
  C862     1.0000 0.21383  0.52393  0.27020  Biso   1.000  C
  C863     1.0000 0.78087  0.24055  0.49989  Biso   1.000  C
  C864     1.0000 0.99349  0.75371  0.70137  Biso   1.000  C
  C865     1.0000 0.68288  0.52689  0.74256  Biso   1.000  C
  C866     1.0000 0.76204  0.72988  0.47359  Biso   1.000  C
  C867     1.0000 0.50636  0.79102  0.75928  Biso   1.000  C
  C868     1.0000 0.21125  0.48902  0.72758  Biso   1.000  C
  C869     1.0000 0.24823  0.71583  0.00893  Biso   1.000  C
  C870     1.0000 0.99992  0.79504  0.74928  Biso   1.000  C
  C871     1.0000 0.78969  0.98785  0.74801  Biso   1.000  C
  C872     1.0000 0.70771  0.23159  0.49110  Biso   1.000  C
  C873     1.0000 0.98290  0.26211  0.73335  Biso   1.000  C
  C874     1.0000 0.25666  0.00716  0.73001  Biso   1.000  C
  C875     1.0000 0.22073  0.21870  0.01612  Biso   1.000  C
  C876     1.0000 0.50134  0.29465  0.74103  Biso   1.000  C
  C877     1.0000 0.29108  0.52176  0.25894  Biso   1.000  C
  C878     1.0000 0.23117  0.29051  0.51838  Biso   1.000  C
  C879     1.0000 0.48769  0.19825  0.24386  Biso   1.000  C
  C880     1.0000 0.75914  0.48121  0.27598  Biso   1.000  C
  C881     1.0000 0.71794  0.27929  0.01289  Biso   1.000  C
  C882     1.0000 0.98202  0.19708  0.26585  Biso   1.000  C
  C883     1.0000 0.21933  0.96687  0.22941  Biso   1.000  C
  C884     1.0000 0.23048  0.79538  0.52501  Biso   1.000  C
  C885     1.0000 0.01995  0.72843  0.27598  Biso   1.000  C
  C886     1.0000 0.68727  0.98197  0.24797  Biso   1.000  C
  C887     1.0000 0.74985  0.77844  0.97310  Biso   1.000  C
  C888     1.0000 0.50501  0.72166  0.23584  Biso   1.000  C
  C889     1.0000 0.71439  0.94716  0.27966  Biso   1.000  C
  C890     1.0000 0.28003  0.74413  0.03750  Biso   1.000  C
  C891     1.0000 0.00094  0.30068  0.76491  Biso   1.000  C
  C892     1.0000 0.18859  0.99253  0.26424  Biso   1.000  C
  C893     1.0000 0.73377  0.70073  0.51022  Biso   1.000  C
  C894     1.0000 0.47216  0.26365  0.77293  Biso   1.000  C
  C895     1.0000 0.78411  0.52293  0.25378  Biso   1.000  C
  C896     1.0000 0.19214  0.24349  0.97703  Biso   1.000  C
  C897     1.0000 0.47331  0.76241  0.72943  Biso   1.000  C
  C898     1.0000 0.25497  0.49702  0.22890  Biso   1.000  C
  C899     1.0000 0.73328  0.20149  0.52571  Biso   1.000  C
  C900     1.0000 0.96134  0.76974  0.77483  Biso   1.000  C
  C901     1.0000 0.28567  0.04189  0.75669  Biso   1.000  C
  C902     1.0000 0.69343  0.24631  0.98017  Biso   1.000  C
  C903     1.0000 0.98437  0.69915  0.24868  Biso   1.000  C
  C904     1.0000 0.75329  0.01387  0.77822  Biso   1.000  C
  C905     1.0000 0.21191  0.26882  0.47448  Biso   1.000  C
  C906     1.0000 0.46582  0.69206  0.26129  Biso   1.000  C
  C907     1.0000 0.18035  0.51823  0.75824  Biso   1.000  C
  C908     1.0000 0.78183  0.74852  0.00392  Biso   1.000  C
  C909     1.0000 0.45338  0.22608  0.27355  Biso   1.000  C
  C910     1.0000 0.71406  0.54869  0.78099  Biso   1.000  C
  C911     1.0000 0.26499  0.76494  0.49519  Biso   1.000  C
  C912     1.0000 0.95285  0.22742  0.23453  Biso   1.000  C
  C913     1.0000 0.73235  0.53670  0.73029  Biso   1.000  C
  C914     1.0000 0.71708  0.74846  0.49430  Biso   1.000  C
  C915     1.0000 0.48621  0.74575  0.77981  Biso   1.000  C
  C916     1.0000 0.22724  0.50218  0.77465  Biso   1.000  C
  C917     1.0000 0.23234  0.76359  0.02396  Biso   1.000  C
  C918     1.0000 0.98209  0.74791  0.72875  Biso   1.000  C
  C919     1.0000 0.74039  0.00420  0.72981  Biso   1.000  C
  C920     1.0000 0.75349  0.24780  0.51047  Biso   1.000  C
  C921     1.0000 0.99481  0.25078  0.78244  Biso   1.000  C
  C922     1.0000 0.23809  0.02612  0.77613  Biso   1.000  C
  C923     1.0000 0.23758  0.26505  0.99674  Biso   1.000  C
  C924     1.0000 0.48262  0.24812  0.72129  Biso   1.000  C
  C925     1.0000 0.24058  0.51411  0.27698  Biso   1.000  C
  C926     1.0000 0.25275  0.24516  0.49888  Biso   1.000  C
  C927     1.0000 0.47368  0.24595  0.22440  Biso   1.000  C
  C928     1.0000 0.73821  0.50353  0.23186  Biso   1.000  C
  C929     1.0000 0.73910  0.22979  0.00660  Biso   1.000  C
  C930     1.0000 0.96859  0.24572  0.28181  Biso   1.000  C
  C931     1.0000 0.23788  0.97406  0.27720  Biso   1.000  C
  C932     1.0000 0.21611  0.74889  0.50695  Biso   1.000  C
  C933     1.0000 0.00417  0.74734  0.22970  Biso   1.000  C
  C934     1.0000 0.73367  0.95695  0.22986  Biso   1.000  C
  C935     1.0000 0.73306  0.72910  0.98898  Biso   1.000  C
  C936     1.0000 0.48087  0.73863  0.28083  Biso   1.000  C
  C937     1.0000 0.71595  0.25200  0.99921  Biso   1.000  C
  C938     1.0000 0.00187  0.72377  0.25105  Biso   1.000  C
  C939     1.0000 0.26013  0.02533  0.75369  Biso   1.000  C
  C940     1.0000 0.23187  0.26792  0.49726  Biso   1.000  C
  C941     1.0000 0.48479  0.71644  0.25918  Biso   1.000  C
  C942     1.0000 0.76330  0.00274  0.75177  Biso   1.000  C
  C943     1.0000 0.75597  0.75190  0.98756  Biso   1.000  C
  C944     1.0000 0.46998  0.22254  0.24713  Biso   1.000  C
  C945     1.0000 0.20560  0.50432  0.75220  Biso   1.000  C
  C946     1.0000 0.23772  0.77167  0.50659  Biso   1.000  C
  C947     1.0000 0.96706  0.22212  0.25978  Biso   1.000  C
  C948     1.0000 0.70921  0.54061  0.75157  Biso   1.000  C
  C949     1.0000 0.25335  0.73981  0.02587  Biso   1.000  C
  C950     1.0000 0.99315  0.27251  0.75989  Biso   1.000  C
  C951     1.0000 0.71039  0.96289  0.25268  Biso   1.000  C
  C952     1.0000 0.73803  0.72562  0.49159  Biso   1.000  C
  C953     1.0000 0.48751  0.26769  0.74745  Biso   1.000  C
  C954     1.0000 0.21414  0.97771  0.25760  Biso   1.000  C
  C955     1.0000 0.21538  0.24181  0.99662  Biso   1.000  C
  C956     1.0000 0.48777  0.76778  0.75679  Biso   1.000  C
  C957     1.0000 0.76199  0.50214  0.25472  Biso   1.000  C
  C958     1.0000 0.73074  0.22629  0.50955  Biso   1.000  C
  C959     1.0000 0.98062  0.77200  0.75105  Biso   1.000  C
  C960     1.0000 0.26293  0.51232  0.25440  Biso   1.000  C
  Cu1      1.0000 0.96960  0.50402  0.66102  Biso   1.000  Cu
  Cu2      1.0000 0.64273  0.99271  0.49617  Biso   1.000  Cu
  Cu3      1.0000 0.49407  0.64794  0.01592  Biso   1.000  Cu
  Cu4      1.0000 0.47083  0.50275  0.84772  Biso   1.000  Cu
  Cu5      1.0000 0.13982  0.00277  0.01437  Biso   1.000  Cu
  Cu6      1.0000 0.97940  0.64915  0.49243  Biso   1.000  Cu
  Cu7      1.0000 0.50005  0.00081  0.65172  Biso   1.000  Cu
  Cu8      1.0000 0.82575  0.48904  0.49862  Biso   1.000  Cu
  Cu9      1.0000 0.98287  0.15346  0.01658  Biso   1.000  Cu
  Cu10     1.0000 0.99409  0.00586  0.85546  Biso   1.000  Cu
  Cu11     1.0000 0.32714  0.49890  0.01250  Biso   1.000  Cu
  Cu12     1.0000 0.49270  0.15156  0.48497  Biso   1.000  Cu
  Cu13     1.0000 0.99638  0.48867  0.34890  Biso   1.000  Cu
  Cu14     1.0000 0.33694  0.00751  0.51105  Biso   1.000  Cu
  Cu15     1.0000 0.47957  0.34502  0.98914  Biso   1.000  Cu
  Cu16     1.0000 0.49666  0.48218  0.15791  Biso   1.000  Cu
  Cu17     1.0000 0.83270  0.99634  0.99792  Biso   1.000  Cu
  Cu18     1.0000 0.99113  0.34382  0.51399  Biso   1.000  Cu
  Cu19     1.0000 0.47843  0.98470  0.34746  Biso   1.000  Cu
  Cu20     1.0000 0.13263  0.50559  0.51054  Biso   1.000  Cu
  Cu21     1.0000 0.99394  0.84493  0.99458  Biso   1.000  Cu
  Cu22     1.0000 0.97821  0.98877  0.16097  Biso   1.000  Cu
  Cu23     1.0000 0.64107  0.49159  0.99476  Biso   1.000  Cu
  Cu24     1.0000 0.47955  0.83776  0.50803  Biso   1.000  Cu
  Cu25     1.0000 0.19308  0.00302  0.01811  Biso   1.000  Cu
  Cu26     1.0000 0.98208  0.20880  0.02068  Biso   1.000  Cu
  Cu27     1.0000 0.97551  0.98602  0.21496  Biso   1.000  Cu
  Cu28     1.0000 0.69794  0.99025  0.49129  Biso   1.000  Cu
  Cu29     1.0000 0.49672  0.20518  0.48142  Biso   1.000  Cu
  Cu30     1.0000 0.47793  0.98127  0.29357  Biso   1.000  Cu
  Cu31     1.0000 0.27434  0.49924  0.02087  Biso   1.000  Cu
  Cu32     1.0000 0.49480  0.70302  0.02170  Biso   1.000  Cu
  Cu33     1.0000 0.50289  0.47724  0.21139  Biso   1.000  Cu
  Cu34     1.0000 0.77176  0.48592  0.49274  Biso   1.000  Cu
  Cu35     1.0000 0.97422  0.70149  0.49097  Biso   1.000  Cu
  Cu36     1.0000 0.99932  0.48305  0.29498  Biso   1.000  Cu
  Cu37     1.0000 0.77832  0.99237  0.99648  Biso   1.000  Cu
  Cu38     1.0000 0.99406  0.78980  0.99181  Biso   1.000  Cu
  Cu39     1.0000 0.99935  0.00887  0.80005  Biso   1.000  Cu
  Cu40     1.0000 0.28422  0.01148  0.51296  Biso   1.000  Cu
  Cu41     1.0000 0.47575  0.78353  0.51200  Biso   1.000  Cu
  Cu42     1.0000 0.50087  0.00541  0.70632  Biso   1.000  Cu
  Cu43     1.0000 0.69369  0.48714  0.98667  Biso   1.000  Cu
  Cu44     1.0000 0.47304  0.28987  0.98518  Biso   1.000  Cu
  Cu45     1.0000 0.46770  0.51039  0.79470  Biso   1.000  Cu
  Cu46     1.0000 0.18818  0.50848  0.51693  Biso   1.000  Cu
  Cu47     1.0000 0.99399  0.28829  0.51603  Biso   1.000  Cu
  Cu48     1.0000 0.96257  0.50846  0.71361  Biso   1.000  Cu
  H1       1.0000 0.20822  0.79840  0.53306  Biso   1.000  H
  H2       1.0000 0.51316  0.29616  0.72095  Biso   1.000  H
  H3       1.0000 0.74429  0.46422  0.27232  Biso   1.000  H
  H4       1.0000 0.73270  0.78004  0.95819  Biso   1.000  H
  H5       1.0000 0.97417  0.24069  0.72902  Biso   1.000  H
  H6       1.0000 0.29594  0.53080  0.27980  Biso   1.000  H
  H7       1.0000 0.24479  0.28957  0.53877  Biso   1.000  H
  H8       1.0000 0.01415  0.79398  0.73066  Biso   1.000  H
  H9       1.0000 0.68279  0.99227  0.22646  Biso   1.000  H
  H10      1.0000 0.73234  0.28504  0.03077  Biso   1.000  H
  H11      1.0000 0.51910  0.79538  0.77830  Biso   1.000  H
  H12      1.0000 0.23913  0.95496  0.22399  Biso   1.000  H
  H13      1.0000 0.70750  0.25217  0.48126  Biso   1.000  H
  H14      1.0000 0.51840  0.74165  0.23363  Biso   1.000  H
  H15      1.0000 0.23227  0.47882  0.72372  Biso   1.000  H
  H16      1.0000 0.23569  0.22088  0.03356  Biso   1.000  H
  H17      1.0000 0.03361  0.74685  0.27913  Biso   1.000  H
  H18      1.0000 0.68190  0.52257  0.71981  Biso   1.000  H
  H19      1.0000 0.76336  0.75106  0.46351  Biso   1.000  H
  H20      1.0000 0.99340  0.19489  0.28576  Biso   1.000  H
  H21      1.0000 0.23746  0.99502  0.72857  Biso   1.000  H
  H22      1.0000 0.22875  0.71394  0.99856  Biso   1.000  H
  H23      1.0000 0.50323  0.19711  0.22603  Biso   1.000  H
  H24      1.0000 0.79789  0.97738  0.72779  Biso   1.000  H
  H25      1.0000 0.25627  0.06150  0.79880  Biso   1.000  H
  H26      1.0000 0.75890  0.25011  0.04462  Biso   1.000  H
  H27      1.0000 0.97949  0.72313  0.19955  Biso   1.000  H
  H28      1.0000 0.71089  0.97650  0.75494  Biso   1.000  H
  H29      1.0000 0.22679  0.21254  0.47758  Biso   1.000  H
  H30      1.0000 0.52613  0.74944  0.27812  Biso   1.000  H
  H31      1.0000 0.25820  0.53017  0.74992  Biso   1.000  H
  H32      1.0000 0.75901  0.69548  0.01012  Biso   1.000  H
  H33      1.0000 0.46158  0.28157  0.25481  Biso   1.000  H
  H34      1.0000 0.70740  0.55513  0.69661  Biso   1.000  H
  H35      1.0000 0.19179  0.76943  0.47496  Biso   1.000  H
  H36      1.0000 0.93919  0.22422  0.30945  Biso   1.000  H
  H37      1.0000 0.76067  0.93070  0.25788  Biso   1.000  H
  H38      1.0000 0.26290  0.79357  0.00299  Biso   1.000  H
  H39      1.0000 0.96445  0.27400  0.81120  Biso   1.000  H
  H40      1.0000 0.21140  0.95538  0.31152  Biso   1.000  H
  H41      1.0000 0.74421  0.78028  0.52404  Biso   1.000  H
  H42      1.0000 0.45573  0.21931  0.74695  Biso   1.000  H
  H43      1.0000 0.70632  0.47146  0.25421  Biso   1.000  H
  H44      1.0000 0.20775  0.29905  0.98041  Biso   1.000  H
  H45      1.0000 0.45039  0.71851  0.76038  Biso   1.000  H
  H46      1.0000 0.26600  0.48931  0.30562  Biso   1.000  H
  H47      1.0000 0.72468  0.27909  0.53137  Biso   1.000  H
  H48      1.0000 0.96252  0.71436  0.75784  Biso   1.000  H
  H49      1.0000 0.21287  0.53469  0.24942  Biso   1.000  H
  H50      1.0000 0.28494  0.27550  0.51500  Biso   1.000  H
  H51      1.0000 0.48907  0.21450  0.19115  Biso   1.000  H
  H52      1.0000 0.75924  0.53712  0.20530  Biso   1.000  H
  H53      1.0000 0.72735  0.20647  0.96685  Biso   1.000  H
  H54      1.0000 0.99704  0.27172  0.25432  Biso   1.000  H
  H55      1.0000 0.27013  0.98431  0.24414  Biso   1.000  H
  H56      1.0000 0.23473  0.72232  0.54041  Biso   1.000  H
  H57      1.0000 0.03121  0.77614  0.25476  Biso   1.000  H
  H58      1.0000 0.71047  0.98119  0.19566  Biso   1.000  H
  H59      1.0000 0.70422  0.75639  0.96606  Biso   1.000  H
  H60      1.0000 0.43536  0.73038  0.29158  Biso   1.000  H
  H61      1.0000 0.75914  0.50916  0.75806  Biso   1.000  H
  H62      1.0000 0.68403  0.72274  0.46911  Biso   1.000  H
  H63      1.0000 0.52009  0.76587  0.80690  Biso   1.000  H
  H64      1.0000 0.20577  0.47082  0.80303  Biso   1.000  H
  H65      1.0000 0.19610  0.73744  0.04398  Biso   1.000  H
  H66      1.0000 0.99899  0.77597  0.69522  Biso   1.000  H
  H67      1.0000 0.76735  0.02841  0.69912  Biso   1.000  H
  H68      1.0000 0.78407  0.21830  0.49323  Biso   1.000  H
  H69      1.0000 0.02606  0.22072  0.75913  Biso   1.000  H
  H70      1.0000 0.20732  0.99556  0.75449  Biso   1.000  H
  H71      1.0000 0.27142  0.23353  0.01101  Biso   1.000  H
  H72      1.0000 0.51354  0.26859  0.68973  Biso   1.000  H
  H73      1.0000 0.73492  0.56050  0.78844  Biso   1.000  H
  H74      1.0000 0.71386  0.69895  0.52400  Biso   1.000  H
  H75      1.0000 0.45768  0.74401  0.72720  Biso   1.000  H
  H76      1.0000 0.17600  0.52915  0.77834  Biso   1.000  H
  H77      1.0000 0.28407  0.76525  0.04907  Biso   1.000  H
  H78      1.0000 0.94116  0.75530  0.77473  Biso   1.000  H
  H79      1.0000 0.73200  0.02392  0.77751  Biso   1.000  H
  H80      1.0000 0.74972  0.19864  0.54073  Biso   1.000  H
  H81      1.0000 0.01079  0.30723  0.78514  Biso   1.000  H
  H82      1.0000 0.28830  0.05749  0.77432  Biso   1.000  H
  H83      1.0000 0.18713  0.26326  0.96423  Biso   1.000  H
  H84      1.0000 0.45818  0.24531  0.77445  Biso   1.000  H
  H85      1.0000 0.23382  0.48835  0.22449  Biso   1.000  H
  H86      1.0000 0.21428  0.25352  0.45792  Biso   1.000  H
  H87      1.0000 0.44051  0.24589  0.27546  Biso   1.000  H
  H88      1.0000 0.78461  0.54064  0.23823  Biso   1.000  H
  H89      1.0000 0.68918  0.22556  0.97180  Biso   1.000  H
  H90      1.0000 0.93889  0.24613  0.22946  Biso   1.000  H
  H91      1.0000 0.18735  0.00185  0.28636  Biso   1.000  H
  H92      1.0000 0.26845  0.74359  0.48291  Biso   1.000  H
  H93      1.0000 0.96900  0.69506  0.23116  Biso   1.000  H
  H94      1.0000 0.73174  0.93168  0.28461  Biso   1.000  H
  H95      1.0000 0.78429  0.72969  0.01594  Biso   1.000  H
  H96      1.0000 0.44929  0.68771  0.27814  Biso   1.000  H
  H97      1.0000 0.85713  0.00002  0.90743  Biso   1.000  H
  H98      1.0000 0.90085  0.86517  0.99566  Biso   1.000  H
  H99      1.0000 0.99457  0.91503  0.86533  Biso   1.000  H
  H100     1.0000 0.35990  0.01909  0.60135  Biso   1.000  H
  H101     1.0000 0.39246  0.86769  0.52824  Biso   1.000  H
  H102     1.0000 0.49837  0.90859  0.64323  Biso   1.000  H
  H103     1.0000 0.60960  0.50187  0.89853  Biso   1.000  H
  H104     1.0000 0.56798  0.35980  0.97787  Biso   1.000  H
  H105     1.0000 0.47625  0.41166  0.85852  Biso   1.000  H
  H106     1.0000 0.09899  0.50723  0.60547  Biso   1.000  H
  H107     1.0000 0.07716  0.36789  0.49849  Biso   1.000  H
  H108     1.0000 0.97294  0.41188  0.64300  Biso   1.000  H
  H109     1.0000 0.11084  0.00067  0.11003  Biso   1.000  H
  H110     1.0000 0.07630  0.13044  0.01154  Biso   1.000  H
  H111     1.0000 0.97122  0.08073  0.14515  Biso   1.000  H
  H112     1.0000 0.61923  0.99292  0.40918  Biso   1.000  H
  H113     1.0000 0.58202  0.12263  0.49223  Biso   1.000  H
  H114     1.0000 0.48019  0.07649  0.36112  Biso   1.000  H
  H115     1.0000 0.36168  0.48786  0.10145  Biso   1.000  H
  H116     1.0000 0.39932  0.62745  0.02199  Biso   1.000  H
  H117     1.0000 0.49505  0.57241  0.14638  Biso   1.000  H
  H118     1.0000 0.85503  0.50558  0.40997  Biso   1.000  H
  H119     1.0000 0.88829  0.62253  0.48064  Biso   1.000  H
  H120     1.0000 0.99618  0.57808  0.36427  Biso   1.000  H
  H121     1.0000 0.08189  0.01049  0.88056  Biso   1.000  H
  H122     1.0000 0.84928  0.08468  0.00445  Biso   1.000  H
  H123     1.0000 0.99505  0.86020  0.08618  Biso   1.000  H
  H124     1.0000 0.59082  0.99919  0.63011  Biso   1.000  H
  H125     1.0000 0.36002  0.10008  0.50738  Biso   1.000  H
  H126     1.0000 0.46500  0.85408  0.41775  Biso   1.000  H
  H127     1.0000 0.37716  0.51866  0.87765  Biso   1.000  H
  H128     1.0000 0.62242  0.58044  0.99220  Biso   1.000  H
  H129     1.0000 0.47625  0.35973  0.07868  Biso   1.000  H
  H130     1.0000 0.87811  0.49696  0.63055  Biso   1.000  H
  H131     1.0000 0.10885  0.59882  0.51351  Biso   1.000  H
  H132     1.0000 0.97817  0.35991  0.41992  Biso   1.000  H
  H133     1.0000 0.88597  0.98432  0.13966  Biso   1.000  H
  H134     1.0000 0.12326  0.90962  0.99707  Biso   1.000  H
  H135     1.0000 0.98841  0.13714  0.92270  Biso   1.000  H
  H136     1.0000 0.39261  0.98015  0.37251  Biso   1.000  H
  H137     1.0000 0.61422  0.90034  0.49269  Biso   1.000  H
  H138     1.0000 0.49688  0.13457  0.57569  Biso   1.000  H
  H139     1.0000 0.58908  0.49073  0.12797  Biso   1.000  H
  H140     1.0000 0.34169  0.41145  0.99661  Biso   1.000  H
  H141     1.0000 0.48297  0.63154  0.92161  Biso   1.000  H
  H142     1.0000 0.08681  0.48358  0.37500  Biso   1.000  H
  H143     1.0000 0.85458  0.40092  0.49480  Biso   1.000  H
  H144     1.0000 0.97693  0.63192  0.58442  Biso   1.000  H
  H145     1.0000 0.56434  0.50611  0.86355  Biso   1.000  H
  H146     1.0000 0.84309  0.57492  0.48829  Biso   1.000  H
  H147     1.0000 0.48942  0.86458  0.59926  Biso   1.000  H
  H148     1.0000 0.05781  0.50034  0.64402  Biso   1.000  H
  H149     1.0000 0.35442  0.58774  0.01452  Biso   1.000  H
  H150     1.0000 0.98428  0.87089  0.90668  Biso   1.000  H
  H151     1.0000 0.90409  0.99622  0.86795  Biso   1.000  H
  H152     1.0000 0.62437  0.08395  0.49984  Biso   1.000  H
  H153     1.0000 0.98537  0.36552  0.60141  Biso   1.000  H
  H154     1.0000 0.40868  0.01197  0.64053  Biso   1.000  H
  H155     1.0000 0.11347  0.09190  0.01267  Biso   1.000  H
  H156     1.0000 0.47927  0.37269  0.89582  Biso   1.000  H
  H157     1.0000 0.40793  0.47298  0.14463  Biso   1.000  H
  H158     1.0000 0.12057  0.41193  0.51319  Biso   1.000  H
  H159     1.0000 0.48286  0.11885  0.39702  Biso   1.000  H
  H160     1.0000 0.90739  0.50627  0.36768  Biso   1.000  H
  H161     1.0000 0.61401  0.40132  0.98390  Biso   1.000  H
  H162     1.0000 0.98385  0.12427  0.10791  Biso   1.000  H
  H163     1.0000 0.07056  0.99635  0.14889  Biso   1.000  H
  H164     1.0000 0.35133  0.91437  0.52785  Biso   1.000  H
  H165     1.0000 0.99535  0.62270  0.40104  Biso   1.000  H
  H166     1.0000 0.56988  0.99084  0.36635  Biso   1.000  H
  H167     1.0000 0.85700  0.90599  0.98891  Biso   1.000  H
  H168     1.0000 0.50250  0.62059  0.10676  Biso   1.000  H
  H169     1.0000 0.98686  0.09682  0.87984  Biso   1.000  H
  H170     1.0000 0.85052  0.98505  0.09136  Biso   1.000  H
  H171     1.0000 0.08560  0.86551  0.98427  Biso   1.000  H
  H172     1.0000 0.49185  0.09024  0.62183  Biso   1.000  H
  H173     1.0000 0.35030  0.98158  0.42217  Biso   1.000  H
  H174     1.0000 0.57188  0.85588  0.50001  Biso   1.000  H
  H175     1.0000 0.47775  0.59486  0.87849  Biso   1.000  H
  H176     1.0000 0.62927  0.49672  0.08516  Biso   1.000  H
  H177     1.0000 0.38514  0.36925  0.98933  Biso   1.000  H
  H178     1.0000 0.98197  0.59205  0.63395  Biso   1.000  H
  H179     1.0000 0.12599  0.49285  0.41951  Biso   1.000  H
  H180     1.0000 0.89952  0.35930  0.49908  Biso   1.000  H
  H181     1.0000 0.99196  0.90067  0.13218  Biso   1.000  H
  H182     1.0000 0.12858  0.01756  0.92615  Biso   1.000  H
  H183     1.0000 0.88926  0.12765  0.01303  Biso   1.000  H
  H184     1.0000 0.47281  0.89560  0.37121  Biso   1.000  H
  H185     1.0000 0.63294  0.99725  0.58733  Biso   1.000  H
  H186     1.0000 0.40210  0.13747  0.49041  Biso   1.000  H
  H187     1.0000 0.49413  0.39508  0.12381  Biso   1.000  H
  H188     1.0000 0.33911  0.50648  0.92425  Biso   1.000  H
  H189     1.0000 0.58329  0.62746  0.00821  Biso   1.000  H
  H190     1.0000 0.96951  0.40172  0.37774  Biso   1.000  H
  H191     1.0000 0.83759  0.48401  0.58873  Biso   1.000  H
  H192     1.0000 0.07013  0.63754  0.51164  Biso   1.000  H
  H193     1.0000 0.25301  0.86909  0.51576  Biso   1.000  H
  H194     1.0000 0.48878  0.27553  0.84393  Biso   1.000  H
  H195     1.0000 0.85869  0.50564  0.27038  Biso   1.000  H
  H196     1.0000 0.75883  0.85426  0.99215  Biso   1.000  H
  H197     1.0000 0.00685  0.27731  0.66346  Biso   1.000  H
  H198     1.0000 0.35710  0.49050  0.24176  Biso   1.000  H
  H199     1.0000 0.21927  0.36446  0.49937  Biso   1.000  H
  H200     1.0000 0.97384  0.77901  0.84279  Biso   1.000  H
  H201     1.0000 0.62172  0.96644  0.26849  Biso   1.000  H
  H202     1.0000 0.70912  0.34578  0.98129  Biso   1.000  H
  H203     1.0000 0.49299  0.77286  0.65752  Biso   1.000  H
  H204     1.0000 0.11481  0.97836  0.24649  Biso   1.000  H
  H205     1.0000 0.71963  0.13577  0.50355  Biso   1.000  H
  H206     1.0000 0.48776  0.71427  0.16418  Biso   1.000  H
  H207     1.0000 0.10924  0.49441  0.74229  Biso   1.000  H
  H208     1.0000 0.20830  0.14675  0.99369  Biso   1.000  H
  H209     1.0000 0.99336  0.71870  0.34260  Biso   1.000  H
  H210     1.0000 0.60956  0.53384  0.76596  Biso   1.000  H
  H211     1.0000 0.74477  0.62862  0.48640  Biso   1.000  H
  H212     1.0000 0.99006  0.21689  0.16997  Biso   1.000  H
  H213     1.0000 0.35960  0.01802  0.74059  Biso   1.000  H
  H214     1.0000 0.26432  0.64637  0.02818  Biso   1.000  H
  H215     1.0000 0.47534  0.21282  0.33753  Biso   1.000  H
  H216     1.0000 0.85602  0.01071  0.76968  Biso   1.000  H
  H217     1.0000 0.21949  0.51460  0.36854  Biso   1.000  H
  H218     1.0000 0.35283  0.23836  0.48450  Biso   1.000  H
  H219     1.0000 0.50569  0.33087  0.21300  Biso   1.000  H
  H220     1.0000 0.72940  0.50577  0.13069  Biso   1.000  H
  H221     1.0000 0.83626  0.22287  0.02836  Biso   1.000  H
  H222     1.0000 0.95576  0.34385  0.28451  Biso   1.000  H
  H223     1.0000 0.25132  0.99466  0.37189  Biso   1.000  H
  H224     1.0000 0.11455  0.73858  0.51246  Biso   1.000  H
  H225     1.0000 0.00134  0.84441  0.22574  Biso   1.000  H
  H226     1.0000 0.75249  0.94687  0.12973  Biso   1.000  H
  H227     1.0000 0.63536  0.72161  0.99189  Biso   1.000  H
  H228     1.0000 0.48251  0.83418  0.27930  Biso   1.000  H
  H229     1.0000 0.74027  0.50698  0.63698  Biso   1.000  H
  H230     1.0000 0.62460  0.76102  0.50255  Biso   1.000  H
  H231     1.0000 0.48127  0.65580  0.78562  Biso   1.000  H
  H232     1.0000 0.23844  0.50217  0.87607  Biso   1.000  H
  H233     1.0000 0.13916  0.76875  0.98769  Biso   1.000  H
  H234     1.0000 0.00059  0.65696  0.72144  Biso   1.000  H
  H235     1.0000 0.72812  0.98747  0.63974  Biso   1.000  H
  H236     1.0000 0.84994  0.25994  0.51195  Biso   1.000  H
  H237     1.0000 0.98960  0.15119  0.78383  Biso   1.000  H
  H238     1.0000 0.22390  0.02187  0.87055  Biso   1.000  H
  H239     1.0000 0.33634  0.27127  0.97961  Biso   1.000  H
  H240     1.0000 0.48863  0.15287  0.71440  Biso   1.000  H
  H241     1.0000 0.70409  0.51233  0.84521  Biso   1.000  H
  H242     1.0000 0.83147  0.71758  0.48789  Biso   1.000  H
  H243     1.0000 0.48633  0.86016  0.73919  Biso   1.000  H
  H244     1.0000 0.19548  0.51279  0.65724  Biso   1.000  H
  H245     1.0000 0.35536  0.72691  0.02232  Biso   1.000  H
  H246     1.0000 0.98979  0.87006  0.76539  Biso   1.000  H
  H247     1.0000 0.76203  0.99512  0.85146  Biso   1.000  H
  H248     1.0000 0.63684  0.22062  0.50361  Biso   1.000  H
  H249     1.0000 0.96808  0.36295  0.74221  Biso   1.000  H
  H250     1.0000 0.26691  0.02420  0.66246  Biso   1.000  H
  H251     1.0000 0.12662  0.23168  0.00713  Biso   1.000  H
  H252     1.0000 0.47677  0.36312  0.75674  Biso   1.000  H
  H253     1.0000 0.27702  0.52874  0.16169  Biso   1.000  H
  H254     1.0000 0.13886  0.27640  0.48612  Biso   1.000  H
  H255     1.0000 0.47985  0.12259  0.25911  Biso   1.000  H
  H256     1.0000 0.76556  0.50157  0.34684  Biso   1.000  H
  H257     1.0000 0.61804  0.26019  0.97702  Biso   1.000  H
  H258     1.0000 0.96434  0.12772  0.24583  Biso   1.000  H
  H259     1.0000 0.20687  0.00071  0.16808  Biso   1.000  H
  H260     1.0000 0.33257  0.77463  0.52806  Biso   1.000  H
  H261     1.0000 0.00442  0.62650  0.26323  Biso   1.000  H
  H262     1.0000 0.70927  0.98651  0.34491  Biso   1.000  H
  H263     1.0000 0.85073  0.76583  0.98502  Biso   1.000  H
  H264     1.0000 0.49639  0.62251  0.24581  Biso   1.000  H
  H265     1.0000 0.99167  0.23666  0.87860  Biso   1.000  H
  H266     1.0000 0.82691  0.95705  0.22816  Biso   1.000  H
  H267     1.0000 0.21624  0.85963  0.02823  Biso   1.000  H
  H268     1.0000 0.49006  0.23089  0.62728  Biso   1.000  H
  H269     1.0000 0.32728  0.96296  0.28239  Biso   1.000  H
  H270     1.0000 0.71048  0.84743  0.49544  Biso   1.000  H
  H271     1.0000 0.48655  0.73374  0.87806  Biso   1.000  H
  H272     1.0000 0.64400  0.50173  0.22389  Biso   1.000  H
  H273     1.0000 0.24849  0.35569  0.01716  Biso   1.000  H
  H274     1.0000 0.97248  0.73221  0.63143  Biso   1.000  H
  H275     1.0000 0.13991  0.50102  0.28113  Biso   1.000  H
  H276     1.0000 0.76127  0.34046  0.49269  Biso   1.000  H
  H277     1.0000 0.00691  0.76032  0.13252  Biso   1.000  H
  H278     1.0000 0.14245  0.03770  0.78700  Biso   1.000  H
  H279     1.0000 0.75138  0.13549  0.99909  Biso   1.000  H
  H280     1.0000 0.45749  0.75632  0.36650  Biso   1.000  H
  H281     1.0000 0.64453  0.01099  0.72303  Biso   1.000  H
  H282     1.0000 0.26819  0.15638  0.52490  Biso   1.000  H
  H283     1.0000 0.45232  0.26201  0.12820  Biso   1.000  H
  H284     1.0000 0.32414  0.50579  0.78340  Biso   1.000  H
  H285     1.0000 0.72044  0.63480  0.97804  Biso   1.000  H
  H286     1.0000 0.97320  0.26136  0.37283  Biso   1.000  H
  H287     1.0000 0.81997  0.53722  0.71608  Biso   1.000  H
  H288     1.0000 0.20529  0.65222  0.51451  Biso   1.000  H
  H289     1.0000 0.06762  0.22725  0.01301  Biso   1.000  H
  H290     1.0000 0.95579  0.07148  0.23882  Biso   1.000  H
  H291     1.0000 0.20568  0.00849  0.11307  Biso   1.000  H
  H292     1.0000 0.58559  0.22188  0.49082  Biso   1.000  H
  H293     1.0000 0.47543  0.06793  0.26478  Biso   1.000  H
  H294     1.0000 0.71322  0.99073  0.40160  Biso   1.000  H
  H295     1.0000 0.40551  0.72289  0.02750  Biso   1.000  H
  H296     1.0000 0.49519  0.56879  0.24186  Biso   1.000  H
  H297     1.0000 0.27622  0.52929  0.10445  Biso   1.000  H
  H298     1.0000 0.88565  0.71658  0.47930  Biso   1.000  H
  H299     1.0000 0.01306  0.57464  0.26776  Biso   1.000  H
  H300     1.0000 0.76067  0.50297  0.40059  Biso   1.000  H
  H301     1.0000 0.90260  0.76894  0.98834  Biso   1.000  H
  H302     1.0000 0.99327  0.92380  0.77121  Biso   1.000  H
  H303     1.0000 0.76290  0.99284  0.90644  Biso   1.000  H
  H304     1.0000 0.38631  0.77131  0.53374  Biso   1.000  H
  H305     1.0000 0.48441  0.91475  0.73810  Biso   1.000  H
  H306     1.0000 0.26254  0.02151  0.60922  Biso   1.000  H
  H307     1.0000 0.56193  0.26376  0.98290  Biso   1.000  H
  H308     1.0000 0.46984  0.41731  0.76191  Biso   1.000  H
  H309     1.0000 0.70488  0.50037  0.89555  Biso   1.000  H
  H310     1.0000 0.08395  0.27442  0.48312  Biso   1.000  H
  H311     1.0000 0.95794  0.41586  0.74011  Biso   1.000  H
  H312     1.0000 0.19706  0.51465  0.60310  Biso   1.000  H
  H313     1.0000 0.22604  0.00971  0.92381  Biso   1.000  H
  H314     1.0000 0.88751  0.22395  0.03288  Biso   1.000  H
  H315     1.0000 0.00589  0.89506  0.22662  Biso   1.000  H
  H316     1.0000 0.72594  0.98549  0.58126  Biso   1.000  H
  H317     1.0000 0.40693  0.23347  0.47689  Biso   1.000  H
  H318     1.0000 0.48634  0.89072  0.27770  Biso   1.000  H
  H319     1.0000 0.24174  0.50302  0.92591  Biso   1.000  H
  H320     1.0000 0.58536  0.72179  0.99845  Biso   1.000  H
  H321     1.0000 0.51718  0.38641  0.21817  Biso   1.000  H
  H322     1.0000 0.74268  0.48576  0.58645  Biso   1.000  H
  H323     1.0000 0.06694  0.73347  0.50309  Biso   1.000  H
  H324     1.0000 0.96247  0.39797  0.28252  Biso   1.000  H
  H325     1.0000 0.75943  0.95942  0.07922  Biso   1.000  H
  H326     1.0000 0.08629  0.77059  0.97637  Biso   1.000  H
  H327     1.0000 0.98469  0.10051  0.78416  Biso   1.000  H
  H328     1.0000 0.25750  0.00220  0.42466  Biso   1.000  H
  H329     1.0000 0.56686  0.76105  0.50648  Biso   1.000  H
  H330     1.0000 0.48990  0.09830  0.71743  Biso   1.000  H
  H331     1.0000 0.72610  0.49174  0.07997  Biso   1.000  H
  H332     1.0000 0.38661  0.27294  0.97609  Biso   1.000  H
  H333     1.0000 0.46977  0.60293  0.78321  Biso   1.000  H
  H334     1.0000 0.21846  0.51005  0.42458  Biso   1.000  H
  H335     1.0000 0.90314  0.26297  0.51455  Biso   1.000  H
  H336     1.0000 0.99474  0.59876  0.72507  Biso   1.000  H
  H337     1.0000 0.98626  0.23315  0.93151  Biso   1.000  H
  H338     1.0000 0.88351  0.96234  0.23207  Biso   1.000  H
  H339     1.0000 0.21506  0.91338  0.02137  Biso   1.000  H
  H340     1.0000 0.48802  0.22978  0.57253  Biso   1.000  H
  H341     1.0000 0.38352  0.96556  0.27632  Biso   1.000  H
  H342     1.0000 0.71205  0.90275  0.50048  Biso   1.000  H
  H343     1.0000 0.50289  0.72667  0.93213  Biso   1.000  H
  H344     1.0000 0.59022  0.50331  0.22464  Biso   1.000  H
  H345     1.0000 0.24987  0.40832  0.02414  Biso   1.000  H
  H346     1.0000 0.96800  0.72539  0.57599  Biso   1.000  H
  H347     1.0000 0.08520  0.48580  0.28150  Biso   1.000  H
  H348     1.0000 0.76041  0.39540  0.48251  Biso   1.000  H
  H349     1.0000 0.99589  0.76419  0.08010  Biso   1.000  H
  H350     1.0000 0.08804  0.03690  0.78765  Biso   1.000  H
  H351     1.0000 0.75530  0.08304  0.99172  Biso   1.000  H
  H352     1.0000 0.44488  0.76077  0.42259  Biso   1.000  H
  H353     1.0000 0.59254  0.00637  0.72459  Biso   1.000  H
  H354     1.0000 0.26774  0.10163  0.52329  Biso   1.000  H
  H355     1.0000 0.44350  0.26778  0.07362  Biso   1.000  H
  H356     1.0000 0.37505  0.51333  0.78232  Biso   1.000  H
  H357     1.0000 0.71916  0.57914  0.97927  Biso   1.000  H
  H358     1.0000 0.98245  0.26276  0.42290  Biso   1.000  H
  H359     1.0000 0.87679  0.53436  0.72036  Biso   1.000  H
  H360     1.0000 0.20575  0.59937  0.52527  Biso   1.000  H
  H361     1.0000 0.98347  0.72134  0.39486  Biso   1.000  H
  H362     1.0000 0.41496  0.01290  0.73331  Biso   1.000  H
  H363     1.0000 0.71066  0.39687  0.98767  Biso   1.000  H
  H364     1.0000 0.49408  0.71466  0.11033  Biso   1.000  H
  H365     1.0000 0.91059  0.01193  0.77585  Biso   1.000  H
  H366     1.0000 0.21677  0.41526  0.51688  Biso   1.000  H
  H367     1.0000 0.48004  0.21588  0.39373  Biso   1.000  H
  H368     1.0000 0.05340  0.49306  0.74068  Biso   1.000  H
  H369     1.0000 0.76042  0.90441  0.99613  Biso   1.000  H
  H370     1.0000 0.98755  0.22280  0.11687  Biso   1.000  H
  H371     1.0000 0.55467  0.52541  0.77088  Biso   1.000  H
  H372     1.0000 0.25759  0.92117  0.50856  Biso   1.000  H
  H373     1.0000 0.01103  0.27356  0.60983  Biso   1.000  H
  H374     1.0000 0.56527  0.96654  0.27203  Biso   1.000  H
  H375     1.0000 0.26009  0.59211  0.02745  Biso   1.000  H
  H376     1.0000 0.49036  0.27729  0.89869  Biso   1.000  H
  H377     1.0000 0.06213  0.98493  0.24599  Biso   1.000  H
  H378     1.0000 0.74469  0.57365  0.49286  Biso   1.000  H
  H379     1.0000 0.48952  0.77166  0.60042  Biso   1.000  H
  H380     1.0000 0.91450  0.50715  0.27315  Biso   1.000  H
  H381     1.0000 0.20970  0.09276  0.00605  Biso   1.000  H
  H382     1.0000 0.96967  0.77522  0.89776  Biso   1.000  H
  H383     1.0000 0.40866  0.47266  0.23912  Biso   1.000  H
  H384     1.0000 0.71949  0.07998  0.50807  Biso   1.000  H
  H385     1.0000 0.22464  0.47933  0.34056  Biso   1.000  H
  H386     1.0000 0.26863  0.17950  0.47302  Biso   1.000  H
  H387     1.0000 0.46054  0.31778  0.21495  Biso   1.000  H
  H388     1.0000 0.67648  0.46933  0.21873  Biso   1.000  H
  H389     1.0000 0.79680  0.21410  0.04895  Biso   1.000  H
  H390     1.0000 0.93688  0.26424  0.34614  Biso   1.000  H
  H391     1.0000 0.24635  0.95619  0.34867  Biso   1.000  H
  H392     1.0000 0.15257  0.73480  0.47333  Biso   1.000  H
  H393     1.0000 0.97855  0.76102  0.16284  Biso   1.000  H
  H394     1.0000 0.79858  0.92167  0.21620  Biso   1.000  H
  H395     1.0000 0.72133  0.66034  0.01337  Biso   1.000  H
  H396     1.0000 0.52297  0.79654  0.30583  Biso   1.000  H
  H397     1.0000 0.74111  0.54459  0.65797  Biso   1.000  H
  H398     1.0000 0.70818  0.81552  0.52533  Biso   1.000  H
  H399     1.0000 0.44529  0.68462  0.79796  Biso   1.000  H
  H400     1.0000 0.29163  0.53714  0.78422  Biso   1.000  H
  H401     1.0000 0.22690  0.82947  0.99371  Biso   1.000  H
  H402     1.0000 0.96224  0.67872  0.72123  Biso   1.000  H
  H403     1.0000 0.67241  0.97541  0.71902  Biso   1.000  H
  H404     1.0000 0.75799  0.31624  0.52689  Biso   1.000  H
  H405     1.0000 0.95850  0.23511  0.84534  Biso   1.000  H
  H406     1.0000 0.21929  0.05741  0.84235  Biso   1.000  H
  H407     1.0000 0.24737  0.33408  0.97811  Biso   1.000  H
  H408     1.0000 0.45541  0.17951  0.70740  Biso   1.000  H
  H409     1.0000 0.27051  0.47791  0.18995  Biso   1.000  H
  H410     1.0000 0.17632  0.28715  0.45481  Biso   1.000  H
  H411     1.0000 0.43787  0.20474  0.31107  Biso   1.000  H
  H412     1.0000 0.82096  0.54150  0.27630  Biso   1.000  H
  H413     1.0000 0.65423  0.26119  0.95818  Biso   1.000  H
  H414     1.0000 0.94508  0.21028  0.19121  Biso   1.000  H
  H415     1.0000 0.14657  0.00514  0.24895  Biso   1.000  H
  H416     1.0000 0.30925  0.78194  0.48594  Biso   1.000  H
  H417     1.0000 0.96696  0.66043  0.26176  Biso   1.000  H
  H418     1.0000 0.69484  0.94365  0.32264  Biso   1.000  H
  H419     1.0000 0.82382  0.76865  0.01487  Biso   1.000  H
  H420     1.0000 0.45343  0.65341  0.23973  Biso   1.000  H
  H421     1.0000 0.69333  0.55447  0.82222  Biso   1.000  H
  H422     1.0000 0.74773  0.65774  0.52113  Biso   1.000  H
  H423     1.0000 0.46296  0.77816  0.68604  Biso   1.000  H
  H424     1.0000 0.13763  0.53011  0.74088  Biso   1.000  H
  H425     1.0000 0.32002  0.72653  0.05012  Biso   1.000  H
  H426     1.0000 0.94192  0.78918  0.81250  Biso   1.000  H
  H427     1.0000 0.76453  0.02912  0.82032  Biso   1.000  H
  H428     1.0000 0.71105  0.16257  0.53796  Biso   1.000  H
  H429     1.0000 0.01011  0.34245  0.74735  Biso   1.000  H
  H430     1.0000 0.32775  0.05042  0.73804  Biso   1.000  H
  H431     1.0000 0.15330  0.22245  0.96128  Biso   1.000  H
  H432     1.0000 0.46111  0.28290  0.81458  Biso   1.000  H
  H433     1.0000 0.27429  0.98954  0.68990  Biso   1.000  H
  H434     1.0000 0.69864  0.31943  0.02123  Biso   1.000  H
  H435     1.0000 0.03341  0.71203  0.31578  Biso   1.000  H
  H436     1.0000 0.83003  0.97691  0.76946  Biso   1.000  H
  H437     1.0000 0.20942  0.33178  0.53263  Biso   1.000  H
  H438     1.0000 0.52106  0.70684  0.19715  Biso   1.000  H
  H439     1.0000 0.19546  0.47725  0.68555  Biso   1.000  H
  H440     1.0000 0.76651  0.82112  0.95990  Biso   1.000  H
  H441     1.0000 0.50816  0.16238  0.26417  Biso   1.000  H
  H442     1.0000 0.64114  0.50742  0.75749  Biso   1.000  H
  H443     1.0000 0.24800  0.83538  0.54104  Biso   1.000  H
  H444     1.0000 0.99294  0.15561  0.24971  Biso   1.000  H
  H445     1.0000 0.65215  0.00336  0.26707  Biso   1.000  H
  H446     1.0000 0.26447  0.67387  0.99506  Biso   1.000  H
  H447     1.0000 0.97019  0.27388  0.69245  Biso   1.000  H
  H448     1.0000 0.20198  0.96266  0.18610  Biso   1.000  H
  H449     1.0000 0.79902  0.71117  0.45510  Biso   1.000  H
  H450     1.0000 0.51818  0.33569  0.76010  Biso   1.000  H
  H451     1.0000 0.77711  0.46535  0.31637  Biso   1.000  H
  H452     1.0000 0.20743  0.17846  0.03196  Biso   1.000  H
  H453     1.0000 0.52416  0.83091  0.73980  Biso   1.000  H
  H454     1.0000 0.33277  0.52707  0.24123  Biso   1.000  H
  H455     1.0000 0.66861  0.21549  0.47082  Biso   1.000  H
  H456     1.0000 0.01703  0.83381  0.76743  Biso   1.000  H
  H457     1.0000 0.65131  0.76194  0.46805  Biso   1.000  H
  H458     1.0000 0.51557  0.73040  0.84494  Biso   1.000  H
  H459     1.0000 0.79382  0.49778  0.72155  Biso   1.000  H
  H460     1.0000 0.16018  0.77042  0.02917  Biso   1.000  H
  H461     1.0000 0.00631  0.73867  0.65976  Biso   1.000  H
  H462     1.0000 0.24318  0.47199  0.84143  Biso   1.000  H
  H463     1.0000 0.82003  0.25477  0.48220  Biso   1.000  H
  H464     1.0000 0.01995  0.18118  0.79238  Biso   1.000  H
  H465     1.0000 0.73004  0.02373  0.65879  Biso   1.000  H
  H466     1.0000 0.30617  0.26749  0.01277  Biso   1.000  H
  H467     1.0000 0.51638  0.23088  0.65856  Biso   1.000  H
  H468     1.0000 0.17238  0.99722  0.78316  Biso   1.000  H
  H469     1.0000 0.32346  0.23797  0.52558  Biso   1.000  H
  H470     1.0000 0.49630  0.25064  0.15447  Biso   1.000  H
  H471     1.0000 0.16932  0.52805  0.28051  Biso   1.000  H
  H472     1.0000 0.76944  0.17269  0.96700  Biso   1.000  H
  H473     1.0000 0.99852  0.31411  0.29040  Biso   1.000  H
  H474     1.0000 0.72158  0.53774  0.16736  Biso   1.000  H
  H475     1.0000 0.19901  0.68553  0.54160  Biso   1.000  H
  H476     1.0000 0.03192  0.81553  0.22106  Biso   1.000  H
  H477     1.0000 0.30604  0.99831  0.28369  Biso   1.000  H
  H478     1.0000 0.66796  0.71893  0.95775  Biso   1.000  H
  H479     1.0000 0.42902  0.77299  0.32077  Biso   1.000  H
  H480     1.0000 0.75186  0.98434  0.16380  Biso   1.000  H
  N1       1.0000 0.66723  0.16644  0.50059  Biso   1.000  N
  N2       1.0000 0.48979  0.65780  0.19404  Biso   1.000  N
  N3       1.0000 0.14295  0.50172  0.68940  Biso   1.000  N
  N4       1.0000 0.15833  0.17789  0.99999  Biso   1.000  N
  N5       1.0000 0.00000  0.66235  0.31538  Biso   1.000  N
  N6       1.0000 0.64763  0.52101  0.81449  Biso   1.000  N
  N7       1.0000 0.79901  0.66092  0.48980  Biso   1.000  N
  N8       1.0000 0.97369  0.16247  0.19624  Biso   1.000  N
  N9       1.0000 0.32255  0.02067  0.68947  Biso   1.000  N
  N10      1.0000 0.31543  0.67554  0.02111  Biso   1.000  N
  N11      1.0000 0.47401  0.15900  0.30967  Biso   1.000  N
  N12      1.0000 0.81863  0.00101  0.82029  Biso   1.000  N
  N13      1.0000 0.30495  0.82988  0.51790  Biso   1.000  N
  N14      1.0000 0.48622  0.32991  0.81123  Biso   1.000  N
  N15      1.0000 0.82329  0.50295  0.31880  Biso   1.000  N
  N16      1.0000 0.81664  0.81880  0.99110  Biso   1.000  N
  N17      1.0000 0.98494  0.33009  0.69217  Biso   1.000  N
  N18      1.0000 0.32526  0.50175  0.18923  Biso   1.000  N
  N19      1.0000 0.16848  0.33097  0.49370  Biso   1.000  N
  N20      1.0000 0.98425  0.83204  0.81621  Biso   1.000  N
  N21      1.0000 0.65446  0.98026  0.31944  Biso   1.000  N
  N22      1.0000 0.65412  0.31391  0.98180  Biso   1.000  N
  N23      1.0000 0.49363  0.82551  0.68831  Biso   1.000  N
  N24      1.0000 0.15135  0.98880  0.19549  Biso   1.000  N
  N25      1.0000 0.79111  0.51546  0.66729  Biso   1.000  N
  N26      1.0000 0.65709  0.81525  0.49722  Biso   1.000  N
  N27      1.0000 0.48104  0.68356  0.84434  Biso   1.000  N
  N28      1.0000 0.29054  0.50520  0.83891  Biso   1.000  N
  N29      1.0000 0.16881  0.82470  0.00912  Biso   1.000  N
  N30      1.0000 0.98206  0.68354  0.66785  Biso   1.000  N
  N31      1.0000 0.67664  0.00230  0.66924  Biso   1.000  N
  N32      1.0000 0.81561  0.31095  0.50127  Biso   1.000  N
  N33      1.0000 0.98908  0.18430  0.84134  Biso   1.000  N
  N34      1.0000 0.17182  0.02311  0.83911  Biso   1.000  N
  N35      1.0000 0.30139  0.32378  0.99878  Biso   1.000  N
  N36      1.0000 0.48763  0.18014  0.66002  Biso   1.000  N
  N37      1.0000 0.17088  0.50454  0.33515  Biso   1.000  N
  N38      1.0000 0.31809  0.18613  0.50082  Biso   1.000  N
  N39      1.0000 0.48111  0.30854  0.15983  Biso   1.000  N
  N40      1.0000 0.67605  0.50058  0.16954  Biso   1.000  N
  N41      1.0000 0.80553  0.16944  0.01198  Biso   1.000  N
  N42      1.0000 0.96671  0.31456  0.34011  Biso   1.000  N
  N43      1.0000 0.30289  0.97588  0.33812  Biso   1.000  N
  N44      1.0000 0.15246  0.68309  0.50868  Biso   1.000  N
  N45      1.0000 0.00204  0.81415  0.16842  Biso   1.000  N
  N46      1.0000 0.80143  0.95969  0.17133  Biso   1.000  N
  N47      1.0000 0.66871  0.66578  0.98695  Biso   1.000  N
  N48      1.0000 0.47256  0.80705  0.33318  Biso   1.000  N
  O1       1.0000 0.32690  0.54122  0.00952  Biso   1.000  O
  O2       1.0000 0.99824  0.34086  0.55549  Biso   1.000  O
  O3       1.0000 0.52081  0.98909  0.34618  Biso   1.000  O
  O4       1.0000 0.81825  0.53002  0.50298  Biso   1.000  O
  O5       1.0000 0.48258  0.34826  0.94744  Biso   1.000  O
  O6       1.0000 0.01677  0.00058  0.16841  Biso   1.000  O
  O7       1.0000 0.13912  0.04508  0.01426  Biso   1.000  O
  O8       1.0000 0.48511  0.83715  0.54942  Biso   1.000  O
  O9       1.0000 0.95651  0.49606  0.34531  Biso   1.000  O
  O10      1.0000 0.64648  0.03403  0.49666  Biso   1.000  O
  O11      1.0000 0.98821  0.84495  0.95268  Biso   1.000  O
  O12      1.0000 0.45379  0.47742  0.16287  Biso   1.000  O
  O13      1.0000 0.64028  0.45151  0.99236  Biso   1.000  O
  O14      1.0000 0.98311  0.65050  0.44964  Biso   1.000  O
  O15      1.0000 0.45745  0.00494  0.65731  Biso   1.000  O
  O16      1.0000 0.14206  0.46267  0.50649  Biso   1.000  O
  O17      1.0000 0.49602  0.64577  0.05707  Biso   1.000  O
  O18      1.0000 0.95399  0.00508  0.84678  Biso   1.000  O
  O19      1.0000 0.83043  0.95362  0.99750  Biso   1.000  O
  O20      1.0000 0.49467  0.14702  0.44523  Biso   1.000  O
  O21      1.0000 0.01115  0.50126  0.66334  Biso   1.000  O
  O22      1.0000 0.33411  0.96389  0.51165  Biso   1.000  O
  O23      1.0000 0.98103  0.15386  0.06044  Biso   1.000  O
  O24      1.0000 0.51177  0.50188  0.84189  Biso   1.000  O
  O25      1.0000 0.93900  0.97426  0.16180  Biso   1.000  O
  O26      1.0000 0.14328  0.95906  0.01270  Biso   1.000  O
  O27      1.0000 0.97893  0.15718  0.97446  Biso   1.000  O
  O28      1.0000 0.43603  0.97685  0.34669  Biso   1.000  O
  O29      1.0000 0.63867  0.95110  0.49617  Biso   1.000  O
  O30      1.0000 0.48827  0.15858  0.52564  Biso   1.000  O
  O31      1.0000 0.54051  0.48377  0.15503  Biso   1.000  O
  O32      1.0000 0.32277  0.45696  0.01641  Biso   1.000  O
  O33      1.0000 0.49128  0.65305  0.97375  Biso   1.000  O
  O34      1.0000 0.03829  0.47588  0.35256  Biso   1.000  O
  O35      1.0000 0.82602  0.44873  0.49052  Biso   1.000  O
  O36      1.0000 0.97747  0.64977  0.53549  Biso   1.000  O
  O37      1.0000 0.03502  0.01261  0.85379  Biso   1.000  O
  O38      1.0000 0.82837  0.03601  0.00489  Biso   1.000  O
  O39      1.0000 0.00154  0.83754  0.03549  Biso   1.000  O
  O40      1.0000 0.54169  0.99791  0.65450  Biso   1.000  O
  O41      1.0000 0.33735  0.04803  0.51484  Biso   1.000  O
  O42      1.0000 0.47330  0.83508  0.46417  Biso   1.000  O
  O43      1.0000 0.42889  0.50733  0.85007  Biso   1.000  O
  O44      1.0000 0.64697  0.53236  0.99980  Biso   1.000  O
  O45      1.0000 0.47510  0.33974  0.03022  Biso   1.000  O
  O46      1.0000 0.92622  0.50704  0.65582  Biso   1.000  O
  O47      1.0000 0.13221  0.54767  0.51323  Biso   1.000  O
  O48      1.0000 0.98775  0.33890  0.47154  Biso   1.000  O
  O49      1.0000 0.98785  0.94869  0.16106  Biso   1.000  O
  O50      1.0000 0.14799  0.00441  0.97385  Biso   1.000  O
  O51      1.0000 0.94055  0.15287  0.01657  Biso   1.000  O
  O52      1.0000 0.48503  0.94274  0.34602  Biso   1.000  O
  O53      1.0000 0.65007  0.99343  0.53834  Biso   1.000  O
  O54      1.0000 0.45088  0.15799  0.48027  Biso   1.000  O
  O55      1.0000 0.50251  0.44027  0.15291  Biso   1.000  O
  O56      1.0000 0.31930  0.49381  0.96947  Biso   1.000  O
  O57      1.0000 0.53515  0.65002  0.01070  Biso   1.000  O
  O58      1.0000 0.98628  0.44718  0.34893  Biso   1.000  O
  O59      1.0000 0.82055  0.48098  0.53890  Biso   1.000  O
  O60      1.0000 0.01996  0.65739  0.49657  Biso   1.000  O
  O61      1.0000 0.98654  0.04796  0.85645  Biso   1.000  O
  O62      1.0000 0.82612  0.99023  0.03842  Biso   1.000  O
  O63      1.0000 0.03434  0.83753  0.98744  Biso   1.000  O
  O64      1.0000 0.49970  0.04432  0.65208  Biso   1.000  O
  O65      1.0000 0.33368  0.00723  0.46531  Biso   1.000  O
  O66      1.0000 0.52158  0.83299  0.50044  Biso   1.000  O
  O67      1.0000 0.47495  0.54578  0.85005  Biso   1.000  O
  O68      1.0000 0.64894  0.48586  0.03691  Biso   1.000  O
  O69      1.0000 0.43695  0.34510  0.98515  Biso   1.000  O
  O70      1.0000 0.97164  0.54616  0.66085  Biso   1.000  O
  O71      1.0000 0.14177  0.50711  0.47042  Biso   1.000  O
  O72      1.0000 0.95048  0.33670  0.51380  Biso   1.000  O
  O73      1.0000 0.96259  0.46326  0.66506  Biso   1.000  O
  O74      1.0000 0.64356  0.99335  0.45267  Biso   1.000  O
  O75      1.0000 0.45175  0.64998  0.01578  Biso   1.000  O
  O76      1.0000 0.46933  0.46233  0.84047  Biso   1.000  O
  O77      1.0000 0.13815  0.99892  0.05878  Biso   1.000  O
  O78      1.0000 0.93514  0.64793  0.48707  Biso   1.000  O
  O79      1.0000 0.49672  0.95865  0.65905  Biso   1.000  O
  O80      1.0000 0.82727  0.49425  0.45649  Biso   1.000  O
  O81      1.0000 0.02426  0.15670  0.01602  Biso   1.000  O
  O82      1.0000 0.99975  0.96266  0.85009  Biso   1.000  O
  O83      1.0000 0.33306  0.50125  0.05154  Biso   1.000  O
  O84      1.0000 0.53317  0.15250  0.48837  Biso   1.000  O
  O85      1.0000 0.00564  0.52934  0.34216  Biso   1.000  O
  O86      1.0000 0.33462  0.00658  0.55450  Biso   1.000  O
  O87      1.0000 0.51876  0.33875  0.99033  Biso   1.000  O
  O88      1.0000 0.48896  0.52342  0.16301  Biso   1.000  O
  O89      1.0000 0.82980  0.00150  0.95703  Biso   1.000  O
  O90      1.0000 0.03200  0.34283  0.50631  Biso   1.000  O
  O91      1.0000 0.47575  0.02576  0.34179  Biso   1.000  O
  O92      1.0000 0.12997  0.50265  0.55330  Biso   1.000  O
  O93      1.0000 0.95213  0.84262  0.99875  Biso   1.000  O
  O94      1.0000 0.96507  0.02790  0.16381  Biso   1.000  O
  O95      1.0000 0.63987  0.49659  0.95118  Biso   1.000  O
  O96      1.0000 0.43957  0.83813  0.51669  Biso   1.000  O
  O97      1.0000 0.45514  0.20603  0.47766  Biso   1.000  O
  O98      1.0000 0.51097  0.43704  0.20037  Biso   1.000  O
  O99      1.0000 0.18945  0.51106  0.47566  Biso   1.000  O
  O100     1.0000 0.94062  0.20117  0.02338  Biso   1.000  O
  O101     1.0000 0.98485  0.44372  0.30019  Biso   1.000  O
  O102     1.0000 0.69692  0.48925  0.03018  Biso   1.000  O
  O103     1.0000 0.01602  0.70591  0.49830  Biso   1.000  O
  O104     1.0000 0.98343  0.94522  0.20833  Biso   1.000  O
  O105     1.0000 0.28454  0.01216  0.47181  Biso   1.000  O
  O106     1.0000 0.53569  0.69842  0.01667  Biso   1.000  O
  O107     1.0000 0.48285  0.93987  0.29796  Biso   1.000  O
  O108     1.0000 0.77678  0.98606  0.03999  Biso   1.000  O
  O109     1.0000 0.51718  0.78573  0.50787  Biso   1.000  O
  O110     1.0000 0.46819  0.55164  0.80175  Biso   1.000  O
  O111     1.0000 0.77089  0.48373  0.53529  Biso   1.000  O
  O112     1.0000 0.03648  0.78976  0.98095  Biso   1.000  O
  O113     1.0000 0.97188  0.54969  0.70925  Biso   1.000  O
  O114     1.0000 0.27248  0.49694  0.97920  Biso   1.000  O
  O115     1.0000 0.95074  0.28898  0.52220  Biso   1.000  O
  O116     1.0000 0.98946  0.05067  0.80782  Biso   1.000  O
  O117     1.0000 0.69733  0.98817  0.53181  Biso   1.000  O
  O118     1.0000 0.43153  0.29722  0.97784  Biso   1.000  O
  O119     1.0000 0.49883  0.04902  0.70166  Biso   1.000  O
  O120     1.0000 0.19583  0.00759  0.97507  Biso   1.000  O
  O121     1.0000 0.00586  0.50477  0.71113  Biso   1.000  O
  O122     1.0000 0.69737  0.03247  0.49448  Biso   1.000  O
  O123     1.0000 0.50007  0.69469  0.06148  Biso   1.000  O
  O124     1.0000 0.51110  0.50904  0.79426  Biso   1.000  O
  O125     1.0000 0.18720  0.04480  0.02238  Biso   1.000  O
  O126     1.0000 0.98082  0.69939  0.44774  Biso   1.000  O
  O127     1.0000 0.45975  0.00525  0.70474  Biso   1.000  O
  O128     1.0000 0.77024  0.52713  0.49699  Biso   1.000  O
  O129     1.0000 0.98468  0.20234  0.06454  Biso   1.000  O
  O130     1.0000 0.95741  0.00132  0.79698  Biso   1.000  O
  O131     1.0000 0.27811  0.54252  0.01595  Biso   1.000  O
  O132     1.0000 0.49857  0.19422  0.43896  Biso   1.000  O
  O133     1.0000 0.95777  0.49491  0.29623  Biso   1.000  O
  O134     1.0000 0.28469  0.96686  0.51037  Biso   1.000  O
  O135     1.0000 0.47888  0.29981  0.94515  Biso   1.000  O
  O136     1.0000 0.45778  0.46999  0.21156  Biso   1.000  O
  O137     1.0000 0.78225  0.95110  0.99101  Biso   1.000  O
  O138     1.0000 0.99418  0.29163  0.55823  Biso   1.000  O
  O139     1.0000 0.52040  0.98703  0.29742  Biso   1.000  O
  O140     1.0000 0.19040  0.46513  0.51420  Biso   1.000  O
  O141     1.0000 0.98610  0.79527  0.95139  Biso   1.000  O
  O142     1.0000 0.01649  0.99353  0.21798  Biso   1.000  O
  O143     1.0000 0.68922  0.44747  0.98557  Biso   1.000  O
  O144     1.0000 0.48386  0.78821  0.55247  Biso   1.000  O
  O145     1.0000 0.54320  0.48860  0.20403  Biso   1.000  O
  O146     1.0000 0.18034  0.54886  0.51754  Biso   1.000  O
  O147     1.0000 0.49447  0.20696  0.52345  Biso   1.000  O
  O148     1.0000 0.03821  0.47526  0.30315  Biso   1.000  O
  O149     1.0000 0.69398  0.52996  0.98438  Biso   1.000  O
  O150     1.0000 0.98260  0.20783  0.97877  Biso   1.000  O
  O151     1.0000 0.93464  0.97928  0.21004  Biso   1.000  O
  O152     1.0000 0.28805  0.05322  0.51200  Biso   1.000  O
  O153     1.0000 0.96759  0.69925  0.53274  Biso   1.000  O
  O154     1.0000 0.43651  0.97669  0.29694  Biso   1.000  O
  O155     1.0000 0.77851  0.03413  0.00433  Biso   1.000  O
  O156     1.0000 0.48987  0.70112  0.97885  Biso   1.000  O
  O157     1.0000 0.42539  0.51025  0.80148  Biso   1.000  O
  O158     1.0000 0.77815  0.44470  0.49157  Biso   1.000  O
  O159     1.0000 0.47165  0.78630  0.47020  Biso   1.000  O
  O160     1.0000 0.92285  0.51443  0.70491  Biso   1.000  O
  O161     1.0000 0.27553  0.45964  0.02328  Biso   1.000  O
  O162     1.0000 0.00275  0.78866  0.03503  Biso   1.000  O
  O163     1.0000 0.03964  0.01883  0.80540  Biso   1.000  O
  O164     1.0000 0.68856  0.95005  0.49200  Biso   1.000  O
  O165     1.0000 0.98857  0.28985  0.47309  Biso   1.000  O
  O166     1.0000 0.54301  0.00685  0.70296  Biso   1.000  O
  O167     1.0000 0.19116  0.96236  0.01896  Biso   1.000  O
  O168     1.0000 0.46426  0.29082  0.02503  Biso   1.000  O
  O169     1.0000 0.96850  0.02702  0.21246  Biso   1.000  O
  O170     1.0000 0.18534  0.00620  0.06129  Biso   1.000  O
  O171     1.0000 0.02592  0.20584  0.02005  Biso   1.000  O
  O172     1.0000 0.47068  0.02128  0.29250  Biso   1.000  O
  O173     1.0000 0.69228  0.99487  0.45027  Biso   1.000  O
  O174     1.0000 0.53785  0.20084  0.48737  Biso   1.000  O
  O175     1.0000 0.49493  0.51836  0.21132  Biso   1.000  O
  O176     1.0000 0.28611  0.49837  0.06332  Biso   1.000  O
  O177     1.0000 0.45219  0.69767  0.02824  Biso   1.000  O
  O178     1.0000 0.00925  0.52462  0.29387  Biso   1.000  O
  O179     1.0000 0.77936  0.49002  0.45060  Biso   1.000  O
  O180     1.0000 0.93302  0.69654  0.48531  Biso   1.000  O
  O181     1.0000 0.00831  0.96849  0.80225  Biso   1.000  O
  O182     1.0000 0.78182  0.99772  0.95593  Biso   1.000  O
  O183     1.0000 0.95241  0.79430  0.99846  Biso   1.000  O
  O184     1.0000 0.50289  0.96281  0.70785  Biso   1.000  O
  O185     1.0000 0.28622  0.01066  0.55450  Biso   1.000  O
  O186     1.0000 0.43563  0.79029  0.51910  Biso   1.000  O
  O187     1.0000 0.46339  0.46706  0.79143  Biso   1.000  O
  O188     1.0000 0.68687  0.48969  0.94468  Biso   1.000  O
  O189     1.0000 0.51724  0.28826  0.98518  Biso   1.000  O
  O190     1.0000 0.96271  0.46525  0.71345  Biso   1.000  O
  O191     1.0000 0.17821  0.50906  0.55751  Biso   1.000  O
  O192     1.0000 0.03532  0.29400  0.50615  Biso   1.000  O
