data_image0
_cell_length_a       46.6574
_cell_length_b       46.6031
_cell_length_c       46.6316
_cell_angle_alpha    90
_cell_angle_beta     90
_cell_angle_gamma    90

_symmetry_space_group_name_H-M    "P 1"
_symmetry_int_tables_number       1

loop_
  _symmetry_equiv_pos_as_xyz
  'x, y, z'

loop_
  _atom_site_label
  _atom_site_occupancy
  _atom_site_fract_x
  _atom_site_fract_y
  _atom_site_fract_z
  _atom_site_thermal_displace_type
  _atom_site_B_iso_or_equiv
  _atom_site_type_symbol
  C1       1.0000 0.57031  0.98428  0.33606  Biso   1.000  C
  C2       1.0000 0.32973  0.54148  0.00687  Biso   1.000  C
  C3       1.0000 0.00938  0.31074  0.58035  Biso   1.000  C
  C4       1.0000 0.06459  0.99138  0.19858  Biso   1.000  C
  C5       1.0000 0.83015  0.54565  0.51914  Biso   1.000  C
  C6       1.0000 0.51562  0.30708  0.96114  Biso   1.000  C
  C7       1.0000 0.94953  0.48587  0.33913  Biso   1.000  C
  C8       1.0000 0.18556  0.03926  0.02428  Biso   1.000  C
  C9       1.0000 0.51287  0.80337  0.57146  Biso   1.000  C
  C10      1.0000 0.45126  0.47843  0.18765  Biso   1.000  C
  C11      1.0000 0.68773  0.04093  0.53209  Biso   1.000  C
  C12      1.0000 0.00221  0.81183  0.95508  Biso   1.000  C
  C13      1.0000 0.45224  0.98300  0.69596  Biso   1.000  C
  C14      1.0000 0.68936  0.43629  0.03200  Biso   1.000  C
  C15      1.0000 0.01070  0.66565  0.45647  Biso   1.000  C
  C16      1.0000 0.95591  0.99223  0.84219  Biso   1.000  C
  C17      1.0000 0.19435  0.43440  0.50621  Biso   1.000  C
  C18      1.0000 0.51584  0.67123  0.06913  Biso   1.000  C
  C19      1.0000 0.07135  0.48225  0.68918  Biso   1.000  C
  C20      1.0000 0.82575  0.93612  0.02322  Biso   1.000  C
  C21      1.0000 0.51994  0.17095  0.46446  Biso   1.000  C
  C22      1.0000 0.57330  0.48536  0.83984  Biso   1.000  C
  C23      1.0000 0.33834  0.93186  0.50587  Biso   1.000  C
  C24      1.0000 0.01758  0.17227  0.08491  Biso   1.000  C
  C25      1.0000 0.33344  0.04150  0.51419  Biso   1.000  C
  C26      1.0000 0.50041  0.30621  0.06898  Biso   1.000  C
  C27      1.0000 0.06005  0.48029  0.32794  Biso   1.000  C
  C28      1.0000 0.82426  0.04576  0.01844  Biso   1.000  C
  C29      1.0000 0.01205  0.30850  0.47346  Biso   1.000  C
  C30      1.0000 0.55802  0.49588  0.19900  Biso   1.000  C
  C31      1.0000 0.19673  0.54266  0.49306  Biso   1.000  C
  C32      1.0000 0.00456  0.80769  0.06239  Biso   1.000  C
  C33      1.0000 0.46293  0.99265  0.33349  Biso   1.000  C
  C34      1.0000 0.69041  0.54520  0.02286  Biso   1.000  C
  C35      1.0000 0.52168  0.80929  0.46217  Biso   1.000  C
  C36      1.0000 0.95573  0.98577  0.19688  Biso   1.000  C
  C37      1.0000 0.69015  0.93374  0.51018  Biso   1.000  C
  C38      1.0000 0.50025  0.66844  0.96044  Biso   1.000  C
  C39      1.0000 0.96468  0.50315  0.69859  Biso   1.000  C
  C40      1.0000 0.18656  0.93051  0.00706  Biso   1.000  C
  C41      1.0000 0.01769  0.67216  0.56346  Biso   1.000  C
  C42      1.0000 0.46656  0.48699  0.83034  Biso   1.000  C
  C43      1.0000 0.82655  0.43616  0.53073  Biso   1.000  C
  C44      1.0000 0.99833  0.17082  0.97533  Biso   1.000  C
  C45      1.0000 0.56052  0.99370  0.69849  Biso   1.000  C
  C46      1.0000 0.32912  0.43258  0.00066  Biso   1.000  C
  C47      1.0000 0.50121  0.17261  0.57534  Biso   1.000  C
  C48      1.0000 0.06589  0.00683  0.83443  Biso   1.000  C
  C49      1.0000 0.00613  0.05154  0.84236  Biso   1.000  C
  C50      1.0000 0.82889  0.99515  0.07464  Biso   1.000  C
  C51      1.0000 0.05616  0.81013  0.00856  Biso   1.000  C
  C52      1.0000 0.50297  0.04186  0.70073  Biso   1.000  C
  C53      1.0000 0.33121  0.98679  0.45660  Biso   1.000  C
  C54      1.0000 0.57153  0.80321  0.52083  Biso   1.000  C
  C55      1.0000 0.52102  0.54146  0.83829  Biso   1.000  C
  C56      1.0000 0.69084  0.49743  0.08212  Biso   1.000  C
  C57      1.0000 0.45125  0.30368  0.00871  Biso   1.000  C
  C58      1.0000 0.02504  0.54866  0.69297  Biso   1.000  C
  C59      1.0000 0.19366  0.48783  0.44468  Biso   1.000  C
  C60      1.0000 0.95486  0.31061  0.52553  Biso   1.000  C
  C61      1.0000 0.01495  0.93204  0.19637  Biso   1.000  C
  C62      1.0000 0.18950  0.99380  0.96072  Biso   1.000  C
  C63      1.0000 0.95322  0.17179  0.04262  Biso   1.000  C
  C64      1.0000 0.51697  0.93665  0.33371  Biso   1.000  C
  C65      1.0000 0.69148  0.98136  0.57525  Biso   1.000  C
  C66      1.0000 0.45570  0.17322  0.50832  Biso   1.000  C
  C67      1.0000 0.51438  0.43394  0.19408  Biso   1.000  C
  C68      1.0000 0.32973  0.49141  0.94925  Biso   1.000  C
  C69      1.0000 0.56064  0.66636  0.01008  Biso   1.000  C
  C70      1.0000 0.00066  0.42578  0.33457  Biso   1.000  C
  C71      1.0000 0.83195  0.49675  0.58232  Biso   1.000  C
  C72      1.0000 0.07181  0.66798  0.51285  Biso   1.000  C
  C73      1.0000 0.01164  0.53672  0.33063  Biso   1.000  C
  C74      1.0000 0.33605  0.98311  0.56427  Biso   1.000  C
  C75      1.0000 0.55842  0.30578  0.01833  Biso   1.000  C
  C76      1.0000 0.49865  0.54241  0.19205  Biso   1.000  C
  C77      1.0000 0.82949  0.98622  0.96570  Biso   1.000  C
  C78      1.0000 0.06465  0.30866  0.53049  Biso   1.000  C
  C79      1.0000 0.52014  0.04664  0.34005  Biso   1.000  C
  C80      1.0000 0.19510  0.48993  0.55327  Biso   1.000  C
  C81      1.0000 0.94921  0.80818  0.01604  Biso   1.000  C
  C82      1.0000 0.00566  0.03935  0.20721  Biso   1.000  C
  C83      1.0000 0.68832  0.48804  0.97469  Biso   1.000  C
  C84      1.0000 0.46418  0.80338  0.51192  Biso   1.000  C
  C85      1.0000 0.01002  0.44225  0.69632  Biso   1.000  C
  C86      1.0000 0.69180  0.99703  0.46860  Biso   1.000  C
  C87      1.0000 0.45297  0.66961  0.02074  Biso   1.000  C
  C88      1.0000 0.52160  0.43054  0.83769  Biso   1.000  C
  C89      1.0000 0.18927  0.97710  0.06675  Biso   1.000  C
  C90      1.0000 0.96361  0.66551  0.51524  Biso   1.000  C
  C91      1.0000 0.51090  0.93191  0.69598  Biso   1.000  C
  C92      1.0000 0.83106  0.48875  0.47327  Biso   1.000  C
  C93      1.0000 0.06018  0.16718  0.02006  Biso   1.000  C
  C94      1.0000 0.01665  0.94478  0.83396  Biso   1.000  C
  C95      1.0000 0.32613  0.48340  0.05742  Biso   1.000  C
  C96      1.0000 0.56254  0.16681  0.53043  Biso   1.000  C
  C97      1.0000 0.68856  0.07311  0.53969  Biso   1.000  C
  C98      1.0000 0.52271  0.67206  0.09917  Biso   1.000  C
  C99      1.0000 0.10392  0.48032  0.68720  Biso   1.000  C
  C100     1.0000 0.18397  0.07082  0.02005  Biso   1.000  C
  C101     1.0000 0.00149  0.66405  0.42621  Biso   1.000  C
  C102     1.0000 0.60462  0.48962  0.84188  Biso   1.000  C
  C103     1.0000 0.83042  0.57699  0.51191  Biso   1.000  C
  C104     1.0000 0.01391  0.17156  0.11717  Biso   1.000  C
  C105     1.0000 0.42104  0.98893  0.69597  Biso   1.000  C
  C106     1.0000 0.32809  0.57224  0.00036  Biso   1.000  C
  C107     1.0000 0.51499  0.17272  0.43203  Biso   1.000  C
  C108     1.0000 0.92574  0.98550  0.83944  Biso   1.000  C
  C109     1.0000 0.33857  0.90003  0.50796  Biso   1.000  C
  C110     1.0000 0.52793  0.30584  0.93254  Biso   1.000  C
  C111     1.0000 0.91886  0.49324  0.34237  Biso   1.000  C
  C112     1.0000 0.82667  0.90416  0.02558  Biso   1.000  C
  C113     1.0000 0.00923  0.31099  0.61233  Biso   1.000  C
  C114     1.0000 0.42056  0.47369  0.18588  Biso   1.000  C
  C115     1.0000 0.19334  0.40276  0.51272  Biso   1.000  C
  C116     1.0000 0.00377  0.81307  0.92271  Biso   1.000  C
  C117     1.0000 0.60257  0.98307  0.33641  Biso   1.000  C
  C118     1.0000 0.68781  0.40501  0.03236  Biso   1.000  C
  C119     1.0000 0.51144  0.80399  0.60271  Biso   1.000  C
  C120     1.0000 0.09642  0.98926  0.19819  Biso   1.000  C
  C121     1.0000 0.82863  0.99852  0.10533  Biso   1.000  C
  C122     1.0000 0.08902  0.80893  0.00837  Biso   1.000  C
  C123     1.0000 0.00387  0.08400  0.84296  Biso   1.000  C
  C124     1.0000 0.33366  0.98401  0.42444  Biso   1.000  C
  C125     1.0000 0.60359  0.80383  0.51887  Biso   1.000  C
  C126     1.0000 0.49859  0.07380  0.70006  Biso   1.000  C
  C127     1.0000 0.69082  0.50309  0.11428  Biso   1.000  C
  C128     1.0000 0.41855  0.30347  0.00541  Biso   1.000  C
  C129     1.0000 0.51593  0.57283  0.83729  Biso   1.000  C
  C130     1.0000 0.19214  0.48662  0.41259  Biso   1.000  C
  C131     1.0000 0.92317  0.31018  0.53112  Biso   1.000  C
  C132     1.0000 0.02726  0.58073  0.69305  Biso   1.000  C
  C133     1.0000 0.19118  0.99166  0.92904  Biso   1.000  C
  C134     1.0000 0.92168  0.17296  0.04850  Biso   1.000  C
  C135     1.0000 0.01544  0.89976  0.19386  Biso   1.000  C
  C136     1.0000 0.69081  0.98504  0.60681  Biso   1.000  C
  C137     1.0000 0.42416  0.17350  0.50616  Biso   1.000  C
  C138     1.0000 0.51922  0.90385  0.33456  Biso   1.000  C
  C139     1.0000 0.33214  0.49328  0.91714  Biso   1.000  C
  C140     1.0000 0.59208  0.66733  0.00998  Biso   1.000  C
  C141     1.0000 0.51725  0.40244  0.19456  Biso   1.000  C
  C142     1.0000 0.83355  0.50266  0.61372  Biso   1.000  C
  C143     1.0000 0.10237  0.66535  0.52043  Biso   1.000  C
  C144     1.0000 0.99656  0.39536  0.34091  Biso   1.000  C
  C145     1.0000 0.32566  0.47535  0.08885  Biso   1.000  C
  C146     1.0000 0.09623  0.31006  0.52907  Biso   1.000  C
  C147     1.0000 0.52337  0.07776  0.33931  Biso   1.000  C
  C148     1.0000 0.82863  0.49404  0.44144  Biso   1.000  C
  C149     1.0000 0.59058  0.30736  0.02158  Biso   1.000  C
  C150     1.0000 0.00114  0.07148  0.20843  Biso   1.000  C
  C151     1.0000 0.18911  0.97384  0.09965  Biso   1.000  C
  C152     1.0000 0.43177  0.80240  0.51057  Biso   1.000  C
  C153     1.0000 0.01121  0.56829  0.32943  Biso   1.000  C
  C154     1.0000 0.69314  0.99540  0.43567  Biso   1.000  C
  C155     1.0000 0.91783  0.80842  0.02177  Biso   1.000  C
  C156     1.0000 0.50364  0.57473  0.19204  Biso   1.000  C
  C157     1.0000 0.68951  0.48527  0.94304  Biso   1.000  C
  C158     1.0000 0.93092  0.66741  0.51554  Biso   1.000  C
  C159     1.0000 0.51464  0.89920  0.69569  Biso   1.000  C
  C160     1.0000 0.19584  0.49256  0.58512  Biso   1.000  C
  C161     1.0000 0.42033  0.66977  0.01930  Biso   1.000  C
  C162     1.0000 0.01837  0.91176  0.83241  Biso   1.000  C
  C163     1.0000 0.83060  0.98296  0.93325  Biso   1.000  C
  C164     1.0000 0.59530  0.16846  0.53325  Biso   1.000  C
  C165     1.0000 0.00945  0.41081  0.69958  Biso   1.000  C
  C166     1.0000 0.33333  0.98505  0.59708  Biso   1.000  C
  C167     1.0000 0.09213  0.16726  0.01736  Biso   1.000  C
  C168     1.0000 0.52472  0.39855  0.83693  Biso   1.000  C
  C169     1.0000 0.00663  0.80770  0.09432  Biso   1.000  C
  C170     1.0000 0.09866  0.01202  0.83282  Biso   1.000  C
  C171     1.0000 0.82378  0.07795  0.02286  Biso   1.000  C
  C172     1.0000 0.52382  0.81128  0.43043  Biso   1.000  C
  C173     1.0000 0.59390  0.99816  0.69735  Biso   1.000  C
  C174     1.0000 0.33114  0.07420  0.51437  Biso   1.000  C
  C175     1.0000 0.50013  0.30531  0.10116  Biso   1.000  C
  C176     1.0000 0.43392  0.48571  0.82855  Biso   1.000  C
  C177     1.0000 0.69025  0.57654  0.01606  Biso   1.000  C
  C178     1.0000 0.01663  0.30625  0.44105  Biso   1.000  C
  C179     1.0000 0.93232  0.50301  0.70066  Biso   1.000  C
  C180     1.0000 0.19607  0.57411  0.48951  Biso   1.000  C
  C181     1.0000 0.99826  0.17216  0.94287  Biso   1.000  C
  C182     1.0000 0.92480  0.99086  0.19898  Biso   1.000  C
  C183     1.0000 0.18635  0.89836  0.00432  Biso   1.000  C
  C184     1.0000 0.50215  0.17057  0.60678  Biso   1.000  C
  C185     1.0000 0.43012  0.99245  0.33308  Biso   1.000  C
  C186     1.0000 0.69239  0.90337  0.50168  Biso   1.000  C
  C187     1.0000 0.49534  0.66650  0.92967  Biso   1.000  C
  C188     1.0000 0.59010  0.49830  0.20281  Biso   1.000  C
  C189     1.0000 0.32722  0.40088  0.00454  Biso   1.000  C
  C190     1.0000 0.01882  0.67217  0.59591  Biso   1.000  C
  C191     1.0000 0.09209  0.48136  0.32479  Biso   1.000  C
  C192     1.0000 0.82442  0.40326  0.53202  Biso   1.000  C
  C193     1.0000 0.85710  0.98476  0.91664  Biso   1.000  C
  C194     1.0000 0.90381  0.83681  0.02456  Biso   1.000  C
  C195     1.0000 0.01139  0.89268  0.85673  Biso   1.000  C
  C196     1.0000 0.35805  0.98684  0.61447  Biso   1.000  C
  C197     1.0000 0.41665  0.83067  0.50948  Biso   1.000  C
  C198     1.0000 0.51715  0.88536  0.66793  Biso   1.000  C
  C199     1.0000 0.66420  0.48871  0.92346  Biso   1.000  C
  C200     1.0000 0.60662  0.33555  0.02440  Biso   1.000  C
  C201     1.0000 0.52723  0.38293  0.86378  Biso   1.000  C
  C202     1.0000 0.16945  0.48867  0.60228  Biso   1.000  C
  C203     1.0000 0.11213  0.33544  0.52494  Biso   1.000  C
  C204     1.0000 0.01107  0.39192  0.67375  Biso   1.000  C
  C205     1.0000 0.16198  0.97738  0.11680  Biso   1.000  C
  C206     1.0000 0.10656  0.13969  0.02042  Biso   1.000  C
  C207     1.0000 0.00676  0.08818  0.18272  Biso   1.000  C
  C208     1.0000 0.66616  0.99104  0.41977  Biso   1.000  C
  C209     1.0000 0.60962  0.14125  0.53368  Biso   1.000  C
  C210     1.0000 0.52153  0.09481  0.36516  Biso   1.000  C
  C211     1.0000 0.35160  0.47876  0.10618  Biso   1.000  C
  C212     1.0000 0.40454  0.64187  0.01408  Biso   1.000  C
  C213     1.0000 0.51118  0.59086  0.16560  Biso   1.000  C
  C214     1.0000 0.85459  0.49868  0.42409  Biso   1.000  C
  C215     1.0000 0.91373  0.64025  0.51439  Biso   1.000  C
  C216     1.0000 0.00634  0.58495  0.35561  Biso   1.000  C
  C217     1.0000 0.11592  0.00927  0.86009  Biso   1.000  C
  C218     1.0000 0.85196  0.09341  0.02719  Biso   1.000  C
  C219     1.0000 0.00941  0.83416  0.11105  Biso   1.000  C
  C220     1.0000 0.61017  0.99099  0.67241  Biso   1.000  C
  C221     1.0000 0.35824  0.09115  0.51090  Biso   1.000  C
  C222     1.0000 0.52123  0.83736  0.41309  Biso   1.000  C
  C223     1.0000 0.41553  0.48629  0.85403  Biso   1.000  C
  C224     1.0000 0.66356  0.59034  0.01171  Biso   1.000  C
  C225     1.0000 0.50440  0.33325  0.11658  Biso   1.000  C
  C226     1.0000 0.91358  0.50159  0.67558  Biso   1.000  C
  C227     1.0000 0.16913  0.59073  0.49064  Biso   1.000  C
  C228     1.0000 0.01465  0.33408  0.42451  Biso   1.000  C
  C229     1.0000 0.90762  0.99411  0.17352  Biso   1.000  C
  C230     1.0000 0.15986  0.88205  0.00627  Biso   1.000  C
  C231     1.0000 0.99932  0.14587  0.92546  Biso   1.000  C
  C232     1.0000 0.41327  0.99102  0.35897  Biso   1.000  C
  C233     1.0000 0.66721  0.88571  0.50665  Biso   1.000  C
  C234     1.0000 0.50170  0.14253  0.62200  Biso   1.000  C
  C235     1.0000 0.60796  0.50052  0.17635  Biso   1.000  C
  C236     1.0000 0.35349  0.38270  0.00569  Biso   1.000  C
  C237     1.0000 0.50003  0.63842  0.91308  Biso   1.000  C
  C238     1.0000 0.11174  0.48629  0.34945  Biso   1.000  C
  C239     1.0000 0.85385  0.38845  0.53095  Biso   1.000  C
  C240     1.0000 0.01858  0.64617  0.61292  Biso   1.000  C
  C241     1.0000 0.61961  0.48887  0.86821  Biso   1.000  C
  C242     1.0000 0.85829  0.59138  0.51129  Biso   1.000  C
  C243     1.0000 0.51623  0.83162  0.61701  Biso   1.000  C
  C244     1.0000 0.11748  0.48286  0.65842  Biso   1.000  C
  C245     1.0000 0.35480  0.58971  0.00301  Biso   1.000  C
  C246     1.0000 0.00553  0.84112  0.90791  Biso   1.000  C
  C247     1.0000 0.90789  0.98301  0.86483  Biso   1.000  C
  C248     1.0000 0.66080  0.08834  0.53976  Biso   1.000  C
  C249     1.0000 0.00783  0.33933  0.62618  Biso   1.000  C
  C250     1.0000 0.40674  0.98927  0.66825  Biso   1.000  C
  C251     1.0000 0.15695  0.08629  0.01916  Biso   1.000  C
  C252     1.0000 0.53081  0.33274  0.91677  Biso   1.000  C
  C253     1.0000 0.40398  0.47749  0.15979  Biso   1.000  C
  C254     1.0000 0.16625  0.38719  0.51842  Biso   1.000  C
  C255     1.0000 0.51713  0.14575  0.41587  Biso   1.000  C
  C256     1.0000 0.90479  0.49660  0.37103  Biso   1.000  C
  C257     1.0000 0.66112  0.38873  0.03095  Biso   1.000  C
  C258     1.0000 0.01353  0.14464  0.13264  Biso   1.000  C
  C259     1.0000 0.11041  0.98529  0.16996  Biso   1.000  C
  C260     1.0000 0.36573  0.88367  0.50974  Biso   1.000  C
  C261     1.0000 0.00363  0.63651  0.40919  Biso   1.000  C
  C262     1.0000 0.61586  0.98418  0.36492  Biso   1.000  C
  C263     1.0000 0.85415  0.88848  0.02660  Biso   1.000  C
  C264     1.0000 0.52099  0.64399  0.11421  Biso   1.000  C
  C265     1.0000 0.00386  0.09714  0.87076  Biso   1.000  C
  C266     1.0000 0.85530  0.99252  0.12211  Biso   1.000  C
  C267     1.0000 0.10696  0.83487  0.00814  Biso   1.000  C
  C268     1.0000 0.49660  0.08960  0.67332  Biso   1.000  C
  C269     1.0000 0.36167  0.98424  0.40958  Biso   1.000  C
  C270     1.0000 0.61838  0.83154  0.51350  Biso   1.000  C
  C271     1.0000 0.51439  0.59042  0.86473  Biso   1.000  C
  C272     1.0000 0.66246  0.50286  0.12778  Biso   1.000  C
  C273     1.0000 0.40379  0.33094  0.00584  Biso   1.000  C
  C274     1.0000 0.02386  0.59593  0.66450  Biso   1.000  C
  C275     1.0000 0.16592  0.48753  0.39698  Biso   1.000  C
  C276     1.0000 0.90638  0.33664  0.53017  Biso   1.000  C
  C277     1.0000 0.01526  0.88375  0.16555  Biso   1.000  C
  C278     1.0000 0.16493  0.99430  0.91189  Biso   1.000  C
  C279     1.0000 0.90596  0.14621  0.04257  Biso   1.000  C
  C280     1.0000 0.51868  0.88762  0.36278  Biso   1.000  C
  C281     1.0000 0.66321  0.98594  0.62239  Biso   1.000  C
  C282     1.0000 0.40962  0.14536  0.50780  Biso   1.000  C
  C283     1.0000 0.51381  0.38725  0.16806  Biso   1.000  C
  C284     1.0000 0.35975  0.48962  0.90245  Biso   1.000  C
  C285     1.0000 0.60942  0.64037  0.00805  Biso   1.000  C
  C286     1.0000 0.00056  0.38220  0.36957  Biso   1.000  C
  C287     1.0000 0.86245  0.50328  0.62959  Biso   1.000  C
  C288     1.0000 0.11584  0.63826  0.51101  Biso   1.000  C
  C289     1.0000 0.36545  0.85283  0.51093  Biso   1.000  C
  C290     1.0000 0.52898  0.33206  0.88571  Biso   1.000  C
  C291     1.0000 0.87309  0.49795  0.37150  Biso   1.000  C
  C292     1.0000 0.85086  0.85830  0.02578  Biso   1.000  C
  C293     1.0000 0.00770  0.33953  0.65647  Biso   1.000  C
  C294     1.0000 0.37240  0.47391  0.15956  Biso   1.000  C
  C295     1.0000 0.16569  0.35633  0.52060  Biso   1.000  C
  C296     1.0000 0.00977  0.84024  0.87649  Biso   1.000  C
  C297     1.0000 0.64753  0.98833  0.36614  Biso   1.000  C
  C298     1.0000 0.66161  0.35745  0.02892  Biso   1.000  C
  C299     1.0000 0.51357  0.83144  0.64986  Biso   1.000  C
  C300     1.0000 0.14249  0.98175  0.17034  Biso   1.000  C
  C301     1.0000 0.66220  0.12028  0.53609  Biso   1.000  C
  C302     1.0000 0.51976  0.64398  0.14577  Biso   1.000  C
  C303     1.0000 0.15069  0.48473  0.65761  Biso   1.000  C
  C304     1.0000 0.15834  0.11790  0.01596  Biso   1.000  C
  C305     1.0000 0.00332  0.63832  0.37762  Biso   1.000  C
  C306     1.0000 0.65043  0.49113  0.87068  Biso   1.000  C
  C307     1.0000 0.85918  0.62127  0.51354  Biso   1.000  C
  C308     1.0000 0.01041  0.14238  0.16375  Biso   1.000  C
  C309     1.0000 0.37503  0.99030  0.66768  Biso   1.000  C
  C310     1.0000 0.35288  0.62035  0.00074  Biso   1.000  C
  C311     1.0000 0.51890  0.14670  0.38487  Biso   1.000  C
  C312     1.0000 0.87707  0.98404  0.86408  Biso   1.000  C
  C313     1.0000 0.16380  0.48039  0.36553  Biso   1.000  C
  C314     1.0000 0.37780  0.14421  0.51160  Biso   1.000  C
  C315     1.0000 0.51064  0.35511  0.16949  Biso   1.000  C
  C316     1.0000 0.66117  0.50059  0.15798  Biso   1.000  C
  C317     1.0000 0.87461  0.14563  0.03733  Biso   1.000  C
  C318     1.0000 0.00694  0.35173  0.37094  Biso   1.000  C
  C319     1.0000 0.36152  0.98392  0.37814  Biso   1.000  C
  C320     1.0000 0.14743  0.64102  0.50728  Biso   1.000  C
  C321     1.0000 0.01521  0.85188  0.16545  Biso   1.000  C
  C322     1.0000 0.85498  0.99547  0.15302  Biso   1.000  C
  C323     1.0000 0.64027  0.64161  0.01262  Biso   1.000  C
  C324     1.0000 0.52156  0.85598  0.36081  Biso   1.000  C
  C325     1.0000 0.85967  0.50334  0.66072  Biso   1.000  C
  C326     1.0000 0.64941  0.83245  0.51188  Biso   1.000  C
  C327     1.0000 0.50520  0.61950  0.86090  Biso   1.000  C
  C328     1.0000 0.36056  0.49164  0.87114  Biso   1.000  C
  C329     1.0000 0.13756  0.83118  0.00719  Biso   1.000  C
  C330     1.0000 0.02352  0.62749  0.66560  Biso   1.000  C
  C331     1.0000 0.66376  0.98999  0.65369  Biso   1.000  C
  C332     1.0000 0.87467  0.33547  0.52995  Biso   1.000  C
  C333     1.0000 0.00113  0.12896  0.87023  Biso   1.000  C
  C334     1.0000 0.16792  0.99817  0.88089  Biso   1.000  C
  C335     1.0000 0.37346  0.32974  0.00907  Biso   1.000  C
  C336     1.0000 0.49819  0.12074  0.67491  Biso   1.000  C
  C337     1.0000 0.67080  0.49075  0.89326  Biso   1.000  C
  C338     1.0000 0.88196  0.64177  0.51460  Biso   1.000  C
  C339     1.0000 0.51316  0.85422  0.67021  Biso   1.000  C
  C340     1.0000 0.17143  0.48887  0.63441  Biso   1.000  C
  C341     1.0000 0.37397  0.64203  0.00646  Biso   1.000  C
  C342     1.0000 0.01366  0.86185  0.85533  Biso   1.000  C
  C343     1.0000 0.85514  0.98503  0.88609  Biso   1.000  C
  C344     1.0000 0.64073  0.14103  0.53340  Biso   1.000  C
  C345     1.0000 0.00682  0.36191  0.67732  Biso   1.000  C
  C346     1.0000 0.35540  0.98960  0.64493  Biso   1.000  C
  C347     1.0000 0.13706  0.13932  0.01513  Biso   1.000  C
  C348     1.0000 0.52928  0.35284  0.86342  Biso   1.000  C
  C349     1.0000 0.35114  0.47487  0.13704  Biso   1.000  C
  C350     1.0000 0.14270  0.33617  0.52425  Biso   1.000  C
  C351     1.0000 0.52003  0.12544  0.36337  Biso   1.000  C
  C352     1.0000 0.85166  0.49867  0.39270  Biso   1.000  C
  C353     1.0000 0.63981  0.33530  0.02792  Biso   1.000  C
  C354     1.0000 0.00816  0.12001  0.18513  Biso   1.000  C
  C355     1.0000 0.16371  0.97950  0.14785  Biso   1.000  C
  C356     1.0000 0.38579  0.83105  0.51067  Biso   1.000  C
  C357     1.0000 0.00375  0.61662  0.35468  Biso   1.000  C
  C358     1.0000 0.66806  0.98995  0.38861  Biso   1.000  C
  C359     1.0000 0.87166  0.83722  0.02553  Biso   1.000  C
  C360     1.0000 0.51563  0.62253  0.16626  Biso   1.000  C
  C361     1.0000 0.00058  0.14790  0.89338  Biso   1.000  C
  C362     1.0000 0.87675  0.99612  0.17432  Biso   1.000  C
  C363     1.0000 0.16019  0.85156  0.00382  Biso   1.000  C
  C364     1.0000 0.50091  0.14355  0.65417  Biso   1.000  C
  C365     1.0000 0.38179  0.98765  0.35697  Biso   1.000  C
  C366     1.0000 0.66930  0.85546  0.50869  Biso   1.000  C
  C367     1.0000 0.50204  0.64166  0.88174  Biso   1.000  C
  C368     1.0000 0.63912  0.50049  0.17901  Biso   1.000  C
  C369     1.0000 0.35182  0.35152  0.00885  Biso   1.000  C
  C370     1.0000 0.02177  0.64828  0.64297  Biso   1.000  C
  C371     1.0000 0.14211  0.48119  0.34377  Biso   1.000  C
  C372     1.0000 0.85389  0.35654  0.53077  Biso   1.000  C
  C373     1.0000 0.01145  0.83143  0.14251  Biso   1.000  C
  C374     1.0000 0.14696  0.00420  0.85983  Biso   1.000  C
  C375     1.0000 0.85367  0.12480  0.03052  Biso   1.000  C
  C376     1.0000 0.52143  0.83515  0.38219  Biso   1.000  C
  C377     1.0000 0.64113  0.99255  0.67346  Biso   1.000  C
  C378     1.0000 0.35651  0.12257  0.51103  Biso   1.000  C
  C379     1.0000 0.50681  0.33269  0.14887  Biso   1.000  C
  C380     1.0000 0.38366  0.48975  0.85173  Biso   1.000  C
  C381     1.0000 0.66283  0.62113  0.01316  Biso   1.000  C
  C382     1.0000 0.01223  0.33278  0.39382  Biso   1.000  C
  C383     1.0000 0.88248  0.50090  0.68009  Biso   1.000  C
  C384     1.0000 0.17016  0.62034  0.49988  Biso   1.000  C
  C385     1.0000 0.18457  0.13389  0.01383  Biso   1.000  C
  C386     1.0000 0.00848  0.16908  0.17960  Biso   1.000  C
  C387     1.0000 0.15903  0.98101  0.19633  Biso   1.000  C
  C388     1.0000 0.68941  0.13640  0.53614  Biso   1.000  C
  C389     1.0000 0.51970  0.17402  0.36944  Biso   1.000  C
  C390     1.0000 0.66420  0.99011  0.34023  Biso   1.000  C
  C391     1.0000 0.32607  0.63495  0.99699  Biso   1.000  C
  C392     1.0000 0.52010  0.67046  0.16099  Biso   1.000  C
  C393     1.0000 0.35713  0.46720  0.18598  Biso   1.000  C
  C394     1.0000 0.83349  0.63883  0.51169  Biso   1.000  C
  C395     1.0000 0.00265  0.66538  0.36237  Biso   1.000  C
  C396     1.0000 0.85710  0.49908  0.34493  Biso   1.000  C
  C397     1.0000 0.82395  0.84243  0.02634  Biso   1.000  C
  C398     1.0000 0.01407  0.81386  0.86031  Biso   1.000  C
  C399     1.0000 0.86068  0.98434  0.83736  Biso   1.000  C
  C400     1.0000 0.33769  0.83739  0.51325  Biso   1.000  C
  C401     1.0000 0.50738  0.80589  0.66477  Biso   1.000  C
  C402     1.0000 0.35863  0.99406  0.69264  Biso   1.000  C
  C403     1.0000 0.68782  0.34140  0.03278  Biso   1.000  C
  C404     1.0000 0.52822  0.30456  0.86987  Biso   1.000  C
  C405     1.0000 0.66753  0.49407  0.84510  Biso   1.000  C
  C406     1.0000 0.19218  0.33943  0.52392  Biso   1.000  C
  C407     1.0000 0.00564  0.31241  0.67339  Biso   1.000  C
  C408     1.0000 0.16705  0.48468  0.68369  Biso   1.000  C
  C409     1.0000 0.16249  0.00581  0.83299  Biso   1.000  C
  C410     1.0000 0.82688  0.14240  0.03195  Biso   1.000  C
  C411     1.0000 0.01162  0.80406  0.15716  Biso   1.000  C
  C412     1.0000 0.65540  0.99843  0.70011  Biso   1.000  C
  C413     1.0000 0.32955  0.13760  0.51297  Biso   1.000  C
  C414     1.0000 0.52585  0.80752  0.36884  Biso   1.000  C
  C415     1.0000 0.37072  0.49306  0.82304  Biso   1.000  C
  C416     1.0000 0.68696  0.63827  0.01864  Biso   1.000  C
  C417     1.0000 0.50615  0.30638  0.16502  Biso   1.000  C
  C418     1.0000 0.86880  0.50399  0.70719  Biso   1.000  C
  C419     1.0000 0.19658  0.63601  0.50415  Biso   1.000  C
  C420     1.0000 0.01321  0.30414  0.37899  Biso   1.000  C
  C421     1.0000 0.86155  0.99842  0.20074  Biso   1.000  C
  C422     1.0000 0.18699  0.83517  0.00092  Biso   1.000  C
  C423     1.0000 0.99797  0.17648  0.87853  Biso   1.000  C
  C424     1.0000 0.36684  0.98705  0.32828  Biso   1.000  C
  C425     1.0000 0.69682  0.84197  0.50473  Biso   1.000  C
  C426     1.0000 0.50148  0.16986  0.67125  Biso   1.000  C
  C427     1.0000 0.65265  0.50047  0.20665  Biso   1.000  C
  C428     1.0000 0.32508  0.33527  0.01209  Biso   1.000  C
  C429     1.0000 0.49551  0.66726  0.86607  Biso   1.000  C
  C430     1.0000 0.15501  0.47362  0.31727  Biso   1.000  C
  C431     1.0000 0.82766  0.34106  0.53156  Biso   1.000  C
  C432     1.0000 0.02256  0.67606  0.65819  Biso   1.000  C
  C433     1.0000 0.00065  0.14658  0.84452  Biso   1.000  C
  C434     1.0000 0.82834  0.99959  0.16786  Biso   1.000  C
  C435     1.0000 0.15205  0.80248  0.00583  Biso   1.000  C
  C436     1.0000 0.49755  0.13556  0.70256  Biso   1.000  C
  C437     1.0000 0.33550  0.98108  0.36181  Biso   1.000  C
  C438     1.0000 0.66640  0.80719  0.51082  Biso   1.000  C
  C439     1.0000 0.50131  0.63349  0.83331  Biso   1.000  C
  C440     1.0000 0.68738  0.50376  0.17652  Biso   1.000  C
  C441     1.0000 0.35724  0.30261  0.01460  Biso   1.000  C
  C442     1.0000 0.02759  0.64281  0.69295  Biso   1.000  C
  C443     1.0000 0.18992  0.47251  0.34904  Biso   1.000  C
  C444     1.0000 0.85959  0.30928  0.53268  Biso   1.000  C
  C445     1.0000 0.01498  0.83527  0.19254  Biso   1.000  C
  C446     1.0000 0.19465  0.99687  0.86626  Biso   1.000  C
  C447     1.0000 0.85942  0.17219  0.04134  Biso   1.000  C
  C448     1.0000 0.52475  0.83957  0.33432  Biso   1.000  C
  C449     1.0000 0.68892  0.99348  0.66877  Biso   1.000  C
  C450     1.0000 0.36092  0.17055  0.51087  Biso   1.000  C
  C451     1.0000 0.51283  0.33898  0.19617  Biso   1.000  C
  C452     1.0000 0.33636  0.49773  0.85261  Biso   1.000  C
  C453     1.0000 0.65313  0.66855  0.01674  Biso   1.000  C
  C454     1.0000 0.00635  0.33495  0.34480  Biso   1.000  C
  C455     1.0000 0.83388  0.50670  0.67733  Biso   1.000  C
  C456     1.0000 0.16406  0.66586  0.51486  Biso   1.000  C
  C457     1.0000 0.00468  0.63272  0.32749  Biso   1.000  C
  C458     1.0000 0.32803  0.99158  0.65838  Biso   1.000  C
  C459     1.0000 0.65565  0.30899  0.03039  Biso   1.000  C
  C460     1.0000 0.51199  0.63783  0.19328  Biso   1.000  C
  C461     1.0000 0.82827  0.98493  0.86967  Biso   1.000  C
  C462     1.0000 0.15773  0.30895  0.52739  Biso   1.000  C
  C463     1.0000 0.52322  0.14078  0.33586  Biso   1.000  C
  C464     1.0000 0.19871  0.49195  0.64950  Biso   1.000  C
  C465     1.0000 0.85574  0.80984  0.02563  Biso   1.000  C
  C466     1.0000 0.00451  0.13508  0.21138  Biso   1.000  C
  C467     1.0000 0.69820  0.49134  0.88038  Biso   1.000  C
  C468     1.0000 0.36928  0.80414  0.51364  Biso   1.000  C
  C469     1.0000 0.00434  0.34823  0.70461  Biso   1.000  C
  C470     1.0000 0.69571  0.99087  0.37389  Biso   1.000  C
  C471     1.0000 0.35858  0.66833  0.00444  Biso   1.000  C
  C472     1.0000 0.52759  0.33623  0.83629  Biso   1.000  C
  C473     1.0000 0.19055  0.97769  0.16195  Biso   1.000  C
  C474     1.0000 0.86679  0.66900  0.51553  Biso   1.000  C
  C475     1.0000 0.50767  0.83856  0.69697  Biso   1.000  C
  C476     1.0000 0.82446  0.49809  0.37782  Biso   1.000  C
  C477     1.0000 0.15271  0.16604  0.01184  Biso   1.000  C
  C478     1.0000 0.02134  0.84694  0.82855  Biso   1.000  C
  C479     1.0000 0.32499  0.46696  0.15146  Biso   1.000  C
  C480     1.0000 0.65679  0.16781  0.53116  Biso   1.000  C
  C481     1.0000 0.38509  0.77773  0.51731  Biso   1.000  C
  C482     1.0000 0.52536  0.35120  0.80958  Biso   1.000  C
  C483     1.0000 0.79800  0.49594  0.39501  Biso   1.000  C
  C484     1.0000 0.87022  0.78173  0.02510  Biso   1.000  C
  C485     1.0000 0.00314  0.36675  0.73096  Biso   1.000  C
  C486     1.0000 0.29785  0.46123  0.13432  Biso   1.000  C
  C487     1.0000 0.14199  0.28301  0.53462  Biso   1.000  C
  C488     1.0000 0.02842  0.86597  0.80352  Biso   1.000  C
  C489     1.0000 0.72263  0.99410  0.39047  Biso   1.000  C
  C490     1.0000 0.63932  0.28128  0.02684  Biso   1.000  C
  C491     1.0000 0.50763  0.85363  0.72532  Biso   1.000  C
  C492     1.0000 0.21737  0.97196  0.14613  Biso   1.000  C
  C493     1.0000 0.64182  0.19441  0.52969  Biso   1.000  C
  C494     1.0000 0.50589  0.62222  0.21952  Biso   1.000  C
  C495     1.0000 0.22486  0.49747  0.63321  Biso   1.000  C
  C496     1.0000 0.13872  0.19240  0.00789  Biso   1.000  C
  C497     1.0000 0.00817  0.61478  0.30054  Biso   1.000  C
  C498     1.0000 0.72258  0.48639  0.89971  Biso   1.000  C
  C499     1.0000 0.88395  0.69680  0.51957  Biso   1.000  C
  C500     1.0000 0.99621  0.11896  0.23733  Biso   1.000  C
  C501     1.0000 0.30219  0.98984  0.64057  Biso   1.000  C
  C502     1.0000 0.37301  0.69491  0.01292  Biso   1.000  C
  C503     1.0000 0.52541  0.12345  0.31050  Biso   1.000  C
  C504     1.0000 0.80187  0.98111  0.88696  Biso   1.000  C
  C505     1.0000 0.65222  0.49874  0.81760  Biso   1.000  C
  C506     1.0000 0.80526  0.62479  0.50772  Biso   1.000  C
  C507     1.0000 0.50222  0.77882  0.64963  Biso   1.000  C
  C508     1.0000 0.15273  0.48011  0.71232  Biso   1.000  C
  C509     1.0000 0.29989  0.61885  0.99172  Biso   1.000  C
  C510     1.0000 0.01214  0.78609  0.87538  Biso   1.000  C
  C511     1.0000 0.87793  0.98786  0.81149  Biso   1.000  C
  C512     1.0000 0.71629  0.11986  0.53759  Biso   1.000  C
  C513     1.0000 0.00693  0.28379  0.66011  Biso   1.000  C
  C514     1.0000 0.37347  0.99774  0.72073  Biso   1.000  C
  C515     1.0000 0.21159  0.11800  0.01611  Biso   1.000  C
  C516     1.0000 0.52894  0.27813  0.88742  Biso   1.000  C
  C517     1.0000 0.37354  0.46270  0.21257  Biso   1.000  C
  C518     1.0000 0.22057  0.35534  0.51855  Biso   1.000  C
  C519     1.0000 0.51711  0.20147  0.38432  Biso   1.000  C
  C520     1.0000 0.87107  0.49867  0.31756  Biso   1.000  C
  C521     1.0000 0.71388  0.35736  0.03901  Biso   1.000  C
  C522     1.0000 0.00990  0.19746  0.16617  Biso   1.000  C
  C523     1.0000 0.14346  0.98432  0.22343  Biso   1.000  C
  C524     1.0000 0.31110  0.85202  0.51076  Biso   1.000  C
  C525     1.0000 0.99755  0.69226  0.37963  Biso   1.000  C
  C526     1.0000 0.65088  0.98637  0.31177  Biso   1.000  C
  C527     1.0000 0.79724  0.85905  0.02875  Biso   1.000  C
  C528     1.0000 0.52361  0.69834  0.14665  Biso   1.000  C
  C529     1.0000 0.79699  0.12677  0.03032  Biso   1.000  C
  C530     1.0000 0.00997  0.77695  0.14159  Biso   1.000  C
  C531     1.0000 0.14632  0.01285  0.80593  Biso   1.000  C
  C532     1.0000 0.30188  0.11988  0.51533  Biso   1.000  C
  C533     1.0000 0.52989  0.78090  0.38659  Biso   1.000  C
  C534     1.0000 0.63894  0.00436  0.72651  Biso   1.000  C
  C535     1.0000 0.71612  0.62525  0.02137  Biso   1.000  C
  C536     1.0000 0.49785  0.28007  0.15047  Biso   1.000  C
  C537     1.0000 0.38910  0.49068  0.79690  Biso   1.000  C
  C538     1.0000 0.22372  0.62079  0.50013  Biso   1.000  C
  C539     1.0000 0.01812  0.27758  0.39519  Biso   1.000  C
  C540     1.0000 0.88776  0.50595  0.73185  Biso   1.000  C
  C541     1.0000 0.21386  0.85287  0.99901  Biso   1.000  C
  C542     1.0000 0.99581  0.20189  0.89759  Biso   1.000  C
  C543     1.0000 0.87840  0.99424  0.22775  Biso   1.000  C
  C544     1.0000 0.72280  0.86060  0.50007  Biso   1.000  C
  C545     1.0000 0.50308  0.19789  0.65586  Biso   1.000  C
  C546     1.0000 0.38485  0.98993  0.30218  Biso   1.000  C
  C547     1.0000 0.29801  0.35185  0.01172  Biso   1.000  C
  C548     1.0000 0.48766  0.69337  0.88220  Biso   1.000  C
  C549     1.0000 0.63600  0.49836  0.23416  Biso   1.000  C
  C550     1.0000 0.80056  0.35609  0.52837  Biso   1.000  C
  C551     1.0000 0.02219  0.70292  0.64250  Biso   1.000  C
  C552     1.0000 0.13518  0.47183  0.29218  Biso   1.000  C
  C553     1.0000 0.99829  0.13337  0.81686  Biso   1.000  C
  C554     1.0000 0.80140  0.00372  0.15245  Biso   1.000  C
  C555     1.0000 0.13372  0.77608  0.00618  Biso   1.000  C
  C556     1.0000 0.49765  0.11902  0.72862  Biso   1.000  C
  C557     1.0000 0.30767  0.97778  0.37605  Biso   1.000  C
  C558     1.0000 0.65152  0.77914  0.51443  Biso   1.000  C
  C559     1.0000 0.50334  0.61778  0.80669  Biso   1.000  C
  C560     1.0000 0.71634  0.50462  0.16234  Biso   1.000  C
  C561     1.0000 0.37194  0.27675  0.01828  Biso   1.000  C
  C562     1.0000 0.03054  0.62838  0.72092  Biso   1.000  C
  C563     1.0000 0.21712  0.47329  0.36538  Biso   1.000  C
  C564     1.0000 0.87692  0.28172  0.53559  Biso   1.000  C
  C565     1.0000 0.01465  0.85142  0.22002  Biso   1.000  C
  C566     1.0000 0.22014  0.98901  0.88321  Biso   1.000  C
  C567     1.0000 0.87388  0.19988  0.04395  Biso   1.000  C
  C568     1.0000 0.52395  0.85569  0.30702  Biso   1.000  C
  C569     1.0000 0.71661  0.99278  0.65360  Biso   1.000  C
  C570     1.0000 0.37530  0.19887  0.50599  Biso   1.000  C
  C571     1.0000 0.52018  0.35663  0.22143  Biso   1.000  C
  C572     1.0000 0.30879  0.50100  0.86728  Biso   1.000  C
  C573     1.0000 0.63887  0.69641  0.01719  Biso   1.000  C
  C574     1.0000 0.99816  0.34572  0.31721  Biso   1.000  C
  C575     1.0000 0.80622  0.50573  0.66060  Biso   1.000  C
  C576     1.0000 0.15062  0.69163  0.52655  Biso   1.000  C
  C577     1.0000 0.29872  0.46853  0.10354  Biso   1.000  C
  C578     1.0000 0.11125  0.28309  0.53281  Biso   1.000  C
  C579     1.0000 0.52657  0.09217  0.31187  Biso   1.000  C
  C580     1.0000 0.80067  0.49313  0.42720  Biso   1.000  C
  C581     1.0000 0.60840  0.28039  0.02394  Biso   1.000  C
  C582     1.0000 0.99396  0.08711  0.23505  Biso   1.000  C
  C583     1.0000 0.21777  0.97196  0.11459  Biso   1.000  C
  C584     1.0000 0.41594  0.77543  0.51469  Biso   1.000  C
  C585     1.0000 0.01016  0.58444  0.30174  Biso   1.000  C
  C586     1.0000 0.72085  0.99422  0.42174  Biso   1.000  C
  C587     1.0000 0.90227  0.78084  0.02162  Biso   1.000  C
  C588     1.0000 0.50277  0.59008  0.21951  Biso   1.000  C
  C589     1.0000 0.71785  0.48286  0.93038  Biso   1.000  C
  C590     1.0000 0.91531  0.69505  0.51936  Biso   1.000  C
  C591     1.0000 0.51148  0.88478  0.72287  Biso   1.000  C
  C592     1.0000 0.22329  0.49724  0.60085  Biso   1.000  C
  C593     1.0000 0.40343  0.69588  0.01977  Biso   1.000  C
  C594     1.0000 0.02766  0.89760  0.80576  Biso   1.000  C
  C595     1.0000 0.80278  0.97890  0.91859  Biso   1.000  C
  C596     1.0000 0.61152  0.19552  0.53144  Biso   1.000  C
  C597     1.0000 0.00735  0.39850  0.72891  Biso   1.000  C
  C598     1.0000 0.30426  0.98656  0.60997  Biso   1.000  C
  C599     1.0000 0.10719  0.19386  0.00906  Biso   1.000  C
  C600     1.0000 0.52433  0.38314  0.80934  Biso   1.000  C
  C601     1.0000 0.21819  0.98695  0.91342  Biso   1.000  C
  C602     1.0000 0.90571  0.20010  0.04876  Biso   1.000  C
  C603     1.0000 0.01508  0.88207  0.22012  Biso   1.000  C
  C604     1.0000 0.71714  0.98871  0.62267  Biso   1.000  C
  C605     1.0000 0.40657  0.19931  0.50443  Biso   1.000  C
  C606     1.0000 0.52162  0.88829  0.30715  Biso   1.000  C
  C607     1.0000 0.30654  0.49860  0.89930  Biso   1.000  C
  C608     1.0000 0.60677  0.69562  0.01329  Biso   1.000  C
  C609     1.0000 0.52005  0.38724  0.22132  Biso   1.000  C
  C610     1.0000 0.80558  0.50328  0.62926  Biso   1.000  C
  C611     1.0000 0.11890  0.69061  0.52933  Biso   1.000  C
  C612     1.0000 0.99385  0.37731  0.31463  Biso   1.000  C
  C613     1.0000 0.80179  0.00365  0.12104  Biso   1.000  C
  C614     1.0000 0.10235  0.77972  0.00790  Biso   1.000  C
  C615     1.0000 0.00042  0.10120  0.81563  Biso   1.000  C
  C616     1.0000 0.30754  0.98166  0.40740  Biso   1.000  C
  C617     1.0000 0.62082  0.77716  0.51912  Biso   1.000  C
  C618     1.0000 0.49712  0.08869  0.72739  Biso   1.000  C
  C619     1.0000 0.71749  0.50456  0.13124  Biso   1.000  C
  C620     1.0000 0.40288  0.27622  0.01034  Biso   1.000  C
  C621     1.0000 0.50887  0.58748  0.80936  Biso   1.000  C
  C622     1.0000 0.21868  0.47893  0.39666  Biso   1.000  C
  C623     1.0000 0.90870  0.28273  0.53584  Biso   1.000  C
  C624     1.0000 0.03122  0.59660  0.72018  Biso   1.000  C
  C625     1.0000 0.99566  0.19951  0.92942  Biso   1.000  C
  C626     1.0000 0.90977  0.99019  0.22649  Biso   1.000  C
  C627     1.0000 0.21341  0.88396  0.99993  Biso   1.000  C
  C628     1.0000 0.50361  0.19624  0.62493  Biso   1.000  C
  C629     1.0000 0.41604  0.99217  0.30467  Biso   1.000  C
  C630     1.0000 0.72137  0.89100  0.49588  Biso   1.000  C
  C631     1.0000 0.48835  0.69297  0.91387  Biso   1.000  C
  C632     1.0000 0.60436  0.49863  0.23272  Biso   1.000  C
  C633     1.0000 0.29990  0.38415  0.00824  Biso   1.000  C
  C634     1.0000 0.02068  0.70097  0.61040  Biso   1.000  C
  C635     1.0000 0.10395  0.47390  0.29593  Biso   1.000  C
  C636     1.0000 0.79813  0.38713  0.52933  Biso   1.000  C
  C637     1.0000 0.00917  0.77940  0.10911  Biso   1.000  C
  C638     1.0000 0.11591  0.01387  0.80561  Biso   1.000  C
  C639     1.0000 0.79617  0.09566  0.02305  Biso   1.000  C
  C640     1.0000 0.52799  0.78429  0.41751  Biso   1.000  C
  C641     1.0000 0.60857  0.00425  0.72485  Biso   1.000  C
  C642     1.0000 0.30290  0.08865  0.51444  Biso   1.000  C
  C643     1.0000 0.49704  0.27944  0.11850  Biso   1.000  C
  C644     1.0000 0.42037  0.48435  0.80061  Biso   1.000  C
  C645     1.0000 0.71697  0.59377  0.01909  Biso   1.000  C
  C646     1.0000 0.01995  0.27920  0.42675  Biso   1.000  C
  C647     1.0000 0.91895  0.50565  0.72829  Biso   1.000  C
  C648     1.0000 0.22322  0.59069  0.49219  Biso   1.000  C
  C649     1.0000 0.99567  0.69174  0.41147  Biso   1.000  C
  C650     1.0000 0.40526  0.99294  0.72253  Biso   1.000  C
  C651     1.0000 0.71455  0.38920  0.03729  Biso   1.000  C
  C652     1.0000 0.52516  0.69915  0.11538  Biso   1.000  C
  C653     1.0000 0.90999  0.98606  0.81185  Biso   1.000  C
  C654     1.0000 0.21954  0.38684  0.51336  Biso   1.000  C
  C655     1.0000 0.51528  0.20105  0.41656  Biso   1.000  C
  C656     1.0000 0.12078  0.47765  0.71431  Biso   1.000  C
  C657     1.0000 0.79933  0.88948  0.02851  Biso   1.000  C
  C658     1.0000 0.01222  0.19881  0.13423  Biso   1.000  C
  C659     1.0000 0.62099  0.49577  0.81512  Biso   1.000  C
  C660     1.0000 0.31090  0.88382  0.50877  Biso   1.000  C
  C661     1.0000 0.00977  0.28329  0.62917  Biso   1.000  C
  C662     1.0000 0.62036  0.98313  0.30940  Biso   1.000  C
  C663     1.0000 0.29938  0.58648  0.99290  Biso   1.000  C
  C664     1.0000 0.52964  0.27835  0.91794  Biso   1.000  C
  C665     1.0000 0.11263  0.99113  0.22447  Biso   1.000  C
  C666     1.0000 0.80422  0.59290  0.51188  Biso   1.000  C
  C667     1.0000 0.50412  0.77829  0.61838  Biso   1.000  C
  C668     1.0000 0.90264  0.49569  0.31627  Biso   1.000  C
  C669     1.0000 0.21221  0.08575  0.01940  Biso   1.000  C
  C670     1.0000 0.00534  0.78537  0.90629  Biso   1.000  C
  C671     1.0000 0.40464  0.46730  0.21332  Biso   1.000  C
  C672     1.0000 0.71566  0.08780  0.54012  Biso   1.000  C
  C673     1.0000 0.20761  0.00052  0.81934  Biso   1.000  C
  C674     1.0000 0.81184  0.18692  0.03919  Biso   1.000  C
  C675     1.0000 0.00999  0.78880  0.20483  Biso   1.000  C
  C676     1.0000 0.70299  0.99879  0.71484  Biso   1.000  C
  C677     1.0000 0.31358  0.18370  0.51413  Biso   1.000  C
  C678     1.0000 0.52843  0.79153  0.32204  Biso   1.000  C
  C679     1.0000 0.32754  0.49977  0.80449  Biso   1.000  C
  C680     1.0000 0.69956  0.68473  0.02367  Biso   1.000  C
  C681     1.0000 0.51036  0.29256  0.21160  Biso   1.000  C
  C682     1.0000 0.82328  0.50733  0.72438  Biso   1.000  C
  C683     1.0000 0.21098  0.68257  0.51665  Biso   1.000  C
  C684     1.0000 0.01157  0.28908  0.33213  Biso   1.000  C
  C685     1.0000 0.81447  0.00071  0.21455  Biso   1.000  C
  C686     1.0000 0.19805  0.78808  0.99967  Biso   1.000  C
  C687     1.0000 0.00164  0.19288  0.83076  Biso   1.000  C
  C688     1.0000 0.32106  0.98265  0.31372  Biso   1.000  C
  C689     1.0000 0.71390  0.79676  0.50460  Biso   1.000  C
  C690     1.0000 0.50434  0.18124  0.71717  Biso   1.000  C
  C691     1.0000 0.70021  0.50262  0.22341  Biso   1.000  C
  C692     1.0000 0.30972  0.28783  0.01758  Biso   1.000  C
  C693     1.0000 0.49607  0.67971  0.81769  Biso   1.000  C
  C694     1.0000 0.19952  0.46441  0.30148  Biso   1.000  C
  C695     1.0000 0.81280  0.29303  0.53465  Biso   1.000  C
  C696     1.0000 0.02427  0.69045  0.70434  Biso   1.000  C
  C697     1.0000 0.71028  0.99453  0.32803  Biso   1.000  C
  C698     1.0000 0.31284  0.68221  0.99743  Biso   1.000  C
  C699     1.0000 0.00088  0.30209  0.72079  Biso   1.000  C
  C700     1.0000 0.20837  0.98013  0.20721  Biso   1.000  C
  C701     1.0000 0.82112  0.68644  0.51267  Biso   1.000  C
  C702     1.0000 0.52768  0.29046  0.82237  Biso   1.000  C
  C703     1.0000 0.80888  0.49643  0.33203  Biso   1.000  C
  C704     1.0000 0.20010  0.17943  0.01289  Biso   1.000  C
  C705     1.0000 0.50291  0.79210  0.71128  Biso   1.000  C
  C706     1.0000 0.31088  0.45931  0.19713  Biso   1.000  C
  C707     1.0000 0.70516  0.18234  0.53333  Biso   1.000  C
  C708     1.0000 0.02287  0.80008  0.81459  Biso   1.000  C
  C709     1.0000 0.31186  0.99737  0.70433  Biso   1.000  C
  C710     1.0000 0.70351  0.29523  0.03514  Biso   1.000  C
  C711     1.0000 0.00323  0.67985  0.31498  Biso   1.000  C
  C712     1.0000 0.81346  0.98927  0.82375  Biso   1.000  C
  C713     1.0000 0.20486  0.29260  0.52733  Biso   1.000  C
  C714     1.0000 0.51940  0.68394  0.20865  Biso   1.000  C
  C715     1.0000 0.21404  0.49344  0.69677  Biso   1.000  C
  C716     1.0000 0.80797  0.79621  0.02955  Biso   1.000  C
  C717     1.0000 0.51994  0.18644  0.32275  Biso   1.000  C
  C718     1.0000 0.71466  0.49636  0.83371  Biso   1.000  C
  C719     1.0000 0.32287  0.78882  0.51662  Biso   1.000  C
  C720     1.0000 0.00379  0.18102  0.22759  Biso   1.000  C
  C721     1.0000 0.54053  0.79563  0.29426  Biso   1.000  C
  C722     1.0000 0.30389  0.52061  0.80448  Biso   1.000  C
  C723     1.0000 0.78460  0.29628  0.54937  Biso   1.000  C
  C724     1.0000 0.99079  0.76439  0.20042  Biso   1.000  C
  C725     1.0000 0.79828  0.52594  0.72205  Biso   1.000  C
  C726     1.0000 0.28280  0.29201  0.00214  Biso   1.000  C
  C727     1.0000 0.99664  0.26361  0.33980  Biso   1.000  C
  C728     1.0000 0.23619  0.01229  0.82343  Biso   1.000  C
  C729     1.0000 0.74249  0.80454  0.51613  Biso   1.000  C
  C730     1.0000 0.50054  0.29999  0.23980  Biso   1.000  C
  C731     1.0000 0.72767  0.97787  0.71299  Biso   1.000  C
  C732     1.0000 0.22377  0.79115  0.98011  Biso   1.000  C
  C733     1.0000 0.48629  0.17993  0.74420  Biso   1.000  C
  C734     1.0000 0.69785  0.48221  0.24649  Biso   1.000  C
  C735     1.0000 0.20547  0.71104  0.50572  Biso   1.000  C
  C736     1.0000 0.98602  0.21992  0.83470  Biso   1.000  C
  C737     1.0000 0.22421  0.44553  0.30631  Biso   1.000  C
  C738     1.0000 0.72210  0.68450  0.04787  Biso   1.000  C
  C739     1.0000 0.04476  0.69071  0.72903  Biso   1.000  C
  C740     1.0000 0.78599  0.98721  0.21043  Biso   1.000  C
  C741     1.0000 0.28615  0.18008  0.49810  Biso   1.000  C
  C742     1.0000 0.51966  0.68099  0.79646  Biso   1.000  C
  C743     1.0000 0.29649  0.96354  0.31508  Biso   1.000  C
  C744     1.0000 0.81295  0.20796  0.06145  Biso   1.000  C
  C745     1.0000 0.01548  0.71008  0.31920  Biso   1.000  C
  C746     1.0000 0.28428  0.01130  0.70011  Biso   1.000  C
  C747     1.0000 0.73086  0.29868  0.02046  Biso   1.000  C
  C748     1.0000 0.54336  0.70554  0.20758  Biso   1.000  C
  C749     1.0000 0.81814  0.97824  0.79427  Biso   1.000  C
  C750     1.0000 0.23303  0.29703  0.53717  Biso   1.000  C
  C751     1.0000 0.53777  0.18600  0.29615  Biso   1.000  C
  C752     1.0000 0.24235  0.48045  0.69126  Biso   1.000  C
  C753     1.0000 0.78014  0.80127  0.01522  Biso   1.000  C
  C754     1.0000 0.01526  0.17431  0.25604  Biso   1.000  C
  C755     1.0000 0.71047  0.48689  0.80399  Biso   1.000  C
  C756     1.0000 0.29517  0.79366  0.53240  Biso   1.000  C
  C757     1.0000 0.98404  0.27370  0.71665  Biso   1.000  C
  C758     1.0000 0.70460  0.01013  0.30044  Biso   1.000  C
  C759     1.0000 0.28381  0.67679  0.00945  Biso   1.000  C
  C760     1.0000 0.54382  0.29219  0.79470  Biso   1.000  C
  C761     1.0000 0.23338  0.99843  0.20349  Biso   1.000  C
  C762     1.0000 0.82820  0.71361  0.49701  Biso   1.000  C
  C763     1.0000 0.48613  0.79601  0.73783  Biso   1.000  C
  C764     1.0000 0.78308  0.51346  0.33513  Biso   1.000  C
  C765     1.0000 0.22215  0.17715  0.03357  Biso   1.000  C
  C766     1.0000 0.01213  0.80570  0.78493  Biso   1.000  C
  C767     1.0000 0.31334  0.47289  0.22668  Biso   1.000  C
  C768     1.0000 0.70291  0.20879  0.51624  Biso   1.000  C
  C769     1.0000 0.47421  0.70162  0.81713  Biso   1.000  C
  C770     1.0000 0.82560  0.48922  0.74942  Biso   1.000  C
  C771     1.0000 0.71048  0.76870  0.48883  Biso   1.000  C
  C772     1.0000 0.00480  0.71361  0.70458  Biso   1.000  C
  C773     1.0000 0.32990  0.47954  0.77982  Biso   1.000  C
  C774     1.0000 0.19579  0.76197  0.01757  Biso   1.000  C
  C775     1.0000 0.01450  0.19059  0.80282  Biso   1.000  C
  C776     1.0000 0.70459  0.01928  0.73968  Biso   1.000  C
  C777     1.0000 0.81648  0.26651  0.51919  Biso   1.000  C
  C778     1.0000 0.52339  0.20634  0.71077  Biso   1.000  C
  C779     1.0000 0.20168  0.98955  0.79009  Biso   1.000  C
  C780     1.0000 0.31096  0.26328  0.03590  Biso   1.000  C
  C781     1.0000 0.52020  0.26243  0.20694  Biso   1.000  C
  C782     1.0000 0.19766  0.47840  0.27241  Biso   1.000  C
  C783     1.0000 0.31805  0.20800  0.53265  Biso   1.000  C
  C784     1.0000 0.02397  0.29414  0.30300  Biso   1.000  C
  C785     1.0000 0.72756  0.51885  0.22149  Biso   1.000  C
  C786     1.0000 0.78794  0.18712  0.01578  Biso   1.000  C
  C787     1.0000 0.02741  0.78879  0.23098  Biso   1.000  C
  C788     1.0000 0.32498  0.00111  0.28664  Biso   1.000  C
  C789     1.0000 0.23829  0.67713  0.53069  Biso   1.000  C
  C790     1.0000 0.51636  0.76369  0.32562  Biso   1.000  C
  C791     1.0000 0.81933  0.01620  0.24086  Biso   1.000  C
  C792     1.0000 0.70028  0.70867  0.00291  Biso   1.000  C
  C793     1.0000 0.50025  0.21101  0.32608  Biso   1.000  C
  C794     1.0000 0.28547  0.44141  0.19161  Biso   1.000  C
  C795     1.0000 0.19863  0.26358  0.51415  Biso   1.000  C
  C796     1.0000 0.98852  0.20869  0.22502  Biso   1.000  C
  C797     1.0000 0.81145  0.47824  0.30645  Biso   1.000  C
  C798     1.0000 0.70028  0.26919  0.05590  Biso   1.000  C
  C799     1.0000 0.98852  0.67583  0.28788  Biso   1.000  C
  C800     1.0000 0.20880  0.96416  0.23413  Biso   1.000  C
  C801     1.0000 0.32588  0.75927  0.50434  Biso   1.000  C
  C802     1.0000 0.50133  0.68442  0.23390  Biso   1.000  C
  C803     1.0000 0.73916  0.98221  0.33026  Biso   1.000  C
  C804     1.0000 0.81143  0.76854  0.04446  Biso   1.000  C
  C805     1.0000 0.51631  0.76392  0.70745  Biso   1.000  C
  C806     1.0000 0.74233  0.51171  0.84004  Biso   1.000  C
  C807     1.0000 0.79122  0.68540  0.52403  Biso   1.000  C
  C808     1.0000 0.03392  0.77160  0.81949  Biso   1.000  C
  C809     1.0000 0.21171  0.50981  0.72474  Biso   1.000  C
  C810     1.0000 0.31734  0.71226  0.98771  Biso   1.000  C
  C811     1.0000 0.01593  0.30519  0.74835  Biso   1.000  C
  C812     1.0000 0.78645  0.00367  0.82999  Biso   1.000  C
  C813     1.0000 0.72947  0.17948  0.55295  Biso   1.000  C
  C814     1.0000 0.51098  0.26356  0.82877  Biso   1.000  C
  C815     1.0000 0.31633  0.98139  0.73242  Biso   1.000  C
  C816     1.0000 0.20287  0.20256  0.99066  Biso   1.000  C
  C817     1.0000 0.98387  0.24129  0.81370  Biso   1.000  C
  C818     1.0000 0.76499  0.98894  0.23178  Biso   1.000  C
  C819     1.0000 0.24350  0.76869  0.98113  Biso   1.000  C
  C820     1.0000 0.49276  0.20246  0.76376  Biso   1.000  C
  C821     1.0000 0.27718  0.96239  0.29313  Biso   1.000  C
  C822     1.0000 0.76333  0.78238  0.51534  Biso   1.000  C
  C823     1.0000 0.52083  0.70420  0.77618  Biso   1.000  C
  C824     1.0000 0.71976  0.48019  0.26662  Biso   1.000  C
  C825     1.0000 0.26005  0.27196  0.00361  Biso   1.000  C
  C826     1.0000 0.04630  0.71489  0.74780  Biso   1.000  C
  C827     1.0000 0.24513  0.44164  0.28412  Biso   1.000  C
  C828     1.0000 0.76559  0.27424  0.55096  Biso   1.000  C
  C829     1.0000 0.98575  0.74474  0.22223  Biso   1.000  C
  C830     1.0000 0.25718  0.01370  0.80099  Biso   1.000  C
  C831     1.0000 0.79052  0.22803  0.06188  Biso   1.000  C
  C832     1.0000 0.54104  0.77389  0.27292  Biso   1.000  C
  C833     1.0000 0.74810  0.97766  0.73528  Biso   1.000  C
  C834     1.0000 0.26599  0.20246  0.50005  Biso   1.000  C
  C835     1.0000 0.50165  0.28001  0.26122  Biso   1.000  C
  C836     1.0000 0.28451  0.52197  0.78162  Biso   1.000  C
  C837     1.0000 0.74268  0.70754  0.04889  Biso   1.000  C
  C838     1.0000 0.99752  0.24162  0.31969  Biso   1.000  C
  C839     1.0000 0.77731  0.52464  0.74350  Biso   1.000  C
  C840     1.0000 0.22687  0.73184  0.50889  Biso   1.000  C
  C841     1.0000 0.22288  0.99110  0.76701  Biso   1.000  C
  C842     1.0000 0.76616  0.20848  0.01821  Biso   1.000  C
  C843     1.0000 0.02581  0.76624  0.25017  Biso   1.000  C
  C844     1.0000 0.72690  0.01893  0.75867  Biso   1.000  C
  C845     1.0000 0.29628  0.22817  0.53506  Biso   1.000  C
  C846     1.0000 0.51712  0.74202  0.30409  Biso   1.000  C
  C847     1.0000 0.30881  0.48002  0.75759  Biso   1.000  C
  C848     1.0000 0.72111  0.73166  0.00556  Biso   1.000  C
  C849     1.0000 0.52167  0.24319  0.23005  Biso   1.000  C
  C850     1.0000 0.80360  0.48859  0.76999  Biso   1.000  C
  C851     1.0000 0.25849  0.69889  0.53373  Biso   1.000  C
  C852     1.0000 0.01941  0.27235  0.28264  Biso   1.000  C
  C853     1.0000 0.79982  0.01519  0.26303  Biso   1.000  C
  C854     1.0000 0.21781  0.74159  0.01629  Biso   1.000  C
  C855     1.0000 0.01312  0.21147  0.78226  Biso   1.000  C
  C856     1.0000 0.30262  0.99962  0.26610  Biso   1.000  C
  C857     1.0000 0.73213  0.74812  0.49037  Biso   1.000  C
  C858     1.0000 0.52689  0.22853  0.73169  Biso   1.000  C
  C859     1.0000 0.74769  0.51613  0.24348  Biso   1.000  C
  C860     1.0000 0.28974  0.24232  0.03620  Biso   1.000  C
  C861     1.0000 0.47517  0.72308  0.79506  Biso   1.000  C
  C862     1.0000 0.21673  0.47010  0.25032  Biso   1.000  C
  C863     1.0000 0.79488  0.24478  0.52004  Biso   1.000  C
  C864     1.0000 0.00497  0.73597  0.72475  Biso   1.000  C
  C865     1.0000 0.73140  0.49007  0.78284  Biso   1.000  C
  C866     1.0000 0.80827  0.73614  0.49508  Biso   1.000  C
  C867     1.0000 0.48677  0.77471  0.75993  Biso   1.000  C
  C868     1.0000 0.26497  0.48340  0.71093  Biso   1.000  C
  C869     1.0000 0.26183  0.69677  0.01048  Biso   1.000  C
  C870     1.0000 0.01235  0.78482  0.76362  Biso   1.000  C
  C871     1.0000 0.79624  0.98158  0.77340  Biso   1.000  C
  C872     1.0000 0.72416  0.23018  0.51607  Biso   1.000  C
  C873     1.0000 0.98198  0.25400  0.73930  Biso   1.000  C
  C874     1.0000 0.26464  0.01175  0.72251  Biso   1.000  C
  C875     1.0000 0.24220  0.19900  0.03542  Biso   1.000  C
  C876     1.0000 0.54324  0.26827  0.77718  Biso   1.000  C
  C877     1.0000 0.28925  0.47142  0.24382  Biso   1.000  C
  C878     1.0000 0.25364  0.27507  0.53362  Biso   1.000  C
  C879     1.0000 0.53678  0.20744  0.27572  Biso   1.000  C
  C880     1.0000 0.76137  0.51203  0.31356  Biso   1.000  C
  C881     1.0000 0.75165  0.27719  0.02364  Biso   1.000  C
  C882     1.0000 0.01525  0.19586  0.27768  Biso   1.000  C
  C883     1.0000 0.25678  0.99779  0.22287  Biso   1.000  C
  C884     1.0000 0.27364  0.77191  0.53414  Biso   1.000  C
  C885     1.0000 0.01293  0.73070  0.29887  Biso   1.000  C
  C886     1.0000 0.72351  0.01386  0.27843  Biso   1.000  C
  C887     1.0000 0.75768  0.78168  0.01768  Biso   1.000  C
  C888     1.0000 0.54783  0.72396  0.23099  Biso   1.000  C
  C889     1.0000 0.75702  0.98466  0.30716  Biso   1.000  C
  C890     1.0000 0.29598  0.73224  0.99079  Biso   1.000  C
  C891     1.0000 0.01375  0.28460  0.77005  Biso   1.000  C
  C892     1.0000 0.23048  0.96506  0.25460  Biso   1.000  C
  C893     1.0000 0.77238  0.70822  0.51962  Biso   1.000  C
  C894     1.0000 0.50923  0.24160  0.80944  Biso   1.000  C
  C895     1.0000 0.78922  0.47770  0.28544  Biso   1.000  C
  C896     1.0000 0.22572  0.22193  0.99060  Biso   1.000  C
  C897     1.0000 0.51328  0.74293  0.72790  Biso   1.000  C
  C898     1.0000 0.26327  0.43991  0.20993  Biso   1.000  C
  C899     1.0000 0.74871  0.20314  0.55379  Biso   1.000  C
  C900     1.0000 0.03427  0.75164  0.79669  Biso   1.000  C
  C901     1.0000 0.29740  0.98487  0.75481  Biso   1.000  C
  C902     1.0000 0.72154  0.24808  0.05549  Biso   1.000  C
  C903     1.0000 0.98700  0.69726  0.26776  Biso   1.000  C
  C904     1.0000 0.76514  0.00803  0.80804  Biso   1.000  C
  C905     1.0000 0.21867  0.24143  0.51224  Biso   1.000  C
  C906     1.0000 0.50657  0.70443  0.25540  Biso   1.000  C
  C907     1.0000 0.23512  0.51288  0.74202  Biso   1.000  C
  C908     1.0000 0.78984  0.74773  0.04345  Biso   1.000  C
  C909     1.0000 0.49759  0.23112  0.30373  Biso   1.000  C
  C910     1.0000 0.76143  0.51699  0.81707  Biso   1.000  C
  C911     1.0000 0.30378  0.73848  0.50880  Biso   1.000  C
  C912     1.0000 0.98830  0.22866  0.24724  Biso   1.000  C
  C913     1.0000 0.77932  0.50638  0.76788  Biso   1.000  C
  C914     1.0000 0.75869  0.75533  0.50178  Biso   1.000  C
  C915     1.0000 0.49861  0.72517  0.77592  Biso   1.000  C
  C916     1.0000 0.28626  0.49997  0.75844  Biso   1.000  C
  C917     1.0000 0.24270  0.74521  0.99923  Biso   1.000  C
  C918     1.0000 0.02706  0.73682  0.74709  Biso   1.000  C
  C919     1.0000 0.74798  0.99846  0.75742  Biso   1.000  C
  C920     1.0000 0.76841  0.24960  0.53478  Biso   1.000  C
  C921     1.0000 0.99830  0.23575  0.78791  Biso   1.000  C
  C922     1.0000 0.25022  0.00261  0.77296  Biso   1.000  C
  C923     1.0000 0.26591  0.24577  0.01874  Biso   1.000  C
  C924     1.0000 0.51213  0.22615  0.75804  Biso   1.000  C
  C925     1.0000 0.24011  0.45276  0.25708  Biso   1.000  C
  C926     1.0000 0.27080  0.22487  0.51945  Biso   1.000  C
  C927     1.0000 0.51210  0.25218  0.25747  Biso   1.000  C
  C928     1.0000 0.74451  0.49680  0.26505  Biso   1.000  C
  C929     1.0000 0.76815  0.22896  0.04091  Biso   1.000  C
  C930     1.0000 0.00731  0.24606  0.29189  Biso   1.000  C
  C931     1.0000 0.27953  0.98010  0.26949  Biso   1.000  C
  C932     1.0000 0.25339  0.72607  0.52204  Biso   1.000  C
  C933     1.0000 0.00325  0.74669  0.24740  Biso   1.000  C
  C934     1.0000 0.77295  0.00284  0.25876  Biso   1.000  C
  C935     1.0000 0.74113  0.73166  0.02907  Biso   1.000  C
  C936     1.0000 0.52955  0.74638  0.27606  Biso   1.000  C
  C937     1.0000 0.74733  0.25330  0.04079  Biso   1.000  C
  C938     1.0000 0.99988  0.72486  0.27245  Biso   1.000  C
  C939     1.0000 0.27216  0.00090  0.74962  Biso   1.000  C
  C940     1.0000 0.24741  0.24794  0.52113  Biso   1.000  C
  C941     1.0000 0.52981  0.72281  0.25496  Biso   1.000  C
  C942     1.0000 0.77028  0.99470  0.78068  Biso   1.000  C
  C943     1.0000 0.76391  0.75451  0.02971  Biso   1.000  C
  C944     1.0000 0.51585  0.22933  0.27916  Biso   1.000  C
  C945     1.0000 0.26183  0.49769  0.73739  Biso   1.000  C
  C946     1.0000 0.27776  0.74545  0.52171  Biso   1.000  C
  C947     1.0000 0.00449  0.22270  0.27176  Biso   1.000  C
  C948     1.0000 0.75572  0.50598  0.79000  Biso   1.000  C
  C949     1.0000 0.26822  0.72496  0.99988  Biso   1.000  C
  C950     1.0000 0.99771  0.25899  0.76487  Biso   1.000  C
  C951     1.0000 0.74959  0.00060  0.28265  Biso   1.000  C
  C952     1.0000 0.77968  0.73274  0.50402  Biso   1.000  C
  C953     1.0000 0.52445  0.24489  0.78290  Biso   1.000  C
  C954     1.0000 0.25505  0.98197  0.24943  Biso   1.000  C
  C955     1.0000 0.24446  0.22068  0.01507  Biso   1.000  C
  C956     1.0000 0.50003  0.74820  0.75406  Biso   1.000  C
  C957     1.0000 0.76551  0.49527  0.28957  Biso   1.000  C
  C958     1.0000 0.74694  0.22631  0.53538  Biso   1.000  C
  C959     1.0000 0.02438  0.75838  0.76979  Biso   1.000  C
  C960     1.0000 0.26641  0.45252  0.23704  Biso   1.000  C
  Cu1      1.0000 0.01576  0.49197  0.66768  Biso   1.000  Cu
  Cu2      1.0000 0.66302  0.98942  0.52322  Biso   1.000  Cu
  Cu3      1.0000 0.50442  0.64097  0.01500  Biso   1.000  Cu
  Cu4      1.0000 0.51827  0.48522  0.86367  Biso   1.000  Cu
  Cu5      1.0000 0.16098  0.98394  0.01344  Biso   1.000  Cu
  Cu6      1.0000 0.01690  0.64018  0.50956  Biso   1.000  Cu
  Cu7      1.0000 0.50559  0.98792  0.67185  Biso   1.000  Cu
  Cu8      1.0000 0.85715  0.49231  0.52592  Biso   1.000  Cu
  Cu9      1.0000 0.00482  0.14186  0.03182  Biso   1.000  Cu
  Cu10     1.0000 0.01440  0.99615  0.86557  Biso   1.000  Cu
  Cu11     1.0000 0.35576  0.48769  0.00355  Biso   1.000  Cu
  Cu12     1.0000 0.50967  0.14341  0.52033  Biso   1.000  Cu
  Cu13     1.0000 0.00829  0.48316  0.35875  Biso   1.000  Cu
  Cu14     1.0000 0.36109  0.98716  0.51032  Biso   1.000  Cu
  Cu15     1.0000 0.50423  0.33333  0.01582  Biso   1.000  Cu
  Cu16     1.0000 0.50842  0.48739  0.16578  Biso   1.000  Cu
  Cu17     1.0000 0.85338  0.99373  0.01968  Biso   1.000  Cu
  Cu18     1.0000 0.01052  0.33719  0.52624  Biso   1.000  Cu
  Cu19     1.0000 0.51567  0.99028  0.36248  Biso   1.000  Cu
  Cu20     1.0000 0.16729  0.48798  0.50009  Biso   1.000  Cu
  Cu21     1.0000 0.00400  0.83839  0.01013  Biso   1.000  Cu
  Cu22     1.0000 0.01111  0.98919  0.17206  Biso   1.000  Cu
  Cu23     1.0000 0.66255  0.49142  0.02911  Biso   1.000  Cu
  Cu24     1.0000 0.51830  0.83041  0.51629  Biso   1.000  Cu
  Cu25     1.0000 0.21446  0.98713  0.01438  Biso   1.000  Cu
  Cu26     1.0000 0.00660  0.19690  0.02958  Biso   1.000  Cu
  Cu27     1.0000 0.01013  0.98397  0.22580  Biso   1.000  Cu
  Cu28     1.0000 0.71868  0.98838  0.52207  Biso   1.000  Cu
  Cu29     1.0000 0.50946  0.19760  0.52308  Biso   1.000  Cu
  Cu30     1.0000 0.51769  0.99067  0.30842  Biso   1.000  Cu
  Cu31     1.0000 0.30365  0.48700  0.00367  Biso   1.000  Cu
  Cu32     1.0000 0.50869  0.69420  0.01353  Biso   1.000  Cu
  Cu33     1.0000 0.50210  0.48873  0.21971  Biso   1.000  Cu
  Cu34     1.0000 0.80312  0.49023  0.52657  Biso   1.000  Cu
  Cu35     1.0000 0.01766  0.69332  0.50981  Biso   1.000  Cu
  Cu36     1.0000 0.00187  0.47963  0.30550  Biso   1.000  Cu
  Cu37     1.0000 0.80019  0.98933  0.02022  Biso   1.000  Cu
  Cu38     1.0000 0.00348  0.78182  0.00832  Biso   1.000  Cu
  Cu39     1.0000 0.01013  0.99949  0.80903  Biso   1.000  Cu
  Cu40     1.0000 0.30711  0.98508  0.51038  Biso   1.000  Cu
  Cu41     1.0000 0.51857  0.77835  0.51610  Biso   1.000  Cu
  Cu42     1.0000 0.50745  0.98582  0.72575  Biso   1.000  Cu
  Cu43     1.0000 0.71853  0.49034  0.02748  Biso   1.000  Cu
  Cu44     1.0000 0.50225  0.27953  0.01321  Biso   1.000  Cu
  Cu45     1.0000 0.52072  0.48653  0.81096  Biso   1.000  Cu
  Cu46     1.0000 0.22125  0.48906  0.49826  Biso   1.000  Cu
  Cu47     1.0000 0.01072  0.28328  0.52775  Biso   1.000  Cu
  Cu48     1.0000 0.01987  0.49423  0.72217  Biso   1.000  Cu
  H1       1.0000 0.25282  0.77541  0.54407  Biso   1.000  H
  H2       1.0000 0.55650  0.26989  0.75738  Biso   1.000  H
  H3       1.0000 0.74019  0.52175  0.31439  Biso   1.000  H
  H4       1.0000 0.73686  0.78900  0.00804  Biso   1.000  H
  H5       1.0000 0.96761  0.23460  0.73856  Biso   1.000  H
  H6       1.0000 0.29074  0.48163  0.26523  Biso   1.000  H
  H7       1.0000 0.27418  0.27928  0.54294  Biso   1.000  H
  H8       1.0000 0.00539  0.78960  0.74114  Biso   1.000  H
  H9       1.0000 0.71677  0.02897  0.26252  Biso   1.000  H
  H10      1.0000 0.77331  0.28167  0.01585  Biso   1.000  H
  H11      1.0000 0.47778  0.77932  0.78044  Biso   1.000  H
  H12      1.0000 0.27494  0.01186  0.21681  Biso   1.000  H
  H13      1.0000 0.72170  0.24736  0.50054  Biso   1.000  H
  H14      1.0000 0.56571  0.73931  0.23147  Biso   1.000  H
  H15      1.0000 0.28462  0.47472  0.70140  Biso   1.000  H
  H16      1.0000 0.25917  0.19817  0.05112  Biso   1.000  H
  H17      1.0000 0.02241  0.75187  0.30650  Biso   1.000  H
  H18      1.0000 0.72515  0.48224  0.76050  Biso   1.000  H
  H19      1.0000 0.81366  0.75708  0.48493  Biso   1.000  H
  H20      1.0000 0.02447  0.19171  0.29934  Biso   1.000  H
  H21      1.0000 0.24470  0.02404  0.71812  Biso   1.000  H
  H22      1.0000 0.24075  0.69135  0.01806  Biso   1.000  H
  H23      1.0000 0.55322  0.20285  0.25886  Biso   1.000  H
  H24      1.0000 0.79801  0.97401  0.75087  Biso   1.000  H
  H25      1.0000 0.27791  0.02501  0.80420  Biso   1.000  H
  H26      1.0000 0.79350  0.24322  0.08027  Biso   1.000  H
  H27      1.0000 0.96688  0.73104  0.21842  Biso   1.000  H
  H28      1.0000 0.76545  0.96251  0.73552  Biso   1.000  H
  H29      1.0000 0.24758  0.20188  0.48604  Biso   1.000  H
  H30      1.0000 0.55095  0.78047  0.25307  Biso   1.000  H
  H31      1.0000 0.26821  0.53656  0.77947  Biso   1.000  H
  H32      1.0000 0.75818  0.70791  0.06569  Biso   1.000  H
  H33      1.0000 0.49170  0.28376  0.28172  Biso   1.000  H
  H34      1.0000 0.75792  0.53816  0.74057  Biso   1.000  H
  H35      1.0000 0.22228  0.75370  0.50127  Biso   1.000  H
  H36      1.0000 0.98916  0.22132  0.32884  Biso   1.000  H
  H37      1.0000 0.74440  0.97783  0.23025  Biso   1.000  H
  H38      1.0000 0.26119  0.76997  0.96664  Biso   1.000  H
  H39      1.0000 0.97219  0.26144  0.81677  Biso   1.000  H
  H40      1.0000 0.25995  0.94477  0.29450  Biso   1.000  H
  H41      1.0000 0.78539  0.78891  0.52421  Biso   1.000  H
  H42      1.0000 0.48341  0.20052  0.78457  Biso   1.000  H
  H43      1.0000 0.71762  0.46501  0.28437  Biso   1.000  H
  H44      1.0000 0.23864  0.27446  0.99230  Biso   1.000  H
  H45      1.0000 0.53792  0.70371  0.76048  Biso   1.000  H
  H46      1.0000 0.26395  0.42770  0.28784  Biso   1.000  H
  H47      1.0000 0.74616  0.27830  0.56428  Biso   1.000  H
  H48      1.0000 0.06465  0.71556  0.76176  Biso   1.000  H
  H49      1.0000 0.21258  0.47960  0.22928  Biso   1.000  H
  H50      1.0000 0.29852  0.24458  0.55254  Biso   1.000  H
  H51      1.0000 0.52971  0.22110  0.22503  Biso   1.000  H
  H52      1.0000 0.76901  0.52787  0.24271  Biso   1.000  H
  H53      1.0000 0.74810  0.20890  0.00094  Biso   1.000  H
  H54      1.0000 0.02297  0.27245  0.25937  Biso   1.000  H
  H55      1.0000 0.30408  0.01549  0.24902  Biso   1.000  H
  H56      1.0000 0.27903  0.69270  0.54378  Biso   1.000  H
  H57      1.0000 0.03900  0.76595  0.27014  Biso   1.000  H
  H58      1.0000 0.80297  0.02793  0.28252  Biso   1.000  H
  H59      1.0000 0.72013  0.74763  0.98634  Biso   1.000  H
  H60      1.0000 0.50802  0.72113  0.30922  Biso   1.000  H
  H61      1.0000 0.80479  0.47409  0.79022  Biso   1.000  H
  H62      1.0000 0.72898  0.72754  0.48059  Biso   1.000  H
  H63      1.0000 0.45787  0.73988  0.79668  Biso   1.000  H
  H64      1.0000 0.31169  0.46517  0.73971  Biso   1.000  H
  H65      1.0000 0.21511  0.72257  0.02961  Biso   1.000  H
  H66      1.0000 0.98908  0.75224  0.72259  Biso   1.000  H
  H67      1.0000 0.72683  0.03567  0.77507  Biso   1.000  H
  H68      1.0000 0.79556  0.22603  0.50501  Biso   1.000  H
  H69      1.0000 0.02421  0.20847  0.76211  Biso   1.000  H
  H70      1.0000 0.21797  0.98499  0.74534  Biso   1.000  H
  H71      1.0000 0.29497  0.22325  0.04925  Biso   1.000  H
  H72      1.0000 0.54061  0.24733  0.72631  Biso   1.000  H
  H73      1.0000 0.78217  0.52756  0.82061  Biso   1.000  H
  H74      1.0000 0.75204  0.70472  0.52910  Biso   1.000  H
  H75      1.0000 0.52059  0.72158  0.72120  Biso   1.000  H
  H76      1.0000 0.23259  0.52555  0.76369  Biso   1.000  H
  H77      1.0000 0.30390  0.75304  0.98294  Biso   1.000  H
  H78      1.0000 0.04350  0.73062  0.79734  Biso   1.000  H
  H79      1.0000 0.74448  0.01900  0.81399  Biso   1.000  H
  H80      1.0000 0.76634  0.20071  0.56905  Biso   1.000  H
  H81      1.0000 0.02225  0.28948  0.79149  Biso   1.000  H
  H82      1.0000 0.30184  0.97104  0.77466  Biso   1.000  H
  H83      1.0000 0.22993  0.23812  0.97384  Biso   1.000  H
  H84      1.0000 0.49542  0.22324  0.81447  Biso   1.000  H
  H85      1.0000 0.24573  0.42532  0.20359  Biso   1.000  H
  H86      1.0000 0.21373  0.22010  0.50265  Biso   1.000  H
  H87      1.0000 0.48263  0.24843  0.30711  Biso   1.000  H
  H88      1.0000 0.78996  0.46478  0.26593  Biso   1.000  H
  H89      1.0000 0.71791  0.22816  0.06992  Biso   1.000  H
  H90      1.0000 0.97720  0.24988  0.24663  Biso   1.000  H
  H91      1.0000 0.22930  0.95170  0.27471  Biso   1.000  H
  H92      1.0000 0.30573  0.71624  0.49996  Biso   1.000  H
  H93      1.0000 0.97516  0.69752  0.24840  Biso   1.000  H
  H94      1.0000 0.77694  0.97426  0.30935  Biso   1.000  H
  H95      1.0000 0.79112  0.72724  0.05344  Biso   1.000  H
  H96      1.0000 0.49134  0.70107  0.27345  Biso   1.000  H
  H97      1.0000 0.87867  0.98487  0.92346  Biso   1.000  H
  H98      1.0000 0.91416  0.85835  0.02504  Biso   1.000  H
  H99      1.0000 0.00240  0.90376  0.87552  Biso   1.000  H
  H100     1.0000 0.37896  0.98330  0.60696  Biso   1.000  H
  H101     1.0000 0.42894  0.85054  0.51257  Biso   1.000  H
  H102     1.0000 0.52297  0.89544  0.64870  Biso   1.000  H
  H103     1.0000 0.64216  0.48777  0.93191  Biso   1.000  H
  H104     1.0000 0.59625  0.35614  0.02347  Biso   1.000  H
  H105     1.0000 0.53163  0.39504  0.88367  Biso   1.000  H
  H106     1.0000 0.14869  0.48409  0.59122  Biso   1.000  H
  H107     1.0000 0.09977  0.35502  0.52090  Biso   1.000  H
  H108     1.0000 0.00991  0.40035  0.65235  Biso   1.000  H
  H109     1.0000 0.14092  0.97724  0.10831  Biso   1.000  H
  H110     1.0000 0.09514  0.11882  0.02753  Biso   1.000  H
  H111     1.0000 0.01051  0.07872  0.16214  Biso   1.000  H
  H112     1.0000 0.64621  0.99055  0.43043  Biso   1.000  H
  H113     1.0000 0.59747  0.12135  0.53608  Biso   1.000  H
  H114     1.0000 0.51684  0.08358  0.38483  Biso   1.000  H
  H115     1.0000 0.37278  0.48386  0.09635  Biso   1.000  H
  H116     1.0000 0.41744  0.62193  0.01606  Biso   1.000  H
  H117     1.0000 0.50969  0.57986  0.14411  Biso   1.000  H
  H118     1.0000 0.87661  0.50309  0.43262  Biso   1.000  H
  H119     1.0000 0.92556  0.61900  0.51434  Biso   1.000  H
  H120     1.0000 0.00823  0.57420  0.37684  Biso   1.000  H
  H121     1.0000 0.10736  0.01200  0.88150  Biso   1.000  H
  H122     1.0000 0.87128  0.08043  0.02615  Biso   1.000  H
  H123     1.0000 0.00761  0.85545  0.10032  Biso   1.000  H
  H124     1.0000 0.60042  0.98799  0.65172  Biso   1.000  H
  H125     1.0000 0.37834  0.07897  0.50720  Biso   1.000  H
  H126     1.0000 0.52072  0.85851  0.42247  Biso   1.000  H
  H127     1.0000 0.42595  0.48493  0.87610  Biso   1.000  H
  H128     1.0000 0.64455  0.57621  0.00902  Biso   1.000  H
  H129     1.0000 0.50419  0.35328  0.10495  Biso   1.000  H
  H130     1.0000 0.92166  0.49981  0.65292  Biso   1.000  H
  H131     1.0000 0.14764  0.58018  0.49033  Biso   1.000  H
  H132     1.0000 0.01699  0.35475  0.43588  Biso   1.000  H
  H133     1.0000 0.91865  0.99310  0.15183  Biso   1.000  H
  H134     1.0000 0.14005  0.89278  0.00931  Biso   1.000  H
  H135     1.0000 0.00073  0.12363  0.93360  Biso   1.000  H
  H136     1.0000 0.42021  0.99142  0.38055  Biso   1.000  H
  H137     1.0000 0.64508  0.89543  0.50926  Biso   1.000  H
  H138     1.0000 0.50242  0.12279  0.60961  Biso   1.000  H
  H139     1.0000 0.59980  0.49841  0.15493  Biso   1.000  H
  H140     1.0000 0.37514  0.39287  0.00115  Biso   1.000  H
  H141     1.0000 0.50254  0.61776  0.92218  Biso   1.000  H
  H142     1.0000 0.10429  0.49127  0.36973  Biso   1.000  H
  H143     1.0000 0.87371  0.40031  0.53075  Biso   1.000  H
  H144     1.0000 0.01632  0.62463  0.60385  Biso   1.000  H
  H145     1.0000 0.60646  0.48705  0.88682  Biso   1.000  H
  H146     1.0000 0.87786  0.57855  0.50816  Biso   1.000  H
  H147     1.0000 0.52038  0.85239  0.60641  Biso   1.000  H
  H148     1.0000 0.10656  0.48623  0.63834  Biso   1.000  H
  H149     1.0000 0.37598  0.58061  0.01024  Biso   1.000  H
  H150     1.0000 0.00336  0.86169  0.91960  Biso   1.000  H
  H151     1.0000 0.91668  0.98230  0.88572  Biso   1.000  H
  H152     1.0000 0.64192  0.07373  0.54095  Biso   1.000  H
  H153     1.0000 0.00527  0.36051  0.61391  Biso   1.000  H
  H154     1.0000 0.41878  0.99079  0.64753  Biso   1.000  H
  H155     1.0000 0.13508  0.07638  0.01931  Biso   1.000  H
  H156     1.0000 0.53479  0.35300  0.92637  Biso   1.000  H
  H157     1.0000 0.41486  0.47941  0.13846  Biso   1.000  H
  H158     1.0000 0.14650  0.39878  0.52125  Biso   1.000  H
  H159     1.0000 0.51506  0.12562  0.42813  Biso   1.000  H
  H160     1.0000 0.92026  0.50045  0.38885  Biso   1.000  H
  H161     1.0000 0.63967  0.40053  0.03007  Biso   1.000  H
  H162     1.0000 0.01494  0.12395  0.12106  Biso   1.000  H
  H163     1.0000 0.09762  0.98202  0.14933  Biso   1.000  H
  H164     1.0000 0.38696  0.89590  0.51174  Biso   1.000  H
  H165     1.0000 0.00709  0.61631  0.41947  Biso   1.000  H
  H166     1.0000 0.60298  0.98167  0.38374  Biso   1.000  H
  H167     1.0000 0.87584  0.89840  0.02462  Biso   1.000  H
  H168     1.0000 0.51999  0.62431  0.10212  Biso   1.000  H
  H169     1.0000 0.00713  0.08577  0.89184  Biso   1.000  H
  H170     1.0000 0.87515  0.98815  0.11031  Biso   1.000  H
  H171     1.0000 0.09556  0.85440  0.01364  Biso   1.000  H
  H172     1.0000 0.49612  0.07994  0.65185  Biso   1.000  H
  H173     1.0000 0.38176  0.98763  0.42305  Biso   1.000  H
  H174     1.0000 0.60596  0.85109  0.51252  Biso   1.000  H
  H175     1.0000 0.51253  0.58359  0.88821  Biso   1.000  H
  H176     1.0000 0.64375  0.50606  0.11549  Biso   1.000  H
  H177     1.0000 0.41595  0.35014  0.99986  Biso   1.000  H
  H178     1.0000 0.02204  0.58620  0.64396  Biso   1.000  H
  H179     1.0000 0.14771  0.49726  0.40792  Biso   1.000  H
  H180     1.0000 0.91750  0.35632  0.52910  Biso   1.000  H
  H181     1.0000 0.01596  0.89450  0.14451  Biso   1.000  H
  H182     1.0000 0.14538  0.99069  0.92263  Biso   1.000  H
  H183     1.0000 0.91640  0.12513  0.03881  Biso   1.000  H
  H184     1.0000 0.51838  0.89914  0.38289  Biso   1.000  H
  H185     1.0000 0.64318  0.98192  0.60959  Biso   1.000  H
  H186     1.0000 0.42310  0.12620  0.50843  Biso   1.000  H
  H187     1.0000 0.51124  0.39647  0.14660  Biso   1.000  H
  H188     1.0000 0.37703  0.48080  0.91497  Biso   1.000  H
  H189     1.0000 0.60185  0.61913  0.99878  Biso   1.000  H
  H190     1.0000 0.99925  0.39536  0.38882  Biso   1.000  H
  H191     1.0000 0.88469  0.50429  0.62150  Biso   1.000  H
  H192     1.0000 0.10369  0.61929  0.50507  Biso   1.000  H
  H193     1.0000 0.29004  0.84115  0.51148  Biso   1.000  H
  H194     1.0000 0.52951  0.25863  0.87454  Biso   1.000  H
  H195     1.0000 0.86002  0.50266  0.29730  Biso   1.000  H
  H196     1.0000 0.77694  0.84960  0.03478  Biso   1.000  H
  H197     1.0000 0.00796  0.26541  0.67394  Biso   1.000  H
  H198     1.0000 0.36209  0.45271  0.23157  Biso   1.000  H
  H199     1.0000 0.24117  0.34402  0.51545  Biso   1.000  H
  H200     1.0000 0.01540  0.76615  0.86327  Biso   1.000  H
  H201     1.0000 0.66494  0.98447  0.29266  Biso   1.000  H
  H202     1.0000 0.73271  0.34533  0.04383  Biso   1.000  H
  H203     1.0000 0.49540  0.75946  0.66033  Biso   1.000  H
  H204     1.0000 0.15458  0.98435  0.24391  Biso   1.000  H
  H205     1.0000 0.73655  0.13189  0.53545  Biso   1.000  H
  H206     1.0000 0.52559  0.71833  0.15889  Biso   1.000  H
  H207     1.0000 0.16693  0.47920  0.73035  Biso   1.000  H
  H208     1.0000 0.23130  0.13103  0.01335  Biso   1.000  H
  H209     1.0000 0.99745  0.71334  0.36801  Biso   1.000  H
  H210     1.0000 0.66275  0.50535  0.79691  Biso   1.000  H
  H211     1.0000 0.78365  0.63519  0.50624  Biso   1.000  H
  H212     1.0000 0.00876  0.21779  0.17821  Biso   1.000  H
  H213     1.0000 0.36273  0.00735  0.73941  Biso   1.000  H
  H214     1.0000 0.28036  0.63052  0.98504  Biso   1.000  H
  H215     1.0000 0.51896  0.22242  0.37247  Biso   1.000  H
  H216     1.0000 0.86821  0.99027  0.79158  Biso   1.000  H
  H217     1.0000 0.23562  0.46965  0.35146  Biso   1.000  H
  H218     1.0000 0.36283  0.21780  0.50157  Biso   1.000  H
  H219     1.0000 0.52827  0.34516  0.24128  Biso   1.000  H
  H220     1.0000 0.73795  0.50539  0.17236  Biso   1.000  H
  H221     1.0000 0.86277  0.22128  0.04373  Biso   1.000  H
  H222     1.0000 0.99260  0.33232  0.29875  Biso   1.000  H
  H223     1.0000 0.28583  0.97732  0.36522  Biso   1.000  H
  H224     1.0000 0.16066  0.71224  0.53222  Biso   1.000  H
  H225     1.0000 0.01420  0.84217  0.24137  Biso   1.000  H
  H226     1.0000 0.78002  0.01035  0.16142  Biso   1.000  H
  H227     1.0000 0.65007  0.71543  0.02225  Biso   1.000  H
  H228     1.0000 0.52329  0.84622  0.28633  Biso   1.000  H
  H229     1.0000 0.78702  0.50552  0.67256  Biso   1.000  H
  H230     1.0000 0.66497  0.75890  0.51455  Biso   1.000  H
  H231     1.0000 0.50000  0.62756  0.78626  Biso   1.000  H
  H232     1.0000 0.28875  0.50227  0.85498  Biso   1.000  H
  H233     1.0000 0.14303  0.75435  0.00161  Biso   1.000  H
  H234     1.0000 0.02894  0.64177  0.74165  Biso   1.000  H
  H235     1.0000 0.73778  0.99663  0.66410  Biso   1.000  H
  H236     1.0000 0.86637  0.26155  0.53955  Biso   1.000  H
  H237     1.0000 0.98953  0.14264  0.79747  Biso   1.000  H
  H238     1.0000 0.24012  0.98327  0.87189  Biso   1.000  H
  H239     1.0000 0.36137  0.25659  0.02471  Biso   1.000  H
  H240     1.0000 0.49849  0.12999  0.75062  Biso   1.000  H
  H241     1.0000 0.74421  0.48163  0.89048  Biso   1.000  H
  H242     1.0000 0.87376  0.71695  0.52560  Biso   1.000  H
  H243     1.0000 0.50653  0.84344  0.74625  Biso   1.000  H
  H244     1.0000 0.24579  0.50372  0.64364  Biso   1.000  H
  H245     1.0000 0.36103  0.71395  0.01848  Biso   1.000  H
  H246     1.0000 0.03835  0.85631  0.78469  Biso   1.000  H
  H247     1.0000 0.78084  0.97618  0.87624  Biso   1.000  H
  H248     1.0000 0.65181  0.21565  0.53123  Biso   1.000  H
  H249     1.0000 0.99859  0.35698  0.75123  Biso   1.000  H
  H250     1.0000 0.28144  0.99079  0.65117  Biso   1.000  H
  H251     1.0000 0.15249  0.21129  0.00467  Biso   1.000  H
  H252     1.0000 0.52234  0.33950  0.78908  Biso   1.000  H
  H253     1.0000 0.27795  0.45917  0.14597  Biso   1.000  H
  H254     1.0000 0.15376  0.26530  0.54460  Biso   1.000  H
  H255     1.0000 0.52525  0.13411  0.28853  Biso   1.000  H
  H256     1.0000 0.77503  0.49648  0.38849  Biso   1.000  H
  H257     1.0000 0.65126  0.26037  0.02851  Biso   1.000  H
  H258     1.0000 0.98825  0.12891  0.25814  Biso   1.000  H
  H259     1.0000 0.23804  0.96704  0.15717  Biso   1.000  H
  H260     1.0000 0.37416  0.75619  0.51813  Biso   1.000  H
  H261     1.0000 0.01004  0.62711  0.28088  Biso   1.000  H
  H262     1.0000 0.74511  0.99849  0.38379  Biso   1.000  H
  H263     1.0000 0.85833  0.76183  0.02747  Biso   1.000  H
  H264     1.0000 0.50729  0.63415  0.23929  Biso   1.000  H
  H265     1.0000 0.99628  0.22308  0.88713  Biso   1.000  H
  H266     1.0000 0.87001  0.99356  0.24984  Biso   1.000  H
  H267     1.0000 0.23572  0.84181  0.99552  Biso   1.000  H
  H268     1.0000 0.50347  0.21891  0.66755  Biso   1.000  H
  H269     1.0000 0.37640  0.98665  0.28041  Biso   1.000  H
  H270     1.0000 0.74436  0.85129  0.49831  Biso   1.000  H
  H271     1.0000 0.47811  0.71379  0.87237  Biso   1.000  H
  H272     1.0000 0.64458  0.50019  0.25404  Biso   1.000  H
  H273     1.0000 0.27700  0.34395  0.01333  Biso   1.000  H
  H274     1.0000 0.02603  0.72407  0.65158  Biso   1.000  H
  H275     1.0000 0.14525  0.46699  0.27141  Biso   1.000  H
  H276     1.0000 0.78126  0.34355  0.52745  Biso   1.000  H
  H277     1.0000 0.01055  0.75525  0.15145  Biso   1.000  H
  H278     1.0000 0.15715  0.01835  0.78531  Biso   1.000  H
  H279     1.0000 0.77723  0.13796  0.03426  Biso   1.000  H
  H280     1.0000 0.53348  0.76064  0.37813  Biso   1.000  H
  H281     1.0000 0.64992  0.01065  0.74686  Biso   1.000  H
  H282     1.0000 0.28142  0.13036  0.51963  Biso   1.000  H
  H283     1.0000 0.49101  0.26087  0.16329  Biso   1.000  H
  H284     1.0000 0.38141  0.49373  0.77401  Biso   1.000  H
  H285     1.0000 0.73530  0.63809  0.02645  Biso   1.000  H
  H286     1.0000 0.02100  0.25657  0.38759  Biso   1.000  H
  H287     1.0000 0.87824  0.51281  0.75307  Biso   1.000  H
  H288     1.0000 0.24556  0.63115  0.50148  Biso   1.000  H
  H289     1.0000 0.09656  0.21570  0.00915  Biso   1.000  H
  H290     1.0000 0.98699  0.07398  0.25321  Biso   1.000  H
  H291     1.0000 0.23699  0.96606  0.10185  Biso   1.000  H
  H292     1.0000 0.60133  0.21722  0.52992  Biso   1.000  H
  H293     1.0000 0.53474  0.08085  0.29268  Biso   1.000  H
  H294     1.0000 0.74083  0.99510  0.43384  Biso   1.000  H
  H295     1.0000 0.41478  0.71550  0.02452  Biso   1.000  H
  H296     1.0000 0.50150  0.58079  0.24109  Biso   1.000  H
  H297     1.0000 0.27961  0.46819  0.08869  Biso   1.000  H
  H298     1.0000 0.92531  0.71570  0.52378  Biso   1.000  H
  H299     1.0000 0.01408  0.57121  0.28207  Biso   1.000  H
  H300     1.0000 0.78120  0.49585  0.44090  Biso   1.000  H
  H301     1.0000 0.91502  0.76160  0.02141  Biso   1.000  H
  H302     1.0000 0.03481  0.91089  0.78881  Biso   1.000  H
  H303     1.0000 0.78295  0.97537  0.92993  Biso   1.000  H
  H304     1.0000 0.42751  0.75510  0.51537  Biso   1.000  H
  H305     1.0000 0.51046  0.89749  0.74382  Biso   1.000  H
  H306     1.0000 0.28582  0.98817  0.59486  Biso   1.000  H
  H307     1.0000 0.60054  0.25922  0.02033  Biso   1.000  H
  H308     1.0000 0.52605  0.39374  0.78833  Biso   1.000  H
  H309     1.0000 0.73660  0.48287  0.94490  Biso   1.000  H
  H310     1.0000 0.09916  0.26302  0.53449  Biso   1.000  H
  H311     1.0000 0.01061  0.41177  0.74904  Biso   1.000  H
  H312     1.0000 0.24227  0.50291  0.59018  Biso   1.000  H
  H313     1.0000 0.23850  0.98368  0.92500  Biso   1.000  H
  H314     1.0000 0.91837  0.21937  0.05391  Biso   1.000  H
  H315     1.0000 0.01617  0.89405  0.24006  Biso   1.000  H
  H316     1.0000 0.73705  0.98849  0.60929  Biso   1.000  H
  H317     1.0000 0.41652  0.22006  0.50235  Biso   1.000  H
  H318     1.0000 0.52286  0.90147  0.28826  Biso   1.000  H
  H319     1.0000 0.28599  0.49551  0.90962  Biso   1.000  H
  H320     1.0000 0.59434  0.71571  0.01393  Biso   1.000  H
  H321     1.0000 0.52069  0.39675  0.24370  Biso   1.000  H
  H322     1.0000 0.78575  0.50141  0.61768  Biso   1.000  H
  H323     1.0000 0.10593  0.70918  0.53564  Biso   1.000  H
  H324     1.0000 0.99224  0.38632  0.29337  Biso   1.000  H
  H325     1.0000 0.78299  0.00544  0.10792  Biso   1.000  H
  H326     1.0000 0.08958  0.76073  0.00822  Biso   1.000  H
  H327     1.0000 0.99430  0.09023  0.79515  Biso   1.000  H
  H328     1.0000 0.28716  0.98059  0.41902  Biso   1.000  H
  H329     1.0000 0.60973  0.75693  0.52249  Biso   1.000  H
  H330     1.0000 0.49873  0.07685  0.74855  Biso   1.000  H
  H331     1.0000 0.73973  0.50565  0.12228  Biso   1.000  H
  H332     1.0000 0.41424  0.25691  0.01022  Biso   1.000  H
  H333     1.0000 0.51211  0.57615  0.78888  Biso   1.000  H
  H334     1.0000 0.23773  0.47994  0.40770  Biso   1.000  H
  H335     1.0000 0.92106  0.26325  0.53979  Biso   1.000  H
  H336     1.0000 0.03301  0.58480  0.73979  Biso   1.000  H
  H337     1.0000 0.99692  0.22042  0.94161  Biso   1.000  H
  H338     1.0000 0.92091  0.98745  0.24754  Biso   1.000  H
  H339     1.0000 0.23244  0.89660  0.99760  Biso   1.000  H
  H340     1.0000 0.50877  0.21720  0.61555  Biso   1.000  H
  H341     1.0000 0.43056  0.99156  0.28677  Biso   1.000  H
  H342     1.0000 0.74055  0.90459  0.49337  Biso   1.000  H
  H343     1.0000 0.48121  0.71171  0.92553  Biso   1.000  H
  H344     1.0000 0.59290  0.49544  0.25261  Biso   1.000  H
  H345     1.0000 0.27997  0.39746  0.00787  Biso   1.000  H
  H346     1.0000 0.02010  0.72045  0.59718  Biso   1.000  H
  H347     1.0000 0.09140  0.47204  0.27769  Biso   1.000  H
  H348     1.0000 0.78048  0.40055  0.52516  Biso   1.000  H
  H349     1.0000 0.00798  0.75902  0.09752  Biso   1.000  H
  H350     1.0000 0.10488  0.01579  0.78475  Biso   1.000  H
  H351     1.0000 0.77659  0.08399  0.02200  Biso   1.000  H
  H352     1.0000 0.53042  0.76439  0.43022  Biso   1.000  H
  H353     1.0000 0.59453  0.01216  0.74201  Biso   1.000  H
  H354     1.0000 0.28282  0.07667  0.51282  Biso   1.000  H
  H355     1.0000 0.49674  0.25700  0.11066  Biso   1.000  H
  H356     1.0000 0.43460  0.48029  0.78129  Biso   1.000  H
  H357     1.0000 0.73903  0.58264  0.01731  Biso   1.000  H
  H358     1.0000 0.02776  0.26037  0.43824  Biso   1.000  H
  H359     1.0000 0.93218  0.50732  0.74845  Biso   1.000  H
  H360     1.0000 0.24306  0.58005  0.48958  Biso   1.000  H
  H361     1.0000 0.99386  0.71123  0.42281  Biso   1.000  H
  H362     1.0000 0.41637  0.99367  0.74366  Biso   1.000  H
  H363     1.0000 0.73584  0.40021  0.04065  Biso   1.000  H
  H364     1.0000 0.52877  0.71897  0.10365  Biso   1.000  H
  H365     1.0000 0.92095  0.98523  0.79188  Biso   1.000  H
  H366     1.0000 0.23938  0.39915  0.50781  Biso   1.000  H
  H367     1.0000 0.51447  0.22050  0.43047  Biso   1.000  H
  H368     1.0000 0.10883  0.47228  0.73537  Biso   1.000  H
  H369     1.0000 0.77994  0.90091  0.03072  Biso   1.000  H
  H370     1.0000 0.01735  0.21783  0.12213  Biso   1.000  H
  H371     1.0000 0.60990  0.50077  0.79502  Biso   1.000  H
  H372     1.0000 0.29070  0.89649  0.50873  Biso   1.000  H
  H373     1.0000 0.01207  0.26296  0.61886  Biso   1.000  H
  H374     1.0000 0.61170  0.98363  0.28738  Biso   1.000  H
  H375     1.0000 0.28109  0.57279  0.98743  Biso   1.000  H
  H376     1.0000 0.52958  0.25766  0.93034  Biso   1.000  H
  H377     1.0000 0.10249  0.99675  0.24504  Biso   1.000  H
  H378     1.0000 0.78333  0.58230  0.51296  Biso   1.000  H
  H379     1.0000 0.49982  0.75779  0.60786  Biso   1.000  H
  H380     1.0000 0.91280  0.49649  0.29479  Biso   1.000  H
  H381     1.0000 0.23223  0.07394  0.01850  Biso   1.000  H
  H382     1.0000 0.00316  0.76534  0.91866  Biso   1.000  H
  H383     1.0000 0.41731  0.46384  0.23346  Biso   1.000  H
  H384     1.0000 0.73597  0.07536  0.54455  Biso   1.000  H
  H385     1.0000 0.22539  0.43375  0.32584  Biso   1.000  H
  H386     1.0000 0.28270  0.16143  0.48376  Biso   1.000  H
  H387     1.0000 0.49185  0.32066  0.24369  Biso   1.000  H
  H388     1.0000 0.68038  0.46693  0.24588  Biso   1.000  H
  H389     1.0000 0.83039  0.20930  0.07714  Biso   1.000  H
  H390     1.0000 0.98419  0.25983  0.35972  Biso   1.000  H
  H391     1.0000 0.29331  0.94814  0.33417  Biso   1.000  H
  H392     1.0000 0.18639  0.71599  0.49184  Biso   1.000  H
  H393     1.0000 0.97714  0.76408  0.18077  Biso   1.000  H
  H394     1.0000 0.78230  0.97587  0.19095  Biso   1.000  H
  H395     1.0000 0.72174  0.66708  0.06328  Biso   1.000  H
  H396     1.0000 0.55340  0.81444  0.29128  Biso   1.000  H
  H397     1.0000 0.79825  0.54367  0.70641  Biso   1.000  H
  H398     1.0000 0.74594  0.82435  0.52727  Biso   1.000  H
  H399     1.0000 0.53604  0.66437  0.79735  Biso   1.000  H
  H400     1.0000 0.29844  0.53667  0.82123  Biso   1.000  H
  H401     1.0000 0.22679  0.80744  0.96318  Biso   1.000  H
  H402     1.0000 0.06190  0.67550  0.73355  Biso   1.000  H
  H403     1.0000 0.72869  0.96263  0.69589  Biso   1.000  H
  H404     1.0000 0.77745  0.31656  0.56107  Biso   1.000  H
  H405     1.0000 0.97423  0.22169  0.85428  Biso   1.000  H
  H406     1.0000 0.24116  0.02191  0.84403  Biso   1.000  H
  H407     1.0000 0.27909  0.31036  0.98764  Biso   1.000  H
  H408     1.0000 0.47049  0.16445  0.75176  Biso   1.000  H
  H409     1.0000 0.28428  0.42850  0.17241  Biso   1.000  H
  H410     1.0000 0.17693  0.25824  0.50620  Biso   1.000  H
  H411     1.0000 0.48758  0.21413  0.34448  Biso   1.000  H
  H412     1.0000 0.83106  0.46620  0.30289  Biso   1.000  H
  H413     1.0000 0.68027  0.26400  0.06853  Biso   1.000  H
  H414     1.0000 0.97652  0.21483  0.20546  Biso   1.000  H
  H415     1.0000 0.19189  0.94826  0.23949  Biso   1.000  H
  H416     1.0000 0.34478  0.75311  0.49210  Biso   1.000  H
  H417     1.0000 0.97674  0.65552  0.28458  Biso   1.000  H
  H418     1.0000 0.74615  0.96795  0.34807  Biso   1.000  H
  H419     1.0000 0.83134  0.76516  0.05629  Biso   1.000  H
  H420     1.0000 0.48114  0.67127  0.23700  Biso   1.000  H
  H421     1.0000 0.74643  0.52112  0.86171  Biso   1.000  H
  H422     1.0000 0.78395  0.66678  0.53801  Biso   1.000  H
  H423     1.0000 0.52772  0.76072  0.68654  Biso   1.000  H
  H424     1.0000 0.19218  0.52017  0.73074  Biso   1.000  H
  H425     1.0000 0.33702  0.71879  0.97779  Biso   1.000  H
  H426     1.0000 0.04614  0.76385  0.83828  Biso   1.000  H
  H427     1.0000 0.78277  0.01522  0.85021  Biso   1.000  H
  H428     1.0000 0.73126  0.16210  0.56915  Biso   1.000  H
  H429     1.0000 0.03032  0.32384  0.75314  Biso   1.000  H
  H430     1.0000 0.33540  0.96740  0.73394  Biso   1.000  H
  H431     1.0000 0.18617  0.20886  0.97461  Biso   1.000  H
  H432     1.0000 0.50070  0.25675  0.84859  Biso   1.000  H
  H433     1.0000 0.27867  0.02549  0.68122  Biso   1.000  H
  H434     1.0000 0.73668  0.31771  0.00747  Biso   1.000  H
  H435     1.0000 0.02901  0.71779  0.33709  Biso   1.000  H
  H436     1.0000 0.83660  0.96542  0.79071  Biso   1.000  H
  H437     1.0000 0.23905  0.31560  0.55078  Biso   1.000  H
  H438     1.0000 0.56043  0.70668  0.19130  Biso   1.000  H
  H439     1.0000 0.24608  0.46996  0.67018  Biso   1.000  H
  H440     1.0000 0.77602  0.81969  0.00069  Biso   1.000  H
  H441     1.0000 0.55249  0.16772  0.29150  Biso   1.000  H
  H442     1.0000 0.69215  0.47406  0.79748  Biso   1.000  H
  H443     1.0000 0.29070  0.81388  0.54326  Biso   1.000  H
  H444     1.0000 0.02564  0.15327  0.25745  Biso   1.000  H
  H445     1.0000 0.68550  0.02563  0.30252  Biso   1.000  H
  H446     1.0000 0.27856  0.65606  0.01840  Biso   1.000  H
  H447     1.0000 0.97142  0.26871  0.69630  Biso   1.000  H
  H448     1.0000 0.23667  0.01113  0.18373  Biso   1.000  H
  H449     1.0000 0.84945  0.71587  0.48786  Biso   1.000  H
  H450     1.0000 0.55841  0.31126  0.79006  Biso   1.000  H
  H451     1.0000 0.77939  0.52710  0.35363  Biso   1.000  H
  H452     1.0000 0.22281  0.16024  0.04973  Biso   1.000  H
  H453     1.0000 0.47340  0.81580  0.74150  Biso   1.000  H
  H454     1.0000 0.33185  0.48431  0.23685  Biso   1.000  H
  H455     1.0000 0.68464  0.21338  0.50161  Biso   1.000  H
  H456     1.0000 0.00319  0.82787  0.78182  Biso   1.000  H
  H457     1.0000 0.69014  0.76614  0.47750  Biso   1.000  H
  H458     1.0000 0.45813  0.69911  0.83386  Biso   1.000  H
  H459     1.0000 0.84548  0.47610  0.75101  Biso   1.000  H
  H460     1.0000 0.17784  0.75774  0.03282  Biso   1.000  H
  H461     1.0000 0.98766  0.71243  0.68772  Biso   1.000  H
  H462     1.0000 0.34995  0.46660  0.77993  Biso   1.000  H
  H463     1.0000 0.83605  0.26310  0.50832  Biso   1.000  H
  H464     1.0000 0.02769  0.17071  0.79563  Biso   1.000  H
  H465     1.0000 0.68781  0.03582  0.74211  Biso   1.000  H
  H466     1.0000 0.32997  0.26052  0.05006  Biso   1.000  H
  H467     1.0000 0.53705  0.20711  0.69213  Biso   1.000  H
  H468     1.0000 0.18040  0.98083  0.78638  Biso   1.000  H
  H469     1.0000 0.33633  0.20729  0.54853  Biso   1.000  H
  H470     1.0000 0.52922  0.25617  0.18688  Biso   1.000  H
  H471     1.0000 0.17882  0.49006  0.26675  Biso   1.000  H
  H472     1.0000 0.79100  0.17105  0.99892  Biso   1.000  H
  H473     1.0000 0.03350  0.31247  0.29404  Biso   1.000  H
  H474     1.0000 0.73092  0.53437  0.20463  Biso   1.000  H
  H475     1.0000 0.24148  0.65607  0.53783  Biso   1.000  H
  H476     1.0000 0.04129  0.80697  0.23700  Biso   1.000  H
  H477     1.0000 0.34004  0.01784  0.28436  Biso   1.000  H
  H478     1.0000 0.68757  0.71007  0.98252  Biso   1.000  H
  H479     1.0000 0.50604  0.75972  0.34696  Biso   1.000  H
  H480     1.0000 0.83818  0.03007  0.24119  Biso   1.000  H
  N1       1.0000 0.68456  0.16425  0.53396  Biso   1.000  N
  N2       1.0000 0.51556  0.66540  0.18875  Biso   1.000  N
  N3       1.0000 0.19422  0.48973  0.67743  Biso   1.000  N
  N4       1.0000 0.17955  0.16060  0.01192  Biso   1.000  N
  N5       1.0000 0.00443  0.66076  0.33414  Biso   1.000  N
  N6       1.0000 0.69429  0.49398  0.85241  Biso   1.000  N
  N7       1.0000 0.83939  0.66524  0.51302  Biso   1.000  N
  N8       1.0000 0.00605  0.16292  0.20644  Biso   1.000  N
  N9       1.0000 0.33065  0.99602  0.68515  Biso   1.000  N
  N10      1.0000 0.33176  0.66234  0.99778  Biso   1.000  N
  N11      1.0000 0.52062  0.16763  0.34173  Biso   1.000  N
  N12      1.0000 0.83391  0.98784  0.84242  Biso   1.000  N
  N13      1.0000 0.34160  0.80877  0.51541  Biso   1.000  N
  N14      1.0000 0.52860  0.30987  0.84202  Biso   1.000  N
  N15      1.0000 0.82936  0.49734  0.35034  Biso   1.000  N
  N16      1.0000 0.82837  0.81457  0.02810  Biso   1.000  N
  N17      1.0000 0.00308  0.32105  0.70059  Biso   1.000  N
  N18      1.0000 0.33019  0.46357  0.17876  Biso   1.000  N
  N19      1.0000 0.18540  0.31218  0.52749  Biso   1.000  N
  N20      1.0000 0.01968  0.81978  0.83303  Biso   1.000  N
  N21      1.0000 0.69125  0.99183  0.34665  Biso   1.000  N
  N22      1.0000 0.68278  0.31435  0.03277  Biso   1.000  N
  N23      1.0000 0.50484  0.81167  0.69186  Biso   1.000  N
  N24      1.0000 0.18738  0.97974  0.18904  Biso   1.000  N
  N25      1.0000 0.84118  0.50712  0.70410  Biso   1.000  N
  N26      1.0000 0.69285  0.81481  0.50635  Biso   1.000  N
  N27      1.0000 0.49591  0.66052  0.83847  Biso   1.000  N
  N28      1.0000 0.34410  0.49629  0.82578  Biso   1.000  N
  N29      1.0000 0.17960  0.80741  0.00241  Biso   1.000  N
  N30      1.0000 0.02490  0.67039  0.68536  Biso   1.000  N
  N31      1.0000 0.68319  0.99794  0.69550  Biso   1.000  N
  N32      1.0000 0.83256  0.31350  0.53338  Biso   1.000  N
  N33      1.0000 0.00098  0.17367  0.85083  Biso   1.000  N
  N34      1.0000 0.18930  0.00087  0.83893  Biso   1.000  N
  N35      1.0000 0.32965  0.30753  0.01478  Biso   1.000  N
  N36      1.0000 0.50146  0.16295  0.69791  Biso   1.000  N
  N37      1.0000 0.18259  0.47026  0.32213  Biso   1.000  N
  N38      1.0000 0.33315  0.16448  0.51278  Biso   1.000  N
  N39      1.0000 0.51018  0.31136  0.19134  Biso   1.000  N
  N40      1.0000 0.68092  0.50286  0.20351  Biso   1.000  N
  N41      1.0000 0.83279  0.16881  0.03661  Biso   1.000  N
  N42      1.0000 0.00976  0.30836  0.35125  Biso   1.000  N
  N43      1.0000 0.33972  0.98391  0.33424  Biso   1.000  N
  N44      1.0000 0.19124  0.66284  0.51203  Biso   1.000  N
  N45      1.0000 0.01246  0.80809  0.18558  Biso   1.000  N
  N46      1.0000 0.83408  0.99877  0.19533  Biso   1.000  N
  N47      1.0000 0.68065  0.66524  0.02003  Biso   1.000  N
  N48      1.0000 0.52693  0.81202  0.34059  Biso   1.000  N
  O1       1.0000 0.35403  0.52808  0.00820  Biso   1.000  O
  O2       1.0000 0.00767  0.33457  0.56793  Biso   1.000  O
  O3       1.0000 0.55744  0.98502  0.35988  Biso   1.000  O
  O4       1.0000 0.85481  0.53340  0.52206  Biso   1.000  O
  O5       1.0000 0.51296  0.32923  0.97432  Biso   1.000  O
  O6       1.0000 0.05259  0.99387  0.17460  Biso   1.000  O
  O7       1.0000 0.16154  0.02617  0.02190  Biso   1.000  O
  O8       1.0000 0.51232  0.82739  0.55867  Biso   1.000  O
  O9       1.0000 0.96590  0.48713  0.36090  Biso   1.000  O
  O10      1.0000 0.66274  0.03076  0.52825  Biso   1.000  O
  O11      1.0000 0.00286  0.83547  0.96919  Biso   1.000  O
  O12      1.0000 0.46504  0.48130  0.16523  Biso   1.000  O
  O13      1.0000 0.66550  0.44907  0.03057  Biso   1.000  O
  O14      1.0000 0.01681  0.64193  0.46823  Biso   1.000  O
  O15      1.0000 0.46582  0.98376  0.67093  Biso   1.000  O
  O16      1.0000 0.17172  0.44700  0.49926  Biso   1.000  O
  O17      1.0000 0.51146  0.64768  0.05648  Biso   1.000  O
  O18      1.0000 0.96913  0.99211  0.86587  Biso   1.000  O
  O19      1.0000 0.84920  0.95018  0.02100  Biso   1.000  O
  O20      1.0000 0.51547  0.14586  0.47584  Biso   1.000  O
  O21      1.0000 0.05816  0.48444  0.66577  Biso   1.000  O
  O22      1.0000 0.36187  0.94546  0.50873  Biso   1.000  O
  O23      1.0000 0.01573  0.14922  0.07140  Biso   1.000  O
  O24      1.0000 0.55960  0.48271  0.86271  Biso   1.000  O
  O25      1.0000 0.96864  0.98803  0.17220  Biso   1.000  O
  O26      1.0000 0.16135  0.94216  0.00799  Biso   1.000  O
  O27      1.0000 0.99851  0.14580  0.98703  Biso   1.000  O
  O28      1.0000 0.47510  0.99131  0.35770  Biso   1.000  O
  O29      1.0000 0.66538  0.94337  0.51747  Biso   1.000  O
  O30      1.0000 0.50342  0.14753  0.56153  Biso   1.000  O
  O31      1.0000 0.54999  0.49174  0.17283  Biso   1.000  O
  O32      1.0000 0.35291  0.44449  0.00270  Biso   1.000  O
  O33      1.0000 0.50309  0.64515  0.97308  Biso   1.000  O
  O34      1.0000 0.05039  0.48125  0.35431  Biso   1.000  O
  O35      1.0000 0.85113  0.44727  0.52766  Biso   1.000  O
  O36      1.0000 0.02059  0.64821  0.55146  Biso   1.000  O
  O37      1.0000 0.05596  0.99946  0.85815  Biso   1.000  O
  O38      1.0000 0.84835  0.03483  0.01500  Biso   1.000  O
  O39      1.0000 0.00391  0.83141  0.05029  Biso   1.000  O
  O40      1.0000 0.54792  0.99374  0.67484  Biso   1.000  O
  O41      1.0000 0.35832  0.03019  0.51003  Biso   1.000  O
  O42      1.0000 0.52124  0.83367  0.47471  Biso   1.000  O
  O43      1.0000 0.47641  0.48653  0.85547  Biso   1.000  O
  O44      1.0000 0.66577  0.53301  0.02675  Biso   1.000  O
  O45      1.0000 0.50016  0.33024  0.05559  Biso   1.000  O
  O46      1.0000 0.97635  0.49844  0.67358  Biso   1.000  O
  O47      1.0000 0.17252  0.53012  0.49772  Biso   1.000  O
  O48      1.0000 0.01122  0.33438  0.48562  Biso   1.000  O
  O49      1.0000 0.01556  0.94602  0.17245  Biso   1.000  O
  O50      1.0000 0.16597  0.99193  0.97256  Biso   1.000  O
  O51      1.0000 0.96493  0.14683  0.04362  Biso   1.000  O
  O52      1.0000 0.51376  0.94868  0.35822  Biso   1.000  O
  O53      1.0000 0.66630  0.98342  0.56408  Biso   1.000  O
  O54      1.0000 0.46841  0.14929  0.51035  Biso   1.000  O
  O55      1.0000 0.51693  0.44562  0.16934  Biso   1.000  O
  O56      1.0000 0.35356  0.48955  0.96334  Biso   1.000  O
  O57      1.0000 0.54840  0.64242  0.01216  Biso   1.000  O
  O58      1.0000 0.00670  0.44070  0.35682  Biso   1.000  O
  O59      1.0000 0.85641  0.49498  0.56992  Biso   1.000  O
  O60      1.0000 0.05843  0.64409  0.51020  Biso   1.000  O
  O61      1.0000 0.00856  0.03835  0.86612  Biso   1.000  O
  O62      1.0000 0.85285  0.99646  0.06122  Biso   1.000  O
  O63      1.0000 0.04496  0.83467  0.00949  Biso   1.000  O
  O64      1.0000 0.50476  0.02960  0.67653  Biso   1.000  O
  O65      1.0000 0.35497  0.98610  0.47007  Biso   1.000  O
  O66      1.0000 0.55819  0.82731  0.52205  Biso   1.000  O
  O67      1.0000 0.51953  0.52762  0.86187  Biso   1.000  O
  O68      1.0000 0.66650  0.49429  0.06938  Biso   1.000  O
  O69      1.0000 0.46379  0.32735  0.01003  Biso   1.000  O
  O70      1.0000 0.02092  0.53594  0.66916  Biso   1.000  O
  O71      1.0000 0.16963  0.48897  0.45750  Biso   1.000  O
  O72      1.0000 0.96683  0.33478  0.52396  Biso   1.000  O
  O73      1.0000 0.00940  0.45205  0.67109  Biso   1.000  O
  O74      1.0000 0.66722  0.99584  0.48129  Biso   1.000  O
  O75      1.0000 0.46341  0.64461  0.01937  Biso   1.000  O
  O76      1.0000 0.52012  0.44216  0.86311  Biso   1.000  O
  O77      1.0000 0.16526  0.97564  0.05416  Biso   1.000  O
  O78      1.0000 0.97578  0.64086  0.51182  Biso   1.000  O
  O79      1.0000 0.50588  0.94490  0.67219  Biso   1.000  O
  O80      1.0000 0.85457  0.49228  0.48516  Biso   1.000  O
  O81      1.0000 0.04589  0.14339  0.01977  Biso   1.000  O
  O82      1.0000 0.01792  0.95593  0.85908  Biso   1.000  O
  O83      1.0000 0.34991  0.48633  0.04528  Biso   1.000  O
  O84      1.0000 0.55063  0.14295  0.52680  Biso   1.000  O
  O85      1.0000 0.01386  0.52519  0.35457  Biso   1.000  O
  O86      1.0000 0.35933  0.98730  0.55126  Biso   1.000  O
  O87      1.0000 0.54673  0.33030  0.01840  Biso   1.000  O
  O88      1.0000 0.50192  0.53017  0.16772  Biso   1.000  O
  O89      1.0000 0.85345  0.99041  0.97747  Biso   1.000  O
  O90      1.0000 0.05188  0.33185  0.52852  Biso   1.000  O
  O91      1.0000 0.51794  0.03252  0.36307  Biso   1.000  O
  O92      1.0000 0.17049  0.48677  0.54075  Biso   1.000  O
  O93      1.0000 0.96125  0.83254  0.01597  Biso   1.000  O
  O94      1.0000 0.00704  0.02841  0.18200  Biso   1.000  O
  O95      1.0000 0.66410  0.48789  0.98662  Biso   1.000  O
  O96      1.0000 0.47549  0.82845  0.51227  Biso   1.000  O
  O97      1.0000 0.46883  0.19801  0.50997  Biso   1.000  O
  O98      1.0000 0.50762  0.44649  0.21707  Biso   1.000  O
  O99      1.0000 0.21811  0.48539  0.45653  Biso   1.000  O
  O100     1.0000 0.96678  0.19476  0.04011  Biso   1.000  O
  O101     1.0000 0.99817  0.43535  0.30936  Biso   1.000  O
  O102     1.0000 0.71561  0.49599  0.07009  Biso   1.000  O
  O103     1.0000 0.06118  0.69238  0.51003  Biso   1.000  O
  O104     1.0000 0.01215  0.94269  0.22156  Biso   1.000  O
  O105     1.0000 0.30641  0.98994  0.46907  Biso   1.000  O
  O106     1.0000 0.54924  0.69105  0.00758  Biso   1.000  O
  O107     1.0000 0.51795  0.94898  0.30917  Biso   1.000  O
  O108     1.0000 0.80419  0.99113  0.06258  Biso   1.000  O
  O109     1.0000 0.56055  0.77859  0.51835  Biso   1.000  O
  O110     1.0000 0.52232  0.53067  0.81319  Biso   1.000  O
  O111     1.0000 0.80781  0.49509  0.56955  Biso   1.000  O
  O112     1.0000 0.04352  0.78596  0.00765  Biso   1.000  O
  O113     1.0000 0.02822  0.53555  0.71619  Biso   1.000  O
  O114     1.0000 0.30460  0.49228  0.96070  Biso   1.000  O
  O115     1.0000 0.96866  0.28699  0.52632  Biso   1.000  O
  O116     1.0000 0.00671  0.03943  0.81785  Biso   1.000  O
  O117     1.0000 0.71480  0.98031  0.56202  Biso   1.000  O
  O118     1.0000 0.46267  0.28054  0.00891  Biso   1.000  O
  O119     1.0000 0.50204  0.02838  0.72488  Biso   1.000  O
  O120     1.0000 0.21379  0.99430  0.97307  Biso   1.000  O
  O121     1.0000 0.06034  0.48217  0.71511  Biso   1.000  O
  O122     1.0000 0.71106  0.02750  0.53159  Biso   1.000  O
  O123     1.0000 0.51357  0.69367  0.05398  Biso   1.000  O
  O124     1.0000 0.56225  0.48743  0.81509  Biso   1.000  O
  O125     1.0000 0.20933  0.02792  0.02507  Biso   1.000  O
  O126     1.0000 0.01256  0.69083  0.46732  Biso   1.000  O
  O127     1.0000 0.46327  0.98225  0.72132  Biso   1.000  O
  O128     1.0000 0.80538  0.53239  0.52145  Biso   1.000  O
  O129     1.0000 0.01735  0.19724  0.07223  Biso   1.000  O
  O130     1.0000 0.96914  0.99581  0.81872  Biso   1.000  O
  O131     1.0000 0.30537  0.52930  0.00782  Biso   1.000  O
  O132     1.0000 0.52145  0.19373  0.47937  Biso   1.000  O
  O133     1.0000 0.95844  0.48134  0.31290  Biso   1.000  O
  O134     1.0000 0.31327  0.94285  0.50287  Biso   1.000  O
  O135     1.0000 0.50773  0.28206  0.97089  Biso   1.000  O
  O136     1.0000 0.46180  0.48160  0.21227  Biso   1.000  O
  O137     1.0000 0.80062  0.94791  0.02348  Biso   1.000  O
  O138     1.0000 0.00866  0.28502  0.56923  Biso   1.000  O
  O139     1.0000 0.55907  0.98729  0.31166  Biso   1.000  O
  O140     1.0000 0.21898  0.44696  0.50513  Biso   1.000  O
  O141     1.0000 0.00194  0.78666  0.96660  Biso   1.000  O
  O142     1.0000 0.05051  0.98751  0.22247  Biso   1.000  O
  O143     1.0000 0.71394  0.44767  0.03150  Biso   1.000  O
  O144     1.0000 0.51388  0.77927  0.55930  Biso   1.000  O
  O145     1.0000 0.54239  0.49772  0.22093  Biso   1.000  O
  O146     1.0000 0.22033  0.53038  0.49337  Biso   1.000  O
  O147     1.0000 0.50117  0.19760  0.56351  Biso   1.000  O
  O148     1.0000 0.04505  0.47754  0.30549  Biso   1.000  O
  O149     1.0000 0.71491  0.53257  0.02238  Biso   1.000  O
  O150     1.0000 0.99850  0.19498  0.98862  Biso   1.000  O
  O151     1.0000 0.96764  0.98149  0.22080  Biso   1.000  O
  O152     1.0000 0.30959  0.02766  0.51626  Biso   1.000  O
  O153     1.0000 0.01571  0.69552  0.55040  Biso   1.000  O
  O154     1.0000 0.47628  0.99499  0.30951  Biso   1.000  O
  O155     1.0000 0.80049  0.03138  0.02083  Biso   1.000  O
  O156     1.0000 0.50080  0.69325  0.97183  Biso   1.000  O
  O157     1.0000 0.48063  0.48780  0.80735  Biso   1.000  O
  O158     1.0000 0.80256  0.44866  0.53291  Biso   1.000  O
  O159     1.0000 0.52160  0.78504  0.47538  Biso   1.000  O
  O160     1.0000 0.97782  0.50313  0.72275  Biso   1.000  O
  O161     1.0000 0.30512  0.44468  0.99996  Biso   1.000  O
  O162     1.0000 0.00547  0.78331  0.05003  Biso   1.000  O
  O163     1.0000 0.05324  0.00739  0.81098  Biso   1.000  O
  O164     1.0000 0.71250  0.94823  0.50791  Biso   1.000  O
  O165     1.0000 0.01037  0.28449  0.48704  Biso   1.000  O
  O166     1.0000 0.54869  0.98975  0.72299  Biso   1.000  O
  O167     1.0000 0.20993  0.94437  0.01031  Biso   1.000  O
  O168     1.0000 0.50054  0.28082  0.05791  Biso   1.000  O
  O169     1.0000 0.00811  0.02460  0.22955  Biso   1.000  O
  O170     1.0000 0.21419  0.97938  0.05475  Biso   1.000  O
  O171     1.0000 0.04962  0.19260  0.02121  Biso   1.000  O
  O172     1.0000 0.51909  0.03544  0.31515  Biso   1.000  O
  O173     1.0000 0.71572  0.99767  0.48167  Biso   1.000  O
  O174     1.0000 0.55081  0.19159  0.53160  Biso   1.000  O
  O175     1.0000 0.49461  0.53041  0.21599  Biso   1.000  O
  O176     1.0000 0.30174  0.48513  0.04497  Biso   1.000  O
  O177     1.0000 0.46719  0.69297  0.02063  Biso   1.000  O
  O178     1.0000 0.00825  0.52321  0.30681  Biso   1.000  O
  O179     1.0000 0.80793  0.48277  0.48570  Biso   1.000  O
  O180     1.0000 0.97496  0.68983  0.51635  Biso   1.000  O
  O181     1.0000 0.01481  0.95740  0.81017  Biso   1.000  O
  O182     1.0000 0.80454  0.98432  0.97888  Biso   1.000  O
  O183     1.0000 0.96142  0.78348  0.00893  Biso   1.000  O
  O184     1.0000 0.51041  0.94500  0.72076  Biso   1.000  O
  O185     1.0000 0.31296  0.97596  0.55178  Biso   1.000  O
  O186     1.0000 0.47676  0.77916  0.51289  Biso   1.000  O
  O187     1.0000 0.51924  0.44477  0.81394  Biso   1.000  O
  O188     1.0000 0.71249  0.48907  0.98763  Biso   1.000  O
  O189     1.0000 0.54556  0.28151  0.01591  Biso   1.000  O
  O190     1.0000 0.01036  0.45535  0.71995  Biso   1.000  O
  O191     1.0000 0.21837  0.49495  0.54028  Biso   1.000  O
  O192     1.0000 0.05108  0.28508  0.53240  Biso   1.000  O
