data_image0
_cell_length_a       46.5753
_cell_length_b       46.6639
_cell_length_c       46.5667
_cell_angle_alpha    90
_cell_angle_beta     90
_cell_angle_gamma    90

_symmetry_space_group_name_H-M    "P 1"
_symmetry_int_tables_number       1

loop_
  _symmetry_equiv_pos_as_xyz
  'x, y, z'

loop_
  _atom_site_label
  _atom_site_occupancy
  _atom_site_fract_x
  _atom_site_fract_y
  _atom_site_fract_z
  _atom_site_thermal_displace_type
  _atom_site_B_iso_or_equiv
  _atom_site_type_symbol
  C1       1.0000 0.56813  0.97692  0.36228  Biso   1.000  C
  C2       1.0000 0.34315  0.55522  0.04095  Biso   1.000  C
  C3       1.0000 0.03036  0.29436  0.58629  Biso   1.000  C
  C4       1.0000 0.07077  0.00147  0.22236  Biso   1.000  C
  C5       1.0000 0.84171  0.52847  0.54760  Biso   1.000  C
  C6       1.0000 0.51700  0.30291  0.99424  Biso   1.000  C
  C7       1.0000 0.96077  0.49946  0.35858  Biso   1.000  C
  C8       1.0000 0.19792  0.05545  0.04015  Biso   1.000  C
  C9       1.0000 0.52281  0.80788  0.59646  Biso   1.000  C
  C10      1.0000 0.46165  0.48183  0.22211  Biso   1.000  C
  C11      1.0000 0.71064  0.02277  0.54600  Biso   1.000  C
  C12      1.0000 0.03804  0.80357  0.00541  Biso   1.000  C
  C13      1.0000 0.47035  0.99300  0.72281  Biso   1.000  C
  C14      1.0000 0.70505  0.41759  0.04940  Biso   1.000  C
  C15      1.0000 0.01837  0.66563  0.50404  Biso   1.000  C
  C16      1.0000 0.95903  0.96532  0.86503  Biso   1.000  C
  C17      1.0000 0.20706  0.42654  0.53056  Biso   1.000  C
  C18      1.0000 0.54421  0.66974  0.09721  Biso   1.000  C
  C19      1.0000 0.07460  0.47096  0.72193  Biso   1.000  C
  C20      1.0000 0.84059  0.91059  0.05377  Biso   1.000  C
  C21      1.0000 0.53598  0.15499  0.49387  Biso   1.000  C
  C22      1.0000 0.57922  0.48511  0.86444  Biso   1.000  C
  C23      1.0000 0.33953  0.92745  0.56542  Biso   1.000  C
  C24      1.0000 0.00408  0.17067  0.08239  Biso   1.000  C
  C25      1.0000 0.34563  0.03144  0.53032  Biso   1.000  C
  C26      1.0000 0.50848  0.30725  0.10341  Biso   1.000  C
  C27      1.0000 0.06959  0.50002  0.35790  Biso   1.000  C
  C28      1.0000 0.83558  0.02109  0.05097  Biso   1.000  C
  C29      1.0000 0.01667  0.30355  0.47866  Biso   1.000  C
  C30      1.0000 0.56808  0.49007  0.22127  Biso   1.000  C
  C31      1.0000 0.19773  0.53671  0.54577  Biso   1.000  C
  C32      1.0000 0.03284  0.81372  0.11432  Biso   1.000  C
  C33      1.0000 0.46026  0.98435  0.36347  Biso   1.000  C
  C34      1.0000 0.70300  0.52692  0.04579  Biso   1.000  C
  C35      1.0000 0.52178  0.80122  0.48868  Biso   1.000  C
  C36      1.0000 0.96188  0.99204  0.22816  Biso   1.000  C
  C37      1.0000 0.70479  0.91597  0.53593  Biso   1.000  C
  C38      1.0000 0.52180  0.67163  0.98750  Biso   1.000  C
  C39      1.0000 0.96819  0.47676  0.72390  Biso   1.000  C
  C40      1.0000 0.20811  0.94878  0.04475  Biso   1.000  C
  C41      1.0000 0.02475  0.65742  0.61382  Biso   1.000  C
  C42      1.0000 0.47030  0.48920  0.85948  Biso   1.000  C
  C43      1.0000 0.84569  0.42114  0.53869  Biso   1.000  C
  C44      1.0000 0.01219  0.15990  0.97344  Biso   1.000  C
  C45      1.0000 0.57737  0.98004  0.72078  Biso   1.000  C
  C46      1.0000 0.33997  0.44450  0.03604  Biso   1.000  C
  C47      1.0000 0.51686  0.16286  0.59849  Biso   1.000  C
  C48      1.0000 0.07177  0.98052  0.86431  Biso   1.000  C
  C49      1.0000 0.01045  0.02602  0.85999  Biso   1.000  C
  C50      1.0000 0.83201  0.96590  0.10616  Biso   1.000  C
  C51      1.0000 0.09009  0.81545  0.05989  Biso   1.000  C
  C52      1.0000 0.52559  0.04237  0.72690  Biso   1.000  C
  C53      1.0000 0.33954  0.96583  0.49386  Biso   1.000  C
  C54      1.0000 0.57500  0.79873  0.53945  Biso   1.000  C
  C55      1.0000 0.52430  0.54227  0.86130  Biso   1.000  C
  C56      1.0000 0.69899  0.47141  0.09943  Biso   1.000  C
  C57      1.0000 0.46002  0.30733  0.04795  Biso   1.000  C
  C58      1.0000 0.02838  0.52605  0.73176  Biso   1.000  C
  C59      1.0000 0.19959  0.48855  0.48484  Biso   1.000  C
  C60      1.0000 0.97127  0.29288  0.53936  Biso   1.000  C
  C61      1.0000 0.01849  0.94535  0.22960  Biso   1.000  C
  C62      1.0000 0.20335  0.99574  0.98827  Biso   1.000  C
  C63      1.0000 0.95113  0.15697  0.02311  Biso   1.000  C
  C64      1.0000 0.50987  0.92595  0.36195  Biso   1.000  C
  C65      1.0000 0.70851  0.96208  0.59581  Biso   1.000  C
  C66      1.0000 0.47514  0.15741  0.53603  Biso   1.000  C
  C67      1.0000 0.51911  0.43070  0.22287  Biso   1.000  C
  C68      1.0000 0.34227  0.50200  0.98541  Biso   1.000  C
  C69      1.0000 0.58310  0.66382  0.03257  Biso   1.000  C
  C70      1.0000 0.02316  0.44213  0.35515  Biso   1.000  C
  C71      1.0000 0.84292  0.47288  0.59834  Biso   1.000  C
  C72      1.0000 0.07796  0.66820  0.55843  Biso   1.000  C
  C73      1.0000 0.01678  0.55152  0.36238  Biso   1.000  C
  C74      1.0000 0.34170  0.99935  0.59813  Biso   1.000  C
  C75      1.0000 0.56797  0.29812  0.05424  Biso   1.000  C
  C76      1.0000 0.51020  0.54151  0.21674  Biso   1.000  C
  C77      1.0000 0.83581  0.96081  0.99745  Biso   1.000  C
  C78      1.0000 0.08068  0.30061  0.52749  Biso   1.000  C
  C79      1.0000 0.52353  0.03582  0.35959  Biso   1.000  C
  C80      1.0000 0.20261  0.47858  0.59396  Biso   1.000  C
  C81      1.0000 0.98121  0.80084  0.05924  Biso   1.000  C
  C82      1.0000 0.01183  0.05390  0.21562  Biso   1.000  C
  C83      1.0000 0.70756  0.47220  0.99045  Biso   1.000  C
  C84      1.0000 0.46931  0.80919  0.54898  Biso   1.000  C
  C85      1.0000 0.01593  0.41786  0.71753  Biso   1.000  C
  C86      1.0000 0.70150  0.97753  0.48718  Biso   1.000  C
  C87      1.0000 0.47802  0.67551  0.05259  Biso   1.000  C
  C88      1.0000 0.52385  0.43429  0.86819  Biso   1.000  C
  C89      1.0000 0.19742  0.00191  0.09688  Biso   1.000  C
  C90      1.0000 0.96750  0.65654  0.55709  Biso   1.000  C
  C91      1.0000 0.51666  0.93227  0.72244  Biso   1.000  C
  C92      1.0000 0.84035  0.48070  0.48841  Biso   1.000  C
  C93      1.0000 0.05906  0.17215  0.03106  Biso   1.000  C
  C94      1.0000 0.02324  0.91748  0.86769  Biso   1.000  C
  C95      1.0000 0.34226  0.49653  0.09288  Biso   1.000  C
  C96      1.0000 0.58254  0.15294  0.55728  Biso   1.000  C
  C97      1.0000 0.71142  0.05499  0.54606  Biso   1.000  C
  C98      1.0000 0.54657  0.66908  0.12829  Biso   1.000  C
  C99      1.0000 0.10643  0.47407  0.72128  Biso   1.000  C
  C100     1.0000 0.19398  0.08775  0.03985  Biso   1.000  C
  C101     1.0000 0.01998  0.66722  0.47095  Biso   1.000  C
  C102     1.0000 0.61086  0.48614  0.86402  Biso   1.000  C
  C103     1.0000 0.84072  0.55941  0.55303  Biso   1.000  C
  C104     1.0000 0.00434  0.17560  0.11491  Biso   1.000  C
  C105     1.0000 0.43898  0.99613  0.72281  Biso   1.000  C
  C106     1.0000 0.34446  0.58865  0.04329  Biso   1.000  C
  C107     1.0000 0.53898  0.15527  0.46201  Biso   1.000  C
  C108     1.0000 0.92592  0.96357  0.86710  Biso   1.000  C
  C109     1.0000 0.34012  0.89555  0.56875  Biso   1.000  C
  C110     1.0000 0.51841  0.30229  0.96234  Biso   1.000  C
  C111     1.0000 0.92936  0.50301  0.36022  Biso   1.000  C
  C112     1.0000 0.84092  0.87827  0.05805  Biso   1.000  C
  C113     1.0000 0.02501  0.29402  0.61766  Biso   1.000  C
  C114     1.0000 0.43061  0.48501  0.22298  Biso   1.000  C
  C115     1.0000 0.20897  0.39509  0.52932  Biso   1.000  C
  C116     1.0000 0.03940  0.80104  0.97337  Biso   1.000  C
  C117     1.0000 0.60127  0.97670  0.36292  Biso   1.000  C
  C118     1.0000 0.70464  0.38545  0.05290  Biso   1.000  C
  C119     1.0000 0.52556  0.80791  0.62804  Biso   1.000  C
  C120     1.0000 0.10308  0.00058  0.22437  Biso   1.000  C
  C121     1.0000 0.83261  0.97297  0.13776  Biso   1.000  C
  C122     1.0000 0.12143  0.81868  0.05717  Biso   1.000  C
  C123     1.0000 0.01065  0.05713  0.85747  Biso   1.000  C
  C124     1.0000 0.33781  0.96639  0.46099  Biso   1.000  C
  C125     1.0000 0.60742  0.79627  0.53709  Biso   1.000  C
  C126     1.0000 0.52129  0.07432  0.72827  Biso   1.000  C
  C127     1.0000 0.69658  0.46958  0.13099  Biso   1.000  C
  C128     1.0000 0.42731  0.31102  0.04402  Biso   1.000  C
  C129     1.0000 0.51970  0.57504  0.86136  Biso   1.000  C
  C130     1.0000 0.19697  0.49139  0.45276  Biso   1.000  C
  C131     1.0000 0.93933  0.29187  0.54159  Biso   1.000  C
  C132     1.0000 0.02934  0.55741  0.73536  Biso   1.000  C
  C133     1.0000 0.20322  0.98813  0.95694  Biso   1.000  C
  C134     1.0000 0.91984  0.15506  0.02898  Biso   1.000  C
  C135     1.0000 0.01916  0.91421  0.23553  Biso   1.000  C
  C136     1.0000 0.70676  0.95821  0.62838  Biso   1.000  C
  C137     1.0000 0.44267  0.15712  0.52912  Biso   1.000  C
  C138     1.0000 0.51070  0.89228  0.36104  Biso   1.000  C
  C139     1.0000 0.34409  0.50004  0.95298  Biso   1.000  C
  C140     1.0000 0.61545  0.66059  0.02825  Biso   1.000  C
  C141     1.0000 0.52108  0.39870  0.22593  Biso   1.000  C
  C142     1.0000 0.84127  0.47514  0.63058  Biso   1.000  C
  C143     1.0000 0.11070  0.66980  0.56088  Biso   1.000  C
  C144     1.0000 0.02162  0.40903  0.35380  Biso   1.000  C
  C145     1.0000 0.34131  0.49598  0.12398  Biso   1.000  C
  C146     1.0000 0.11307  0.30224  0.53503  Biso   1.000  C
  C147     1.0000 0.53166  0.06672  0.36008  Biso   1.000  C
  C148     1.0000 0.83764  0.48682  0.45676  Biso   1.000  C
  C149     1.0000 0.60039  0.29573  0.05455  Biso   1.000  C
  C150     1.0000 0.01452  0.08538  0.21140  Biso   1.000  C
  C151     1.0000 0.19839  0.99957  0.12945  Biso   1.000  C
  C152     1.0000 0.43649  0.80590  0.55258  Biso   1.000  C
  C153     1.0000 0.02189  0.58251  0.36623  Biso   1.000  C
  C154     1.0000 0.69995  0.98597  0.45719  Biso   1.000  C
  C155     1.0000 0.94907  0.79799  0.06032  Biso   1.000  C
  C156     1.0000 0.50914  0.57336  0.21717  Biso   1.000  C
  C157     1.0000 0.70614  0.47270  0.95826  Biso   1.000  C
  C158     1.0000 0.93620  0.65622  0.55322  Biso   1.000  C
  C159     1.0000 0.51887  0.90117  0.72263  Biso   1.000  C
  C160     1.0000 0.20255  0.47925  0.62644  Biso   1.000  C
  C161     1.0000 0.44535  0.67693  0.05534  Biso   1.000  C
  C162     1.0000 0.02263  0.88590  0.87028  Biso   1.000  C
  C163     1.0000 0.83775  0.95475  0.96640  Biso   1.000  C
  C164     1.0000 0.61452  0.14874  0.56089  Biso   1.000  C
  C165     1.0000 0.01123  0.38699  0.71672  Biso   1.000  C
  C166     1.0000 0.34143  0.01137  0.62763  Biso   1.000  C
  C167     1.0000 0.09191  0.17339  0.02892  Biso   1.000  C
  C168     1.0000 0.52478  0.40185  0.86724  Biso   1.000  C
  C169     1.0000 0.03235  0.81441  0.14672  Biso   1.000  C
  C170     1.0000 0.10371  0.98413  0.86265  Biso   1.000  C
  C171     1.0000 0.83357  0.05283  0.05343  Biso   1.000  C
  C172     1.0000 0.52046  0.79972  0.45735  Biso   1.000  C
  C173     1.0000 0.60990  0.97505  0.71962  Biso   1.000  C
  C174     1.0000 0.34679  0.06355  0.52509  Biso   1.000  C
  C175     1.0000 0.51177  0.30481  0.13485  Biso   1.000  C
  C176     1.0000 0.43801  0.49435  0.85673  Biso   1.000  C
  C177     1.0000 0.70457  0.55795  0.04374  Biso   1.000  C
  C178     1.0000 0.02049  0.30717  0.44610  Biso   1.000  C
  C179     1.0000 0.93635  0.47168  0.72396  Biso   1.000  C
  C180     1.0000 0.19819  0.56842  0.54995  Biso   1.000  C
  C181     1.0000 0.01768  0.15688  0.94269  Biso   1.000  C
  C182     1.0000 0.92892  0.99324  0.22931  Biso   1.000  C
  C183     1.0000 0.21126  0.91760  0.05146  Biso   1.000  C
  C184     1.0000 0.51339  0.16689  0.62971  Biso   1.000  C
  C185     1.0000 0.42824  0.98376  0.36465  Biso   1.000  C
  C186     1.0000 0.70544  0.88336  0.53641  Biso   1.000  C
  C187     1.0000 0.51983  0.67336  0.95478  Biso   1.000  C
  C188     1.0000 0.60040  0.49550  0.22227  Biso   1.000  C
  C189     1.0000 0.33859  0.41323  0.03349  Biso   1.000  C
  C190     1.0000 0.02491  0.65668  0.64664  Biso   1.000  C
  C191     1.0000 0.10139  0.50260  0.35886  Biso   1.000  C
  C192     1.0000 0.84512  0.38746  0.54259  Biso   1.000  C
  C193     1.0000 0.86392  0.95809  0.94978  Biso   1.000  C
  C194     1.0000 0.92931  0.82347  0.06197  Biso   1.000  C
  C195     1.0000 0.02921  0.87362  0.89825  Biso   1.000  C
  C196     1.0000 0.36824  0.00842  0.64356  Biso   1.000  C
  C197     1.0000 0.41943  0.83239  0.55710  Biso   1.000  C
  C198     1.0000 0.52070  0.88550  0.69604  Biso   1.000  C
  C199     1.0000 0.67955  0.47937  0.94208  Biso   1.000  C
  C200     1.0000 0.61804  0.32126  0.05318  Biso   1.000  C
  C201     1.0000 0.52481  0.38542  0.89494  Biso   1.000  C
  C202     1.0000 0.17578  0.47420  0.64322  Biso   1.000  C
  C203     1.0000 0.12990  0.32892  0.53640  Biso   1.000  C
  C204     1.0000 0.01612  0.37133  0.68940  Biso   1.000  C
  C205     1.0000 0.17131  0.00087  0.14501  Biso   1.000  C
  C206     1.0000 0.11044  0.14890  0.03167  Biso   1.000  C
  C207     1.0000 0.00862  0.10079  0.18460  Biso   1.000  C
  C208     1.0000 0.67198  0.98713  0.44266  Biso   1.000  C
  C209     1.0000 0.63145  0.12218  0.55688  Biso   1.000  C
  C210     1.0000 0.53686  0.08080  0.38734  Biso   1.000  C
  C211     1.0000 0.36708  0.49080  0.14188  Biso   1.000  C
  C212     1.0000 0.42718  0.65146  0.05410  Biso   1.000  C
  C213     1.0000 0.51971  0.59021  0.19165  Biso   1.000  C
  C214     1.0000 0.86435  0.48959  0.44125  Biso   1.000  C
  C215     1.0000 0.92108  0.62958  0.55558  Biso   1.000  C
  C216     1.0000 0.01763  0.59563  0.39506  Biso   1.000  C
  C217     1.0000 0.12111  0.98874  0.88866  Biso   1.000  C
  C218     1.0000 0.86069  0.06927  0.04653  Biso   1.000  C
  C219     1.0000 0.02884  0.84354  0.16160  Biso   1.000  C
  C220     1.0000 0.62793  0.97459  0.69249  Biso   1.000  C
  C221     1.0000 0.37327  0.07812  0.52049  Biso   1.000  C
  C222     1.0000 0.51602  0.82630  0.44174  Biso   1.000  C
  C223     1.0000 0.42187  0.49773  0.88380  Biso   1.000  C
  C224     1.0000 0.67955  0.57706  0.03743  Biso   1.000  C
  C225     1.0000 0.51560  0.33063  0.15059  Biso   1.000  C
  C226     1.0000 0.91760  0.47513  0.69845  Biso   1.000  C
  C227     1.0000 0.17322  0.58565  0.55011  Biso   1.000  C
  C228     1.0000 0.01748  0.33512  0.43058  Biso   1.000  C
  C229     1.0000 0.91191  0.98513  0.20409  Biso   1.000  C
  C230     1.0000 0.18369  0.90171  0.05346  Biso   1.000  C
  C231     1.0000 0.01710  0.12866  0.92960  Biso   1.000  C
  C232     1.0000 0.41285  0.97958  0.39285  Biso   1.000  C
  C233     1.0000 0.67716  0.86842  0.53699  Biso   1.000  C
  C234     1.0000 0.51452  0.14131  0.64795  Biso   1.000  C
  C235     1.0000 0.61684  0.49221  0.19595  Biso   1.000  C
  C236     1.0000 0.36427  0.39479  0.03640  Biso   1.000  C
  C237     1.0000 0.51834  0.64590  0.93947  Biso   1.000  C
  C238     1.0000 0.11819  0.50157  0.38584  Biso   1.000  C
  C239     1.0000 0.87181  0.37208  0.54380  Biso   1.000  C
  C240     1.0000 0.02923  0.63048  0.66316  Biso   1.000  C
  C241     1.0000 0.62808  0.48372  0.88955  Biso   1.000  C
  C242     1.0000 0.86863  0.57564  0.55407  Biso   1.000  C
  C243     1.0000 0.52752  0.83377  0.64460  Biso   1.000  C
  C244     1.0000 0.12288  0.47435  0.69445  Biso   1.000  C
  C245     1.0000 0.37221  0.60141  0.04807  Biso   1.000  C
  C246     1.0000 0.03852  0.82613  0.95464  Biso   1.000  C
  C247     1.0000 0.91364  0.96071  0.89569  Biso   1.000  C
  C248     1.0000 0.68441  0.07074  0.55197  Biso   1.000  C
  C249     1.0000 0.02737  0.31919  0.63694  Biso   1.000  C
  C250     1.0000 0.42049  0.00116  0.69545  Biso   1.000  C
  C251     1.0000 0.16613  0.10133  0.04006  Biso   1.000  C
  C252     1.0000 0.51814  0.33017  0.94754  Biso   1.000  C
  C253     1.0000 0.41521  0.48483  0.19560  Biso   1.000  C
  C254     1.0000 0.18100  0.37930  0.53060  Biso   1.000  C
  C255     1.0000 0.54124  0.13019  0.44496  Biso   1.000  C
  C256     1.0000 0.91543  0.50101  0.38758  Biso   1.000  C
  C257     1.0000 0.67698  0.37154  0.05144  Biso   1.000  C
  C258     1.0000 0.00637  0.14996  0.13237  Biso   1.000  C
  C259     1.0000 0.11903  0.00199  0.19796  Biso   1.000  C
  C260     1.0000 0.36757  0.88003  0.56884  Biso   1.000  C
  C261     1.0000 0.01796  0.64220  0.45237  Biso   1.000  C
  C262     1.0000 0.61639  0.98163  0.39065  Biso   1.000  C
  C263     1.0000 0.87004  0.86588  0.05975  Biso   1.000  C
  C264     1.0000 0.54295  0.64105  0.14360  Biso   1.000  C
  C265     1.0000 0.01292  0.07473  0.88366  Biso   1.000  C
  C266     1.0000 0.86001  0.97584  0.15401  Biso   1.000  C
  C267     1.0000 0.13463  0.84664  0.05847  Biso   1.000  C
  C268     1.0000 0.51726  0.08974  0.70123  Biso   1.000  C
  C269     1.0000 0.36444  0.96790  0.44408  Biso   1.000  C
  C270     1.0000 0.62527  0.82110  0.53480  Biso   1.000  C
  C271     1.0000 0.51870  0.59084  0.88888  Biso   1.000  C
  C272     1.0000 0.66932  0.47949  0.14489  Biso   1.000  C
  C273     1.0000 0.41287  0.33950  0.04492  Biso   1.000  C
  C274     1.0000 0.03131  0.57562  0.71037  Biso   1.000  C
  C275     1.0000 0.16895  0.49721  0.43759  Biso   1.000  C
  C276     1.0000 0.92357  0.31920  0.54044  Biso   1.000  C
  C277     1.0000 0.02645  0.89731  0.20991  Biso   1.000  C
  C278     1.0000 0.17710  0.98807  0.94024  Biso   1.000  C
  C279     1.0000 0.90620  0.12628  0.03145  Biso   1.000  C
  C280     1.0000 0.51180  0.87772  0.38870  Biso   1.000  C
  C281     1.0000 0.67938  0.96076  0.64399  Biso   1.000  C
  C282     1.0000 0.42715  0.12999  0.52359  Biso   1.000  C
  C283     1.0000 0.52097  0.38186  0.19895  Biso   1.000  C
  C284     1.0000 0.37097  0.49971  0.93515  Biso   1.000  C
  C285     1.0000 0.63069  0.63287  0.02912  Biso   1.000  C
  C286     1.0000 0.01765  0.39119  0.37829  Biso   1.000  C
  C287     1.0000 0.86667  0.47848  0.64666  Biso   1.000  C
  C288     1.0000 0.12524  0.64057  0.55565  Biso   1.000  C
  C289     1.0000 0.36685  0.84930  0.56772  Biso   1.000  C
  C290     1.0000 0.51989  0.33150  0.91571  Biso   1.000  C
  C291     1.0000 0.88444  0.49648  0.38804  Biso   1.000  C
  C292     1.0000 0.87531  0.83457  0.05904  Biso   1.000  C
  C293     1.0000 0.01770  0.31699  0.66641  Biso   1.000  C
  C294     1.0000 0.38401  0.48751  0.19544  Biso   1.000  C
  C295     1.0000 0.18198  0.34852  0.53070  Biso   1.000  C
  C296     1.0000 0.03444  0.82257  0.92336  Biso   1.000  C
  C297     1.0000 0.64783  0.98736  0.39055  Biso   1.000  C
  C298     1.0000 0.67366  0.33919  0.05487  Biso   1.000  C
  C299     1.0000 0.52544  0.83278  0.67585  Biso   1.000  C
  C300     1.0000 0.15134  0.00018  0.19780  Biso   1.000  C
  C301     1.0000 0.68522  0.10197  0.55113  Biso   1.000  C
  C302     1.0000 0.53537  0.64117  0.17451  Biso   1.000  C
  C303     1.0000 0.15360  0.47466  0.69393  Biso   1.000  C
  C304     1.0000 0.16522  0.13260  0.03686  Biso   1.000  C
  C305     1.0000 0.01948  0.64572  0.42074  Biso   1.000  C
  C306     1.0000 0.65911  0.48055  0.88922  Biso   1.000  C
  C307     1.0000 0.86918  0.60723  0.55235  Biso   1.000  C
  C308     1.0000 0.01084  0.15362  0.16309  Biso   1.000  C
  C309     1.0000 0.38990  0.00515  0.69706  Biso   1.000  C
  C310     1.0000 0.37295  0.63299  0.05269  Biso   1.000  C
  C311     1.0000 0.53812  0.13166  0.41263  Biso   1.000  C
  C312     1.0000 0.88301  0.95694  0.89640  Biso   1.000  C
  C313     1.0000 0.16947  0.49771  0.40637  Biso   1.000  C
  C314     1.0000 0.39463  0.13177  0.52081  Biso   1.000  C
  C315     1.0000 0.51728  0.35052  0.20289  Biso   1.000  C
  C316     1.0000 0.66972  0.48616  0.17515  Biso   1.000  C
  C317     1.0000 0.87709  0.12406  0.04083  Biso   1.000  C
  C318     1.0000 0.02412  0.36009  0.37775  Biso   1.000  C
  C319     1.0000 0.36161  0.97104  0.41269  Biso   1.000  C
  C320     1.0000 0.15630  0.63929  0.55664  Biso   1.000  C
  C321     1.0000 0.02711  0.86711  0.21260  Biso   1.000  C
  C322     1.0000 0.85907  0.98449  0.18358  Biso   1.000  C
  C323     1.0000 0.66219  0.63072  0.03132  Biso   1.000  C
  C324     1.0000 0.51285  0.84656  0.38795  Biso   1.000  C
  C325     1.0000 0.86585  0.47639  0.67955  Biso   1.000  C
  C326     1.0000 0.65603  0.81685  0.54033  Biso   1.000  C
  C327     1.0000 0.51459  0.62347  0.88797  Biso   1.000  C
  C328     1.0000 0.36896  0.49513  0.90471  Biso   1.000  C
  C329     1.0000 0.16525  0.84760  0.06243  Biso   1.000  C
  C330     1.0000 0.02751  0.60661  0.71450  Biso   1.000  C
  C331     1.0000 0.68065  0.96276  0.67554  Biso   1.000  C
  C332     1.0000 0.89097  0.31877  0.54095  Biso   1.000  C
  C333     1.0000 0.01197  0.10593  0.87860  Biso   1.000  C
  C334     1.0000 0.17540  0.99113  0.90987  Biso   1.000  C
  C335     1.0000 0.38212  0.34187  0.04051  Biso   1.000  C
  C336     1.0000 0.51615  0.12131  0.70077  Biso   1.000  C
  C337     1.0000 0.68107  0.47911  0.91067  Biso   1.000  C
  C338     1.0000 0.89052  0.62938  0.55259  Biso   1.000  C
  C339     1.0000 0.52082  0.85458  0.69707  Biso   1.000  C
  C340     1.0000 0.17645  0.47388  0.67402  Biso   1.000  C
  C341     1.0000 0.39525  0.65310  0.05442  Biso   1.000  C
  C342     1.0000 0.02841  0.84217  0.90039  Biso   1.000  C
  C343     1.0000 0.86316  0.95453  0.91852  Biso   1.000  C
  C344     1.0000 0.66282  0.12384  0.55431  Biso   1.000  C
  C345     1.0000 0.01526  0.33904  0.68733  Biso   1.000  C
  C346     1.0000 0.36788  0.00831  0.67546  Biso   1.000  C
  C347     1.0000 0.14235  0.15324  0.03282  Biso   1.000  C
  C348     1.0000 0.52241  0.35413  0.89487  Biso   1.000  C
  C349     1.0000 0.36285  0.48994  0.17260  Biso   1.000  C
  C350     1.0000 0.16115  0.32624  0.53479  Biso   1.000  C
  C351     1.0000 0.53622  0.11078  0.38997  Biso   1.000  C
  C352     1.0000 0.86343  0.49309  0.40930  Biso   1.000  C
  C353     1.0000 0.65010  0.31978  0.05402  Biso   1.000  C
  C354     1.0000 0.01226  0.13220  0.18505  Biso   1.000  C
  C355     1.0000 0.17264  0.99954  0.17551  Biso   1.000  C
  C356     1.0000 0.38923  0.83009  0.56192  Biso   1.000  C
  C357     1.0000 0.01928  0.62641  0.39678  Biso   1.000  C
  C358     1.0000 0.67111  0.99026  0.41196  Biso   1.000  C
  C359     1.0000 0.89968  0.81778  0.06106  Biso   1.000  C
  C360     1.0000 0.52444  0.62101  0.19462  Biso   1.000  C
  C361     1.0000 0.01545  0.12846  0.89835  Biso   1.000  C
  C362     1.0000 0.88049  0.98935  0.20529  Biso   1.000  C
  C363     1.0000 0.18558  0.87019  0.06014  Biso   1.000  C
  C364     1.0000 0.51632  0.14277  0.67975  Biso   1.000  C
  C365     1.0000 0.38216  0.97582  0.39142  Biso   1.000  C
  C366     1.0000 0.67885  0.83775  0.53932  Biso   1.000  C
  C367     1.0000 0.51306  0.64561  0.90859  Biso   1.000  C
  C368     1.0000 0.64790  0.49200  0.19637  Biso   1.000  C
  C369     1.0000 0.36141  0.36385  0.03661  Biso   1.000  C
  C370     1.0000 0.02670  0.62993  0.69443  Biso   1.000  C
  C371     1.0000 0.14852  0.50085  0.38448  Biso   1.000  C
  C372     1.0000 0.87073  0.34077  0.54322  Biso   1.000  C
  C373     1.0000 0.02991  0.84335  0.19262  Biso   1.000  C
  C374     1.0000 0.15318  0.99095  0.88837  Biso   1.000  C
  C375     1.0000 0.85769  0.10111  0.04598  Biso   1.000  C
  C376     1.0000 0.51617  0.82487  0.41043  Biso   1.000  C
  C377     1.0000 0.65883  0.96901  0.69615  Biso   1.000  C
  C378     1.0000 0.37210  0.11079  0.51919  Biso   1.000  C
  C379     1.0000 0.51694  0.32873  0.18141  Biso   1.000  C
  C380     1.0000 0.38953  0.49551  0.88209  Biso   1.000  C
  C381     1.0000 0.68208  0.60816  0.03456  Biso   1.000  C
  C382     1.0000 0.02386  0.33740  0.39855  Biso   1.000  C
  C383     1.0000 0.88667  0.47531  0.70107  Biso   1.000  C
  C384     1.0000 0.17607  0.61632  0.55468  Biso   1.000  C
  C385     1.0000 0.19104  0.14930  0.03447  Biso   1.000  C
  C386     1.0000 0.01387  0.18179  0.17535  Biso   1.000  C
  C387     1.0000 0.16650  0.99804  0.22510  Biso   1.000  C
  C388     1.0000 0.71138  0.11836  0.54963  Biso   1.000  C
  C389     1.0000 0.53295  0.15983  0.39956  Biso   1.000  C
  C390     1.0000 0.66330  0.98763  0.36362  Biso   1.000  C
  C391     1.0000 0.34751  0.65063  0.05428  Biso   1.000  C
  C392     1.0000 0.53765  0.66792  0.19099  Biso   1.000  C
  C393     1.0000 0.36821  0.48999  0.22169  Biso   1.000  C
  C394     1.0000 0.84252  0.62255  0.55113  Biso   1.000  C
  C395     1.0000 0.02345  0.67361  0.40857  Biso   1.000  C
  C396     1.0000 0.86757  0.49806  0.36128  Biso   1.000  C
  C397     1.0000 0.85053  0.81557  0.05829  Biso   1.000  C
  C398     1.0000 0.03485  0.79474  0.91010  Biso   1.000  C
  C399     1.0000 0.86540  0.95332  0.87116  Biso   1.000  C
  C400     1.0000 0.34083  0.83310  0.56948  Biso   1.000  C
  C401     1.0000 0.52482  0.80534  0.69101  Biso   1.000  C
  C402     1.0000 0.37295  0.00485  0.72435  Biso   1.000  C
  C403     1.0000 0.69865  0.32147  0.06063  Biso   1.000  C
  C404     1.0000 0.51975  0.30408  0.89958  Biso   1.000  C
  C405     1.0000 0.67481  0.47796  0.86253  Biso   1.000  C
  C406     1.0000 0.20807  0.33190  0.52937  Biso   1.000  C
  C407     1.0000 0.01160  0.28946  0.68094  Biso   1.000  C
  C408     1.0000 0.16894  0.47853  0.72102  Biso   1.000  C
  C409     1.0000 0.16759  0.98990  0.86084  Biso   1.000  C
  C410     1.0000 0.83027  0.11583  0.05366  Biso   1.000  C
  C411     1.0000 0.03189  0.81776  0.21054  Biso   1.000  C
  C412     1.0000 0.67341  0.96572  0.72398  Biso   1.000  C
  C413     1.0000 0.34579  0.12640  0.52053  Biso   1.000  C
  C414     1.0000 0.51731  0.79878  0.39365  Biso   1.000  C
  C415     1.0000 0.37518  0.49112  0.85506  Biso   1.000  C
  C416     1.0000 0.71031  0.62147  0.03889  Biso   1.000  C
  C417     1.0000 0.51480  0.30249  0.19741  Biso   1.000  C
  C418     1.0000 0.87182  0.47234  0.72794  Biso   1.000  C
  C419     1.0000 0.20343  0.63190  0.55599  Biso   1.000  C
  C420     1.0000 0.02944  0.31140  0.38161  Biso   1.000  C
  C421     1.0000 0.86481  0.99678  0.23172  Biso   1.000  C
  C422     1.0000 0.21339  0.85601  0.06204  Biso   1.000  C
  C423     1.0000 0.01432  0.15419  0.88057  Biso   1.000  C
  C424     1.0000 0.36514  0.97778  0.36454  Biso   1.000  C
  C425     1.0000 0.70432  0.82014  0.54360  Biso   1.000  C
  C426     1.0000 0.51764  0.16976  0.69536  Biso   1.000  C
  C427     1.0000 0.66346  0.49862  0.22319  Biso   1.000  C
  C428     1.0000 0.33293  0.34965  0.03198  Biso   1.000  C
  C429     1.0000 0.50817  0.67199  0.89250  Biso   1.000  C
  C430     1.0000 0.16387  0.50010  0.35629  Biso   1.000  C
  C431     1.0000 0.84339  0.32513  0.54216  Biso   1.000  C
  C432     1.0000 0.01932  0.65452  0.71144  Biso   1.000  C
  C433     1.0000 0.01038  0.11969  0.85041  Biso   1.000  C
  C434     1.0000 0.83226  0.98887  0.19816  Biso   1.000  C
  C435     1.0000 0.18262  0.82280  0.06460  Biso   1.000  C
  C436     1.0000 0.51708  0.13703  0.72770  Biso   1.000  C
  C437     1.0000 0.33485  0.97185  0.39800  Biso   1.000  C
  C438     1.0000 0.67001  0.78961  0.54654  Biso   1.000  C
  C439     1.0000 0.51130  0.63835  0.86036  Biso   1.000  C
  C440     1.0000 0.69632  0.48624  0.19218  Biso   1.000  C
  C441     1.0000 0.36409  0.31657  0.03616  Biso   1.000  C
  C442     1.0000 0.02232  0.61957  0.74123  Biso   1.000  C
  C443     1.0000 0.19606  0.49310  0.39020  Biso   1.000  C
  C444     1.0000 0.87626  0.29202  0.54055  Biso   1.000  C
  C445     1.0000 0.02594  0.85157  0.24143  Biso   1.000  C
  C446     1.0000 0.20258  0.99329  0.89337  Biso   1.000  C
  C447     1.0000 0.86045  0.15027  0.04526  Biso   1.000  C
  C448     1.0000 0.51144  0.83090  0.36105  Biso   1.000  C
  C449     1.0000 0.70614  0.95908  0.69194  Biso   1.000  C
  C450     1.0000 0.38030  0.15882  0.52120  Biso   1.000  C
  C451     1.0000 0.51493  0.33404  0.23019  Biso   1.000  C
  C452     1.0000 0.34165  0.49358  0.88764  Biso   1.000  C
  C453     1.0000 0.67895  0.65588  0.03355  Biso   1.000  C
  C454     1.0000 0.02889  0.34551  0.34997  Biso   1.000  C
  C455     1.0000 0.83987  0.47259  0.69576  Biso   1.000  C
  C456     1.0000 0.17350  0.66591  0.55757  Biso   1.000  C
  C457     1.0000 0.02291  0.64494  0.37268  Biso   1.000  C
  C458     1.0000 0.34080  0.01175  0.69071  Biso   1.000  C
  C459     1.0000 0.66293  0.29137  0.05910  Biso   1.000  C
  C460     1.0000 0.52041  0.63656  0.22121  Biso   1.000  C
  C461     1.0000 0.83576  0.94814  0.90339  Biso   1.000  C
  C462     1.0000 0.17676  0.29940  0.53106  Biso   1.000  C
  C463     1.0000 0.53109  0.12828  0.36412  Biso   1.000  C
  C464     1.0000 0.20202  0.47863  0.69044  Biso   1.000  C
  C465     1.0000 0.88852  0.78843  0.06026  Biso   1.000  C
  C466     1.0000 0.01702  0.15006  0.21009  Biso   1.000  C
  C467     1.0000 0.70740  0.47473  0.89481  Biso   1.000  C
  C468     1.0000 0.37515  0.80237  0.56193  Biso   1.000  C
  C469     1.0000 0.00750  0.32332  0.71355  Biso   1.000  C
  C470     1.0000 0.69681  0.99278  0.39635  Biso   1.000  C
  C471     1.0000 0.38100  0.68137  0.05950  Biso   1.000  C
  C472     1.0000 0.52287  0.33939  0.86747  Biso   1.000  C
  C473     1.0000 0.19932  0.00174  0.19221  Biso   1.000  C
  C474     1.0000 0.87458  0.65630  0.55203  Biso   1.000  C
  C475     1.0000 0.52128  0.83812  0.72392  Biso   1.000  C
  C476     1.0000 0.83515  0.49234  0.39329  Biso   1.000  C
  C477     1.0000 0.15569  0.18104  0.03120  Biso   1.000  C
  C478     1.0000 0.02460  0.82354  0.87475  Biso   1.000  C
  C479     1.0000 0.33601  0.49509  0.18711  Biso   1.000  C
  C480     1.0000 0.67830  0.15100  0.55755  Biso   1.000  C
  C481     1.0000 0.39165  0.77591  0.55839  Biso   1.000  C
  C482     1.0000 0.51936  0.35556  0.84051  Biso   1.000  C
  C483     1.0000 0.80796  0.48666  0.40973  Biso   1.000  C
  C484     1.0000 0.90760  0.76362  0.06105  Biso   1.000  C
  C485     1.0000 0.99886  0.33916  0.73980  Biso   1.000  C
  C486     1.0000 0.31027  0.50081  0.16889  Biso   1.000  C
  C487     1.0000 0.16129  0.27192  0.53233  Biso   1.000  C
  C488     1.0000 0.01987  0.83621  0.84549  Biso   1.000  C
  C489     1.0000 0.72592  0.99216  0.41012  Biso   1.000  C
  C490     1.0000 0.64436  0.26460  0.06038  Biso   1.000  C
  C491     1.0000 0.51813  0.85470  0.75053  Biso   1.000  C
  C492     1.0000 0.22621  0.00248  0.17748  Biso   1.000  C
  C493     1.0000 0.66212  0.17756  0.56588  Biso   1.000  C
  C494     1.0000 0.50680  0.62230  0.24577  Biso   1.000  C
  C495     1.0000 0.22998  0.48132  0.67575  Biso   1.000  C
  C496     1.0000 0.13744  0.20633  0.02854  Biso   1.000  C
  C497     1.0000 0.02908  0.63186  0.34466  Biso   1.000  C
  C498     1.0000 0.73335  0.46709  0.91076  Biso   1.000  C
  C499     1.0000 0.89045  0.68488  0.55392  Biso   1.000  C
  C500     1.0000 0.01860  0.13394  0.23881  Biso   1.000  C
  C501     1.0000 0.31443  0.01840  0.67381  Biso   1.000  C
  C502     1.0000 0.40008  0.70626  0.06530  Biso   1.000  C
  C503     1.0000 0.52542  0.11597  0.33468  Biso   1.000  C
  C504     1.0000 0.81052  0.94355  0.91977  Biso   1.000  C
  C505     1.0000 0.65878  0.48067  0.83609  Biso   1.000  C
  C506     1.0000 0.81461  0.60724  0.55181  Biso   1.000  C
  C507     1.0000 0.52131  0.77793  0.67433  Biso   1.000  C
  C508     1.0000 0.15446  0.47584  0.74746  Biso   1.000  C
  C509     1.0000 0.31982  0.63751  0.04771  Biso   1.000  C
  C510     1.0000 0.03720  0.76824  0.92939  Biso   1.000  C
  C511     1.0000 0.87844  0.95532  0.84280  Biso   1.000  C
  C512     1.0000 0.73890  0.10285  0.54266  Biso   1.000  C
  C513     1.0000 0.01179  0.26313  0.66357  Biso   1.000  C
  C514     1.0000 0.38926  0.00010  0.75073  Biso   1.000  C
  C515     1.0000 0.21845  0.13475  0.03220  Biso   1.000  C
  C516     1.0000 0.52345  0.27767  0.91419  Biso   1.000  C
  C517     1.0000 0.38519  0.48832  0.24841  Biso   1.000  C
  C518     1.0000 0.23600  0.34758  0.52521  Biso   1.000  C
  C519     1.0000 0.53120  0.18642  0.41725  Biso   1.000  C
  C520     1.0000 0.88165  0.50309  0.33320  Biso   1.000  C
  C521     1.0000 0.72722  0.33609  0.06172  Biso   1.000  C
  C522     1.0000 0.01385  0.20830  0.15715  Biso   1.000  C
  C523     1.0000 0.15139  0.99546  0.25251  Biso   1.000  C
  C524     1.0000 0.31427  0.84793  0.57181  Biso   1.000  C
  C525     1.0000 0.02394  0.70082  0.42595  Biso   1.000  C
  C526     1.0000 0.64767  0.98319  0.33717  Biso   1.000  C
  C527     1.0000 0.82092  0.82761  0.05490  Biso   1.000  C
  C528     1.0000 0.54688  0.69463  0.17783  Biso   1.000  C
  C529     1.0000 0.80681  0.09687  0.06559  Biso   1.000  C
  C530     1.0000 0.03616  0.78985  0.19668  Biso   1.000  C
  C531     1.0000 0.15031  0.98934  0.83423  Biso   1.000  C
  C532     1.0000 0.31809  0.10911  0.52254  Biso   1.000  C
  C533     1.0000 0.52039  0.77166  0.41069  Biso   1.000  C
  C534     1.0000 0.65575  0.96651  0.75034  Biso   1.000  C
  C535     1.0000 0.73615  0.60332  0.04426  Biso   1.000  C
  C536     1.0000 0.51499  0.27581  0.18066  Biso   1.000  C
  C537     1.0000 0.39173  0.48766  0.82760  Biso   1.000  C
  C538     1.0000 0.22889  0.61437  0.55740  Biso   1.000  C
  C539     1.0000 0.03150  0.28377  0.39773  Biso   1.000  C
  C540     1.0000 0.89073  0.47148  0.75465  Biso   1.000  C
  C541     1.0000 0.24019  0.87255  0.06043  Biso   1.000  C
  C542     1.0000 0.02011  0.18185  0.89457  Biso   1.000  C
  C543     1.0000 0.88303  0.00620  0.25559  Biso   1.000  C
  C544     1.0000 0.73305  0.83493  0.54220  Biso   1.000  C
  C545     1.0000 0.51597  0.19671  0.67638  Biso   1.000  C
  C546     1.0000 0.38049  0.98325  0.33753  Biso   1.000  C
  C547     1.0000 0.30707  0.36871  0.03004  Biso   1.000  C
  C548     1.0000 0.50548  0.69905  0.90906  Biso   1.000  C
  C549     1.0000 0.64719  0.50744  0.24728  Biso   1.000  C
  C550     1.0000 0.81716  0.34153  0.54214  Biso   1.000  C
  C551     1.0000 0.01611  0.68145  0.69565  Biso   1.000  C
  C552     1.0000 0.14737  0.50290  0.32923  Biso   1.000  C
  C553     1.0000 0.00810  0.10097  0.82517  Biso   1.000  C
  C554     1.0000 0.80541  0.98576  0.18181  Biso   1.000  C
  C555     1.0000 0.16998  0.79373  0.06205  Biso   1.000  C
  C556     1.0000 0.51825  0.12203  0.75525  Biso   1.000  C
  C557     1.0000 0.30828  0.96694  0.41412  Biso   1.000  C
  C558     1.0000 0.65195  0.76343  0.54942  Biso   1.000  C
  C559     1.0000 0.51202  0.62260  0.83280  Biso   1.000  C
  C560     1.0000 0.72460  0.47689  0.17913  Biso   1.000  C
  C561     1.0000 0.37874  0.28762  0.03565  Biso   1.000  C
  C562     1.0000 0.02003  0.60160  0.76751  Biso   1.000  C
  C563     1.0000 0.22247  0.48756  0.40498  Biso   1.000  C
  C564     1.0000 0.89241  0.26461  0.54179  Biso   1.000  C
  C565     1.0000 0.01938  0.86976  0.26723  Biso   1.000  C
  C566     1.0000 0.23044  0.99132  0.90994  Biso   1.000  C
  C567     1.0000 0.87404  0.17798  0.04153  Biso   1.000  C
  C568     1.0000 0.50771  0.84661  0.33314  Biso   1.000  C
  C569     1.0000 0.73248  0.95554  0.67685  Biso   1.000  C
  C570     1.0000 0.39570  0.18630  0.52219  Biso   1.000  C
  C571     1.0000 0.51636  0.35143  0.25597  Biso   1.000  C
  C572     1.0000 0.31523  0.49846  0.90367  Biso   1.000  C
  C573     1.0000 0.66503  0.68368  0.03040  Biso   1.000  C
  C574     1.0000 0.03162  0.36390  0.32366  Biso   1.000  C
  C575     1.0000 0.81345  0.47236  0.67854  Biso   1.000  C
  C576     1.0000 0.15931  0.69427  0.55959  Biso   1.000  C
  C577     1.0000 0.31251  0.50029  0.13802  Biso   1.000  C
  C578     1.0000 0.12916  0.27355  0.53434  Biso   1.000  C
  C579     1.0000 0.52834  0.08338  0.33294  Biso   1.000  C
  C580     1.0000 0.80914  0.48455  0.44149  Biso   1.000  C
  C581     1.0000 0.61314  0.26681  0.05759  Biso   1.000  C
  C582     1.0000 0.02100  0.10243  0.23835  Biso   1.000  C
  C583     1.0000 0.22635  0.99984  0.14590  Biso   1.000  C
  C584     1.0000 0.42307  0.77741  0.55295  Biso   1.000  C
  C585     1.0000 0.02870  0.60073  0.34057  Biso   1.000  C
  C586     1.0000 0.72657  0.98943  0.44128  Biso   1.000  C
  C587     1.0000 0.93849  0.76825  0.05940  Biso   1.000  C
  C588     1.0000 0.50186  0.59152  0.24299  Biso   1.000  C
  C589     1.0000 0.73360  0.46613  0.94143  Biso   1.000  C
  C590     1.0000 0.92201  0.68531  0.55215  Biso   1.000  C
  C591     1.0000 0.51648  0.88647  0.74985  Biso   1.000  C
  C592     1.0000 0.23097  0.48197  0.64353  Biso   1.000  C
  C593     1.0000 0.43062  0.70406  0.06138  Biso   1.000  C
  C594     1.0000 0.01778  0.86752  0.84414  Biso   1.000  C
  C595     1.0000 0.81133  0.94724  0.95115  Biso   1.000  C
  C596     1.0000 0.63101  0.17576  0.56544  Biso   1.000  C
  C597     1.0000 0.00090  0.37040  0.74128  Biso   1.000  C
  C598     1.0000 0.31450  0.01806  0.64278  Biso   1.000  C
  C599     1.0000 0.10612  0.20147  0.02610  Biso   1.000  C
  C600     1.0000 0.52068  0.38730  0.84024  Biso   1.000  C
  C601     1.0000 0.23081  0.98766  0.94128  Biso   1.000  C
  C602     1.0000 0.90387  0.18157  0.03336  Biso   1.000  C
  C603     1.0000 0.01525  0.90156  0.26364  Biso   1.000  C
  C604     1.0000 0.73435  0.95684  0.64497  Biso   1.000  C
  C605     1.0000 0.42693  0.18469  0.52860  Biso   1.000  C
  C606     1.0000 0.51024  0.87752  0.33246  Biso   1.000  C
  C607     1.0000 0.31652  0.50096  0.93527  Biso   1.000  C
  C608     1.0000 0.63322  0.68684  0.02956  Biso   1.000  C
  C609     1.0000 0.51891  0.38297  0.25252  Biso   1.000  C
  C610     1.0000 0.81352  0.47233  0.64697  Biso   1.000  C
  C611     1.0000 0.12825  0.69569  0.56220  Biso   1.000  C
  C612     1.0000 0.02722  0.39528  0.32559  Biso   1.000  C
  C613     1.0000 0.80427  0.97942  0.15114  Biso   1.000  C
  C614     1.0000 0.13768  0.79255  0.05893  Biso   1.000  C
  C615     1.0000 0.00860  0.06914  0.82836  Biso   1.000  C
  C616     1.0000 0.30949  0.96220  0.44700  Biso   1.000  C
  C617     1.0000 0.62109  0.76735  0.54270  Biso   1.000  C
  C618     1.0000 0.51931  0.09041  0.75508  Biso   1.000  C
  C619     1.0000 0.72315  0.46586  0.14889  Biso   1.000  C
  C620     1.0000 0.41037  0.28432  0.03795  Biso   1.000  C
  C621     1.0000 0.51716  0.59094  0.83457  Biso   1.000  C
  C622     1.0000 0.22371  0.48828  0.43578  Biso   1.000  C
  C623     1.0000 0.92406  0.26517  0.54213  Biso   1.000  C
  C624     1.0000 0.02462  0.57032  0.76379  Biso   1.000  C
  C625     1.0000 0.02040  0.18315  0.92598  Biso   1.000  C
  C626     1.0000 0.91412  0.00643  0.25334  Biso   1.000  C
  C627     1.0000 0.23930  0.90442  0.05573  Biso   1.000  C
  C628     1.0000 0.51275  0.19551  0.64492  Biso   1.000  C
  C629     1.0000 0.41143  0.98475  0.33828  Biso   1.000  C
  C630     1.0000 0.73273  0.86568  0.53762  Biso   1.000  C
  C631     1.0000 0.51218  0.69976  0.94048  Biso   1.000  C
  C632     1.0000 0.61515  0.50412  0.24833  Biso   1.000  C
  C633     1.0000 0.31039  0.39963  0.02909  Biso   1.000  C
  C634     1.0000 0.01869  0.68279  0.66352  Biso   1.000  C
  C635     1.0000 0.11665  0.50442  0.33098  Biso   1.000  C
  C636     1.0000 0.81781  0.37257  0.54106  Biso   1.000  C
  C637     1.0000 0.03545  0.78854  0.16479  Biso   1.000  C
  C638     1.0000 0.11780  0.98467  0.83505  Biso   1.000  C
  C639     1.0000 0.80891  0.06608  0.06511  Biso   1.000  C
  C640     1.0000 0.52114  0.77227  0.44191  Biso   1.000  C
  C641     1.0000 0.62521  0.97137  0.74750  Biso   1.000  C
  C642     1.0000 0.31915  0.07864  0.52481  Biso   1.000  C
  C643     1.0000 0.51230  0.27698  0.14897  Biso   1.000  C
  C644     1.0000 0.42310  0.48874  0.83034  Biso   1.000  C
  C645     1.0000 0.73341  0.57053  0.04573  Biso   1.000  C
  C646     1.0000 0.02669  0.28163  0.42947  Biso   1.000  C
  C647     1.0000 0.92297  0.47107  0.75292  Biso   1.000  C
  C648     1.0000 0.22704  0.58275  0.55417  Biso   1.000  C
  C649     1.0000 0.02140  0.69613  0.45831  Biso   1.000  C
  C650     1.0000 0.42224  0.99507  0.75032  Biso   1.000  C
  C651     1.0000 0.73026  0.36689  0.05610  Biso   1.000  C
  C652     1.0000 0.54970  0.69464  0.14646  Biso   1.000  C
  C653     1.0000 0.90923  0.96089  0.83942  Biso   1.000  C
  C654     1.0000 0.23679  0.37966  0.52618  Biso   1.000  C
  C655     1.0000 0.53394  0.18339  0.44743  Biso   1.000  C
  C656     1.0000 0.12369  0.47216  0.74827  Biso   1.000  C
  C657     1.0000 0.81593  0.85852  0.05569  Biso   1.000  C
  C658     1.0000 0.00769  0.20557  0.12599  Biso   1.000  C
  C659     1.0000 0.62663  0.48598  0.83619  Biso   1.000  C
  C660     1.0000 0.31346  0.88054  0.57094  Biso   1.000  C
  C661     1.0000 0.01595  0.26609  0.63236  Biso   1.000  C
  C662     1.0000 0.61743  0.97505  0.33641  Biso   1.000  C
  C663     1.0000 0.31840  0.60634  0.04247  Biso   1.000  C
  C664     1.0000 0.52240  0.27606  0.94514  Biso   1.000  C
  C665     1.0000 0.11920  0.99695  0.25250  Biso   1.000  C
  C666     1.0000 0.81436  0.57572  0.54966  Biso   1.000  C
  C667     1.0000 0.52226  0.78062  0.64262  Biso   1.000  C
  C668     1.0000 0.91268  0.50423  0.33353  Biso   1.000  C
  C669     1.0000 0.22040  0.10385  0.03654  Biso   1.000  C
  C670     1.0000 0.03862  0.77227  0.96133  Biso   1.000  C
  C671     1.0000 0.41590  0.48800  0.25000  Biso   1.000  C
  C672     1.0000 0.73760  0.07097  0.54168  Biso   1.000  C
  C673     1.0000 0.21397  0.99215  0.84345  Biso   1.000  C
  C674     1.0000 0.81400  0.16062  0.05639  Biso   1.000  C
  C675     1.0000 0.03074  0.80444  0.25807  Biso   1.000  C
  C676     1.0000 0.71810  0.95882  0.74038  Biso   1.000  C
  C677     1.0000 0.33331  0.17447  0.52118  Biso   1.000  C
  C678     1.0000 0.51694  0.78560  0.34623  Biso   1.000  C
  C679     1.0000 0.32847  0.48999  0.83892  Biso   1.000  C
  C680     1.0000 0.72576  0.66844  0.03888  Biso   1.000  C
  C681     1.0000 0.51622  0.28767  0.24439  Biso   1.000  C
  C682     1.0000 0.82695  0.46674  0.74266  Biso   1.000  C
  C683     1.0000 0.22037  0.67874  0.56001  Biso   1.000  C
  C684     1.0000 0.02999  0.29937  0.33331  Biso   1.000  C
  C685     1.0000 0.81840  0.99943  0.24477  Biso   1.000  C
  C686     1.0000 0.22889  0.81049  0.06319  Biso   1.000  C
  C687     1.0000 0.00833  0.16593  0.83321  Biso   1.000  C
  C688     1.0000 0.31955  0.97518  0.34968  Biso   1.000  C
  C689     1.0000 0.71510  0.77156  0.54932  Biso   1.000  C
  C690     1.0000 0.51784  0.18387  0.74192  Biso   1.000  C
  C691     1.0000 0.71029  0.49395  0.23802  Biso   1.000  C
  C692     1.0000 0.31689  0.30459  0.03093  Biso   1.000  C
  C693     1.0000 0.50242  0.68521  0.84498  Biso   1.000  C
  C694     1.0000 0.20944  0.49419  0.34241  Biso   1.000  C
  C695     1.0000 0.83016  0.27826  0.54338  Biso   1.000  C
  C696     1.0000 0.01587  0.66325  0.76004  Biso   1.000  C
  C697     1.0000 0.70951  0.99537  0.35156  Biso   1.000  C
  C698     1.0000 0.33415  0.69765  0.06218  Biso   1.000  C
  C699     1.0000 0.00557  0.27650  0.72865  Biso   1.000  C
  C700     1.0000 0.21294  0.99531  0.23965  Biso   1.000  C
  C701     1.0000 0.82641  0.66849  0.54957  Biso   1.000  C
  C702     1.0000 0.52133  0.29071  0.85508  Biso   1.000  C
  C703     1.0000 0.82150  0.49375  0.34548  Biso   1.000  C
  C704     1.0000 0.20209  0.19719  0.03288  Biso   1.000  C
  C705     1.0000 0.51648  0.79109  0.73773  Biso   1.000  C
  C706     1.0000 0.31986  0.49333  0.23291  Biso   1.000  C
  C707     1.0000 0.72192  0.16538  0.55200  Biso   1.000  C
  C708     1.0000 0.02764  0.77516  0.86593  Biso   1.000  C
  C709     1.0000 0.32505  0.00721  0.73572  Biso   1.000  C
  C710     1.0000 0.70634  0.27099  0.06420  Biso   1.000  C
  C711     1.0000 0.02520  0.69224  0.36330  Biso   1.000  C
  C712     1.0000 0.81812  0.94815  0.85785  Biso   1.000  C
  C713     1.0000 0.22358  0.28509  0.52996  Biso   1.000  C
  C714     1.0000 0.52697  0.68151  0.23633  Biso   1.000  C
  C715     1.0000 0.21529  0.48532  0.73565  Biso   1.000  C
  C716     1.0000 0.84276  0.76965  0.05286  Biso   1.000  C
  C717     1.0000 0.52810  0.17530  0.35347  Biso   1.000  C
  C718     1.0000 0.72137  0.47199  0.84708  Biso   1.000  C
  C719     1.0000 0.32959  0.78543  0.56601  Biso   1.000  C
  C720     1.0000 0.01870  0.19753  0.22091  Biso   1.000  C
  C721     1.0000 0.53386  0.79187  0.31962  Biso   1.000  C
  C722     1.0000 0.33278  0.50393  0.81094  Biso   1.000  C
  C723     1.0000 0.80309  0.28220  0.55958  Biso   1.000  C
  C724     1.0000 0.01461  0.77904  0.25267  Biso   1.000  C
  C725     1.0000 0.80045  0.48324  0.74112  Biso   1.000  C
  C726     1.0000 0.29240  0.30762  0.01010  Biso   1.000  C
  C727     1.0000 0.01038  0.27423  0.33630  Biso   1.000  C
  C728     1.0000 0.23778  0.01292  0.84678  Biso   1.000  C
  C729     1.0000 0.74180  0.77609  0.56506  Biso   1.000  C
  C730     1.0000 0.50276  0.28982  0.27394  Biso   1.000  C
  C731     1.0000 0.74362  0.93951  0.73924  Biso   1.000  C
  C732     1.0000 0.25165  0.80946  0.04035  Biso   1.000  C
  C733     1.0000 0.49966  0.18096  0.76709  Biso   1.000  C
  C734     1.0000 0.70450  0.48416  0.26780  Biso   1.000  C
  C735     1.0000 0.21859  0.70693  0.54484  Biso   1.000  C
  C736     1.0000 0.99522  0.19454  0.83985  Biso   1.000  C
  C737     1.0000 0.23423  0.47443  0.34462  Biso   1.000  C
  C738     1.0000 0.74954  0.66352  0.05965  Biso   1.000  C
  C739     1.0000 0.03783  0.66209  0.78371  Biso   1.000  C
  C740     1.0000 0.82571  0.99106  0.27629  Biso   1.000  C
  C741     1.0000 0.30731  0.17442  0.50186  Biso   1.000  C
  C742     1.0000 0.48646  0.67958  0.81878  Biso   1.000  C
  C743     1.0000 0.32292  0.96107  0.32279  Biso   1.000  C
  C744     1.0000 0.81971  0.18681  0.07224  Biso   1.000  C
  C745     1.0000 0.03882  0.71949  0.36874  Biso   1.000  C
  C746     1.0000 0.29569  0.99518  0.72832  Biso   1.000  C
  C747     1.0000 0.73214  0.27086  0.08132  Biso   1.000  C
  C748     1.0000 0.55266  0.69708  0.24502  Biso   1.000  C
  C749     1.0000 0.82345  0.93259  0.83054  Biso   1.000  C
  C750     1.0000 0.25235  0.28758  0.54480  Biso   1.000  C
  C751     1.0000 0.54646  0.17355  0.32765  Biso   1.000  C
  C752     1.0000 0.24206  0.46957  0.73202  Biso   1.000  C
  C753     1.0000 0.81964  0.77238  0.03122  Biso   1.000  C
  C754     1.0000 0.03905  0.19510  0.24705  Biso   1.000  C
  C755     1.0000 0.71494  0.45288  0.82142  Biso   1.000  C
  C756     1.0000 0.31039  0.78353  0.59167  Biso   1.000  C
  C757     1.0000 0.99279  0.24813  0.72181  Biso   1.000  C
  C758     1.0000 0.70967  0.02016  0.33082  Biso   1.000  C
  C759     1.0000 0.30521  0.69344  0.07270  Biso   1.000  C
  C760     1.0000 0.53951  0.29420  0.82981  Biso   1.000  C
  C761     1.0000 0.23832  0.01322  0.24064  Biso   1.000  C
  C762     1.0000 0.82698  0.69642  0.53681  Biso   1.000  C
  C763     1.0000 0.52835  0.76187  0.73547  Biso   1.000  C
  C764     1.0000 0.79326  0.50993  0.34637  Biso   1.000  C
  C765     1.0000 0.22849  0.19567  0.05022  Biso   1.000  C
  C766     1.0000 0.00242  0.77395  0.84514  Biso   1.000  C
  C767     1.0000 0.32555  0.50821  0.26074  Biso   1.000  C
  C768     1.0000 0.71551  0.19351  0.53751  Biso   1.000  C
  C769     1.0000 0.51660  0.71185  0.84677  Biso   1.000  C
  C770     1.0000 0.83457  0.44680  0.76604  Biso   1.000  C
  C771     1.0000 0.70948  0.74367  0.53316  Biso   1.000  C
  C772     1.0000 0.99365  0.68547  0.76180  Biso   1.000  C
  C773     1.0000 0.30168  0.47202  0.84263  Biso   1.000  C
  C774     1.0000 0.22930  0.78731  0.08652  Biso   1.000  C
  C775     1.0000 0.01797  0.15994  0.80351  Biso   1.000  C
  C776     1.0000 0.71513  0.97486  0.76729  Biso   1.000  C
  C777     1.0000 0.83206  0.25112  0.52773  Biso   1.000  C
  C778     1.0000 0.53803  0.20793  0.74101  Biso   1.000  C
  C779     1.0000 0.21213  0.97658  0.81540  Biso   1.000  C
  C780     1.0000 0.31626  0.27881  0.04900  Biso   1.000  C
  C781     1.0000 0.53004  0.25998  0.23881  Biso   1.000  C
  C782     1.0000 0.20783  0.51302  0.31620  Biso   1.000  C
  C783     1.0000 0.33593  0.19929  0.53917  Biso   1.000  C
  C784     1.0000 0.04749  0.30251  0.30726  Biso   1.000  C
  C785     1.0000 0.73985  0.50188  0.23160  Biso   1.000  C
  C786     1.0000 0.78417  0.15407  0.04572  Biso   1.000  C
  C787     1.0000 0.04355  0.81028  0.28706  Biso   1.000  C
  C788     1.0000 0.29233  0.99140  0.35348  Biso   1.000  C
  C789     1.0000 0.24466  0.67461  0.58064  Biso   1.000  C
  C790     1.0000 0.50505  0.75625  0.34905  Biso   1.000  C
  C791     1.0000 0.78884  0.01097  0.23764  Biso   1.000  C
  C792     1.0000 0.72828  0.69453  0.02166  Biso   1.000  C
  C793     1.0000 0.50682  0.19866  0.35573  Biso   1.000  C
  C794     1.0000 0.29132  0.48218  0.22787  Biso   1.000  C
  C795     1.0000 0.21964  0.26021  0.51213  Biso   1.000  C
  C796     1.0000 0.00116  0.22379  0.21831  Biso   1.000  C
  C797     1.0000 0.82591  0.47574  0.32045  Biso   1.000  C
  C798     1.0000 0.70205  0.24481  0.04817  Biso   1.000  C
  C799     1.0000 0.01155  0.69002  0.33479  Biso   1.000  C
  C800     1.0000 0.21149  0.97127  0.26060  Biso   1.000  C
  C801     1.0000 0.32647  0.76424  0.54238  Biso   1.000  C
  C802     1.0000 0.49983  0.68691  0.25175  Biso   1.000  C
  C803     1.0000 0.73215  0.97369  0.34712  Biso   1.000  C
  C804     1.0000 0.84556  0.74229  0.06739  Biso   1.000  C
  C805     1.0000 0.49597  0.79855  0.76392  Biso   1.000  C
  C806     1.0000 0.75198  0.48159  0.85074  Biso   1.000  C
  C807     1.0000 0.80315  0.66297  0.57022  Biso   1.000  C
  C808     1.0000 0.04842  0.75209  0.86624  Biso   1.000  C
  C809     1.0000 0.21069  0.50095  0.76278  Biso   1.000  C
  C810     1.0000 0.34077  0.72753  0.05110  Biso   1.000  C
  C811     1.0000 0.01816  0.28122  0.75698  Biso   1.000  C
  C812     1.0000 0.78964  0.96177  0.86248  Biso   1.000  C
  C813     1.0000 0.75113  0.16441  0.56306  Biso   1.000  C
  C814     1.0000 0.50321  0.26430  0.85866  Biso   1.000  C
  C815     1.0000 0.32869  0.01872  0.76576  Biso   1.000  C
  C816     1.0000 0.20101  0.22170  0.01150  Biso   1.000  C
  C817     1.0000 0.99297  0.21542  0.81868  Biso   1.000  C
  C818     1.0000 0.80348  0.99364  0.29700  Biso   1.000  C
  C819     1.0000 0.27012  0.78520  0.04002  Biso   1.000  C
  C820     1.0000 0.50191  0.20197  0.78774  Biso   1.000  C
  C821     1.0000 0.30192  0.96556  0.30070  Biso   1.000  C
  C822     1.0000 0.76211  0.75386  0.56552  Biso   1.000  C
  C823     1.0000 0.48260  0.70123  0.79856  Biso   1.000  C
  C824     1.0000 0.72793  0.48151  0.28720  Biso   1.000  C
  C825     1.0000 0.27049  0.28720  0.00956  Biso   1.000  C
  C826     1.0000 0.03765  0.68118  0.80622  Biso   1.000  C
  C827     1.0000 0.25812  0.47571  0.32409  Biso   1.000  C
  C828     1.0000 0.78187  0.25964  0.56247  Biso   1.000  C
  C829     1.0000 0.01692  0.75671  0.27209  Biso   1.000  C
  C830     1.0000 0.25746  0.01757  0.82597  Biso   1.000  C
  C831     1.0000 0.79756  0.20694  0.07449  Biso   1.000  C
  C832     1.0000 0.53423  0.77143  0.29783  Biso   1.000  C
  C833     1.0000 0.76042  0.93407  0.76362  Biso   1.000  C
  C834     1.0000 0.28747  0.19667  0.50278  Biso   1.000  C
  C835     1.0000 0.50443  0.26701  0.29397  Biso   1.000  C
  C836     1.0000 0.30907  0.50542  0.79144  Biso   1.000  C
  C837     1.0000 0.77404  0.67983  0.05885  Biso   1.000  C
  C838     1.0000 0.00797  0.25762  0.31165  Biso   1.000  C
  C839     1.0000 0.78011  0.47537  0.76148  Biso   1.000  C
  C840     1.0000 0.23972  0.72761  0.55003  Biso   1.000  C
  C841     1.0000 0.23289  0.98263  0.79478  Biso   1.000  C
  C842     1.0000 0.76308  0.17614  0.04816  Biso   1.000  C
  C843     1.0000 0.04005  0.78901  0.30710  Biso   1.000  C
  C844     1.0000 0.73432  0.97153  0.79080  Biso   1.000  C
  C845     1.0000 0.31336  0.21837  0.54055  Biso   1.000  C
  C846     1.0000 0.50901  0.73648  0.32648  Biso   1.000  C
  C847     1.0000 0.28056  0.47340  0.82090  Biso   1.000  C
  C848     1.0000 0.75163  0.71249  0.02555  Biso   1.000  C
  C849     1.0000 0.53361  0.23774  0.26011  Biso   1.000  C
  C850     1.0000 0.81383  0.44486  0.78789  Biso   1.000  C
  C851     1.0000 0.26647  0.69623  0.58357  Biso   1.000  C
  C852     1.0000 0.04512  0.28309  0.28456  Biso   1.000  C
  C853     1.0000 0.76869  0.01387  0.25936  Biso   1.000  C
  C854     1.0000 0.25084  0.76605  0.08485  Biso   1.000  C
  C855     1.0000 0.01519  0.18321  0.78389  Biso   1.000  C
  C856     1.0000 0.27171  0.99568  0.33258  Biso   1.000  C
  C857     1.0000 0.73095  0.72293  0.53407  Biso   1.000  C
  C858     1.0000 0.53912  0.22769  0.76483  Biso   1.000  C
  C859     1.0000 0.76161  0.49852  0.25163  Biso   1.000  C
  C860     1.0000 0.29430  0.25880  0.04624  Biso   1.000  C
  C861     1.0000 0.51136  0.73378  0.82676  Biso   1.000  C
  C862     1.0000 0.23197  0.51228  0.29694  Biso   1.000  C
  C863     1.0000 0.81020  0.23040  0.52942  Biso   1.000  C
  C864     1.0000 0.99304  0.70479  0.78559  Biso   1.000  C
  C865     1.0000 0.73774  0.44649  0.80165  Biso   1.000  C
  C866     1.0000 0.80482  0.71546  0.53912  Biso   1.000  C
  C867     1.0000 0.51936  0.74193  0.75516  Biso   1.000  C
  C868     1.0000 0.26576  0.47174  0.75081  Biso   1.000  C
  C869     1.0000 0.28365  0.71366  0.07207  Biso   1.000  C
  C870     1.0000 0.99867  0.75035  0.82772  Biso   1.000  C
  C871     1.0000 0.80380  0.93276  0.80863  Biso   1.000  C
  C872     1.0000 0.73652  0.21693  0.53744  Biso   1.000  C
  C873     1.0000 0.99347  0.22561  0.74229  Biso   1.000  C
  C874     1.0000 0.27600  0.99046  0.75061  Biso   1.000  C
  C875     1.0000 0.25073  0.21536  0.04792  Biso   1.000  C
  C876     1.0000 0.53837  0.26989  0.81056  Biso   1.000  C
  C877     1.0000 0.30448  0.50887  0.28196  Biso   1.000  C
  C878     1.0000 0.27341  0.26623  0.54091  Biso   1.000  C
  C879     1.0000 0.54579  0.19606  0.30873  Biso   1.000  C
  C880     1.0000 0.77263  0.50678  0.32508  Biso   1.000  C
  C881     1.0000 0.75343  0.24983  0.08156  Biso   1.000  C
  C882     1.0000 0.03821  0.21632  0.26687  Biso   1.000  C
  C883     1.0000 0.25838  0.00989  0.26328  Biso   1.000  C
  C884     1.0000 0.28814  0.76352  0.59192  Biso   1.000  C
  C885     1.0000 0.03745  0.74158  0.34771  Biso   1.000  C
  C886     1.0000 0.73135  0.02243  0.31121  Biso   1.000  C
  C887     1.0000 0.79865  0.75022  0.02811  Biso   1.000  C
  C888     1.0000 0.55183  0.71698  0.26696  Biso   1.000  C
  C889     1.0000 0.75369  0.97635  0.32606  Biso   1.000  C
  C890     1.0000 0.31954  0.74794  0.05129  Biso   1.000  C
  C891     1.0000 0.01942  0.25823  0.77668  Biso   1.000  C
  C892     1.0000 0.23291  0.96584  0.28188  Biso   1.000  C
  C893     1.0000 0.77900  0.68242  0.57034  Biso   1.000  C
  C894     1.0000 0.50463  0.24175  0.83838  Biso   1.000  C
  C895     1.0000 0.80418  0.47252  0.29939  Biso   1.000  C
  C896     1.0000 0.22493  0.24177  0.01113  Biso   1.000  C
  C897     1.0000 0.48774  0.77576  0.78295  Biso   1.000  C
  C898     1.0000 0.27125  0.48346  0.25029  Biso   1.000  C
  C899     1.0000 0.77151  0.18673  0.56186  Biso   1.000  C
  C900     1.0000 0.04359  0.72811  0.84839  Biso   1.000  C
  C901     1.0000 0.30579  0.01625  0.78511  Biso   1.000  C
  C902     1.0000 0.72277  0.22241  0.04878  Biso   1.000  C
  C903     1.0000 0.01455  0.71148  0.31409  Biso   1.000  C
  C904     1.0000 0.77052  0.96149  0.83919  Biso   1.000  C
  C905     1.0000 0.24039  0.23816  0.51167  Biso   1.000  C
  C906     1.0000 0.49934  0.70870  0.27249  Biso   1.000  C
  C907     1.0000 0.23398  0.50218  0.78226  Biso   1.000  C
  C908     1.0000 0.82426  0.72198  0.06410  Biso   1.000  C
  C909     1.0000 0.50569  0.22022  0.33445  Biso   1.000  C
  C910     1.0000 0.77212  0.47514  0.83083  Biso   1.000  C
  C911     1.0000 0.30310  0.74557  0.54353  Biso   1.000  C
  C912     1.0000 0.00340  0.24439  0.24044  Biso   1.000  C
  C913     1.0000 0.78633  0.45659  0.78418  Biso   1.000  C
  C914     1.0000 0.75610  0.72835  0.55009  Biso   1.000  C
  C915     1.0000 0.49574  0.72817  0.80208  Biso   1.000  C
  C916     1.0000 0.28429  0.49142  0.79743  Biso   1.000  C
  C917     1.0000 0.26966  0.76442  0.06245  Biso   1.000  C
  C918     1.0000 0.01684  0.70339  0.80532  Biso   1.000  C
  C919     1.0000 0.75753  0.95159  0.78888  Biso   1.000  C
  C920     1.0000 0.78604  0.23451  0.54661  Biso   1.000  C
  C921     1.0000 0.00429  0.21023  0.79113  Biso   1.000  C
  C922     1.0000 0.25561  0.00206  0.79962  Biso   1.000  C
  C923     1.0000 0.27184  0.26258  0.02809  Biso   1.000  C
  C924     1.0000 0.52002  0.22544  0.78800  Biso   1.000  C
  C925     1.0000 0.25540  0.49402  0.29987  Biso   1.000  C
  C926     1.0000 0.28934  0.21728  0.52275  Biso   1.000  C
  C927     1.0000 0.52088  0.24143  0.28741  Biso   1.000  C
  C928     1.0000 0.75598  0.48878  0.27902  Biso   1.000  C
  C929     1.0000 0.77079  0.20162  0.06175  Biso   1.000  C
  C930     1.0000 0.02249  0.26231  0.28636  Biso   1.000  C
  C931     1.0000 0.27809  0.98261  0.30624  Biso   1.000  C
  C932     1.0000 0.26315  0.72179  0.56714  Biso   1.000  C
  C933     1.0000 0.02741  0.76278  0.29957  Biso   1.000  C
  C934     1.0000 0.77617  0.00421  0.28853  Biso   1.000  C
  C935     1.0000 0.77667  0.70513  0.04239  Biso   1.000  C
  C936     1.0000 0.52272  0.74505  0.30186  Biso   1.000  C
  C937     1.0000 0.74811  0.22370  0.06493  Biso   1.000  C
  C938     1.0000 0.02770  0.73763  0.32030  Biso   1.000  C
  C939     1.0000 0.28033  0.00126  0.77865  Biso   1.000  C
  C940     1.0000 0.26839  0.24157  0.52426  Biso   1.000  C
  C941     1.0000 0.52490  0.72292  0.28055  Biso   1.000  C
  C942     1.0000 0.77831  0.94900  0.81298  Biso   1.000  C
  C943     1.0000 0.79988  0.72669  0.04595  Biso   1.000  C
  C944     1.0000 0.52413  0.21921  0.31065  Biso   1.000  C
  C945     1.0000 0.26110  0.48950  0.77620  Biso   1.000  C
  C946     1.0000 0.28550  0.74479  0.56739  Biso   1.000  C
  C947     1.0000 0.02113  0.24041  0.26399  Biso   1.000  C
  C948     1.0000 0.76490  0.45682  0.80750  Biso   1.000  C
  C949     1.0000 0.29029  0.74123  0.06101  Biso   1.000  C
  C950     1.0000 0.00628  0.23239  0.76931  Biso   1.000  C
  C951     1.0000 0.75302  0.00140  0.30891  Biso   1.000  C
  C952     1.0000 0.78000  0.70728  0.55450  Biso   1.000  C
  C953     1.0000 0.52147  0.24570  0.81390  Biso   1.000  C
  C954     1.0000 0.25614  0.98638  0.28297  Biso   1.000  C
  C955     1.0000 0.24939  0.23862  0.02878  Biso   1.000  C
  C956     1.0000 0.49907  0.74784  0.77725  Biso   1.000  C
  C957     1.0000 0.77884  0.48797  0.30327  Biso   1.000  C
  C958     1.0000 0.76417  0.21239  0.54909  Biso   1.000  C
  C959     1.0000 0.01920  0.72770  0.82850  Biso   1.000  C
  C960     1.0000 0.27770  0.49417  0.27759  Biso   1.000  C
  Cu1      1.0000 0.02076  0.47667  0.69714  Biso   1.000  Cu
  Cu2      1.0000 0.68015  0.97092  0.54204  Biso   1.000  Cu
  Cu3      1.0000 0.52830  0.64339  0.04286  Biso   1.000  Cu
  Cu4      1.0000 0.52329  0.48851  0.89063  Biso   1.000  Cu
  Cu5      1.0000 0.17359  0.99952  0.04217  Biso   1.000  Cu
  Cu6      1.0000 0.02581  0.63473  0.56102  Biso   1.000  Cu
  Cu7      1.0000 0.52327  0.98580  0.69812  Biso   1.000  Cu
  Cu8      1.0000 0.87039  0.47632  0.54207  Biso   1.000  Cu
  Cu9      1.0000 0.00828  0.13669  0.03310  Biso   1.000  Cu
  Cu10     1.0000 0.01804  0.97328  0.89080  Biso   1.000  Cu
  Cu11     1.0000 0.36949  0.49826  0.04024  Biso   1.000  Cu
  Cu12     1.0000 0.52725  0.13021  0.54728  Biso   1.000  Cu
  Cu13     1.0000 0.01636  0.49391  0.38569  Biso   1.000  Cu
  Cu14     1.0000 0.36906  0.97739  0.54734  Biso   1.000  Cu
  Cu15     1.0000 0.51632  0.33107  0.04921  Biso   1.000  Cu
  Cu16     1.0000 0.51536  0.48378  0.19196  Biso   1.000  Cu
  Cu17     1.0000 0.86484  0.96558  0.05229  Biso   1.000  Cu
  Cu18     1.0000 0.02338  0.32494  0.53485  Biso   1.000  Cu
  Cu19     1.0000 0.51473  0.98111  0.39017  Biso   1.000  Cu
  Cu20     1.0000 0.17479  0.48030  0.53998  Biso   1.000  Cu
  Cu21     1.0000 0.03316  0.83551  0.05637  Biso   1.000  Cu
  Cu22     1.0000 0.01524  0.99648  0.19538  Biso   1.000  Cu
  Cu23     1.0000 0.67938  0.47097  0.04417  Biso   1.000  Cu
  Cu24     1.0000 0.52397  0.83413  0.54163  Biso   1.000  Cu
  Cu25     1.0000 0.22705  0.00584  0.04162  Biso   1.000  Cu
  Cu26     1.0000 0.00029  0.19098  0.02405  Biso   1.000  Cu
  Cu27     1.0000 0.01712  0.00203  0.24966  Biso   1.000  Cu
  Cu28     1.0000 0.73425  0.96912  0.54109  Biso   1.000  Cu
  Cu29     1.0000 0.53143  0.18343  0.54524  Biso   1.000  Cu
  Cu30     1.0000 0.51386  0.98145  0.33559  Biso   1.000  Cu
  Cu31     1.0000 0.31509  0.49976  0.03866  Biso   1.000  Cu
  Cu32     1.0000 0.53250  0.69889  0.04337  Biso   1.000  Cu
  Cu33     1.0000 0.51445  0.48647  0.24599  Biso   1.000  Cu
  Cu34     1.0000 0.81652  0.47551  0.54461  Biso   1.000  Cu
  Cu35     1.0000 0.01955  0.68899  0.55845  Biso   1.000  Cu
  Cu36     1.0000 0.01314  0.50003  0.33357  Biso   1.000  Cu
  Cu37     1.0000 0.80922  0.96498  0.05012  Biso   1.000  Cu
  Cu38     1.0000 0.03864  0.78312  0.06233  Biso   1.000  Cu
  Cu39     1.0000 0.01490  0.96780  0.83700  Biso   1.000  Cu
  Cu40     1.0000 0.31229  0.98073  0.54649  Biso   1.000  Cu
  Cu41     1.0000 0.52104  0.77724  0.54402  Biso   1.000  Cu
  Cu42     1.0000 0.52483  0.98643  0.75199  Biso   1.000  Cu
  Cu43     1.0000 0.73293  0.47034  0.04737  Biso   1.000  Cu
  Cu44     1.0000 0.51104  0.27562  0.05008  Biso   1.000  Cu
  Cu45     1.0000 0.52490  0.48659  0.83549  Biso   1.000  Cu
  Cu46     1.0000 0.22914  0.48329  0.53882  Biso   1.000  Cu
  Cu47     1.0000 0.02842  0.27041  0.53121  Biso   1.000  Cu
  Cu48     1.0000 0.02188  0.46925  0.75091  Biso   1.000  Cu
  H1       1.0000 0.27364  0.76089  0.61045  Biso   1.000  H
  H2       1.0000 0.55079  0.27390  0.79070  Biso   1.000  H
  H3       1.0000 0.75167  0.51539  0.32710  Biso   1.000  H
  H4       1.0000 0.78053  0.75679  0.01383  Biso   1.000  H
  H5       1.0000 0.98746  0.20358  0.73791  Biso   1.000  H
  H6       1.0000 0.30821  0.51841  0.30366  Biso   1.000  H
  H7       1.0000 0.29384  0.26880  0.55238  Biso   1.000  H
  H8       1.0000 0.97913  0.75008  0.81472  Biso   1.000  H
  H9       1.0000 0.73122  0.04119  0.29613  Biso   1.000  H
  H10      1.0000 0.77366  0.25290  0.09518  Biso   1.000  H
  H11      1.0000 0.53030  0.72147  0.75353  Biso   1.000  H
  H12      1.0000 0.27944  0.02096  0.26368  Biso   1.000  H
  H13      1.0000 0.73045  0.23700  0.52887  Biso   1.000  H
  H14      1.0000 0.57063  0.72875  0.27311  Biso   1.000  H
  H15      1.0000 0.28724  0.46019  0.74774  Biso   1.000  H
  H16      1.0000 0.27172  0.21280  0.05934  Biso   1.000  H
  H17      1.0000 0.04620  0.76216  0.35379  Biso   1.000  H
  H18      1.0000 0.73248  0.43179  0.78366  Biso   1.000  H
  H19      1.0000 0.80306  0.73262  0.52470  Biso   1.000  H
  H20      1.0000 0.05086  0.21449  0.28706  Biso   1.000  H
  H21      1.0000 0.25419  0.97964  0.74465  Biso   1.000  H
  H22      1.0000 0.26064  0.70718  0.07852  Biso   1.000  H
  H23      1.0000 0.56122  0.19494  0.29067  Biso   1.000  H
  H24      1.0000 0.80744  0.92403  0.78783  Biso   1.000  H
  H25      1.0000 0.27446  0.03497  0.83153  Biso   1.000  H
  H26      1.0000 0.80315  0.22661  0.08717  Biso   1.000  H
  H27      1.0000 0.00531  0.73632  0.26642  Biso   1.000  H
  H28      1.0000 0.77687  0.91704  0.76263  Biso   1.000  H
  H29      1.0000 0.26949  0.19846  0.48724  Biso   1.000  H
  H30      1.0000 0.54538  0.77682  0.27681  Biso   1.000  H
  H31      1.0000 0.31213  0.51824  0.77287  Biso   1.000  H
  H32      1.0000 0.79219  0.67489  0.07241  Biso   1.000  H
  H33      1.0000 0.49354  0.27139  0.31465  Biso   1.000  H
  H34      1.0000 0.75919  0.48629  0.75677  Biso   1.000  H
  H35      1.0000 0.23978  0.74806  0.53731  Biso   1.000  H
  H36      1.0000 0.99364  0.23975  0.31114  Biso   1.000  H
  H37      1.0000 0.80754  0.98225  0.31760  Biso   1.000  H
  H38      1.0000 0.28558  0.77964  0.02289  Biso   1.000  H
  H39      1.0000 0.97940  0.23360  0.82302  Biso   1.000  H
  H40      1.0000 0.30490  0.95712  0.27919  Biso   1.000  H
  H41      1.0000 0.78209  0.75605  0.57948  Biso   1.000  H
  H42      1.0000 0.48497  0.19653  0.80630  Biso   1.000  H
  H43      1.0000 0.72390  0.47313  0.30879  Biso   1.000  H
  H44      1.0000 0.25001  0.29241  0.99760  Biso   1.000  H
  H45      1.0000 0.47054  0.69685  0.77867  Biso   1.000  H
  H46      1.0000 0.27647  0.46139  0.32789  Biso   1.000  H
  H47      1.0000 0.76270  0.26190  0.57634  Biso   1.000  H
  H48      1.0000 0.05626  0.67964  0.82148  Biso   1.000  H
  H49      1.0000 0.23167  0.52963  0.27978  Biso   1.000  H
  H50      1.0000 0.31434  0.23441  0.55789  Biso   1.000  H
  H51      1.0000 0.54611  0.21852  0.25504  Biso   1.000  H
  H52      1.0000 0.78368  0.50613  0.24522  Biso   1.000  H
  H53      1.0000 0.74250  0.17113  0.03840  Biso   1.000  H
  H54      1.0000 0.05649  0.28867  0.26463  Biso   1.000  H
  H55      1.0000 0.25188  0.00615  0.33392  Biso   1.000  H
  H56      1.0000 0.28493  0.69059  0.59877  Biso   1.000  H
  H57      1.0000 0.04847  0.79241  0.32857  Biso   1.000  H
  H58      1.0000 0.74809  0.02399  0.25499  Biso   1.000  H
  H59      1.0000 0.74950  0.73446  0.01596  Biso   1.000  H
  H60      1.0000 0.50229  0.71431  0.33127  Biso   1.000  H
  H61      1.0000 0.81952  0.43402  0.80804  Biso   1.000  H
  H62      1.0000 0.72745  0.70245  0.52263  Biso   1.000  H
  H63      1.0000 0.52322  0.75342  0.82868  Biso   1.000  H
  H64      1.0000 0.26199  0.45969  0.82131  Biso   1.000  H
  H65      1.0000 0.25169  0.74969  0.10265  Biso   1.000  H
  H66      1.0000 0.97537  0.71913  0.78974  Biso   1.000  H
  H67      1.0000 0.73267  0.98430  0.80935  Biso   1.000  H
  H68      1.0000 0.81156  0.21082  0.51564  Biso   1.000  H
  H69      1.0000 0.02583  0.17983  0.76258  Biso   1.000  H
  H70      1.0000 0.23103  0.97057  0.77462  Biso   1.000  H
  H71      1.0000 0.29404  0.24270  0.06293  Biso   1.000  H
  H72      1.0000 0.55319  0.24596  0.76275  Biso   1.000  H
  H73      1.0000 0.79258  0.48644  0.83293  Biso   1.000  H
  H74      1.0000 0.76126  0.67380  0.58235  Biso   1.000  H
  H75      1.0000 0.47202  0.77878  0.80028  Biso   1.000  H
  H76      1.0000 0.23172  0.51533  0.80148  Biso   1.000  H
  H77      1.0000 0.32377  0.76878  0.04149  Biso   1.000  H
  H78      1.0000 0.05984  0.71172  0.84954  Biso   1.000  H
  H79      1.0000 0.74874  0.97070  0.84448  Biso   1.000  H
  H80      1.0000 0.79336  0.18282  0.57052  Biso   1.000  H
  H81      1.0000 0.02991  0.26243  0.79678  Biso   1.000  H
  H82      1.0000 0.30697  0.02687  0.80644  Biso   1.000  H
  H83      1.0000 0.22454  0.25869  0.99525  Biso   1.000  H
  H84      1.0000 0.49324  0.22209  0.84103  Biso   1.000  H
  H85      1.0000 0.24965  0.47356  0.24516  Biso   1.000  H
  H86      1.0000 0.23285  0.21780  0.50028  Biso   1.000  H
  H87      1.0000 0.49232  0.23841  0.33866  Biso   1.000  H
  H88      1.0000 0.80867  0.45962  0.28005  Biso   1.000  H
  H89      1.0000 0.71532  0.20155  0.03714  Biso   1.000  H
  H90      1.0000 0.99229  0.26509  0.23814  Biso   1.000  H
  H91      1.0000 0.23336  0.95182  0.30042  Biso   1.000  H
  H92      1.0000 0.29927  0.72915  0.52569  Biso   1.000  H
  H93      1.0000 0.00665  0.70661  0.29187  Biso   1.000  H
  H94      1.0000 0.76969  0.96009  0.32192  Biso   1.000  H
  H95      1.0000 0.82808  0.70142  0.07359  Biso   1.000  H
  H96      1.0000 0.47981  0.71440  0.28286  Biso   1.000  H
  H97      1.0000 0.88267  0.96659  0.96157  Biso   1.000  H
  H98      1.0000 0.93541  0.84509  0.06433  Biso   1.000  H
  H99      1.0000 0.03401  0.88795  0.91764  Biso   1.000  H
  H100     1.0000 0.38944  0.00849  0.63316  Biso   1.000  H
  H101     1.0000 0.42903  0.85413  0.55383  Biso   1.000  H
  H102     1.0000 0.51689  0.89593  0.67510  Biso   1.000  H
  H103     1.0000 0.65889  0.48440  0.95298  Biso   1.000  H
  H104     1.0000 0.60637  0.34356  0.05214  Biso   1.000  H
  H105     1.0000 0.52775  0.39667  0.91600  Biso   1.000  H
  H106     1.0000 0.15600  0.47149  0.63015  Biso   1.000  H
  H107     1.0000 0.12202  0.35164  0.53794  Biso   1.000  H
  H108     1.0000 0.02023  0.38431  0.66992  Biso   1.000  H
  H109     1.0000 0.15049  0.00174  0.13457  Biso   1.000  H
  H110     1.0000 0.10035  0.12917  0.03401  Biso   1.000  H
  H111     1.0000 0.00409  0.08877  0.16370  Biso   1.000  H
  H112     1.0000 0.65183  0.98190  0.45268  Biso   1.000  H
  H113     1.0000 0.62040  0.10077  0.55433  Biso   1.000  H
  H114     1.0000 0.53986  0.06796  0.40704  Biso   1.000  H
  H115     1.0000 0.38756  0.48818  0.13244  Biso   1.000  H
  H116     1.0000 0.43652  0.63037  0.04932  Biso   1.000  H
  H117     1.0000 0.52649  0.58002  0.17239  Biso   1.000  H
  H118     1.0000 0.88483  0.48889  0.45209  Biso   1.000  H
  H119     1.0000 0.93214  0.61020  0.55920  Biso   1.000  H
  H120     1.0000 0.01352  0.58365  0.41475  Biso   1.000  H
  H121     1.0000 0.11148  0.98893  0.91013  Biso   1.000  H
  H122     1.0000 0.88109  0.05690  0.04244  Biso   1.000  H
  H123     1.0000 0.02674  0.86373  0.14804  Biso   1.000  H
  H124     1.0000 0.61886  0.97861  0.67095  Biso   1.000  H
  H125     1.0000 0.39468  0.06779  0.51552  Biso   1.000  H
  H126     1.0000 0.51511  0.84677  0.45431  Biso   1.000  H
  H127     1.0000 0.43471  0.50411  0.90305  Biso   1.000  H
  H128     1.0000 0.65863  0.56726  0.03501  Biso   1.000  H
  H129     1.0000 0.51528  0.35250  0.13966  Biso   1.000  H
  H130     1.0000 0.92796  0.47932  0.67810  Biso   1.000  H
  H131     1.0000 0.15266  0.57314  0.54845  Biso   1.000  H
  H132     1.0000 0.01049  0.35416  0.44456  Biso   1.000  H
  H133     1.0000 0.92117  0.97641  0.18365  Biso   1.000  H
  H134     1.0000 0.16292  0.91129  0.04800  Biso   1.000  H
  H135     1.0000 0.01829  0.10945  0.94256  Biso   1.000  H
  H136     1.0000 0.42545  0.97777  0.41265  Biso   1.000  H
  H137     1.0000 0.65599  0.87921  0.53379  Biso   1.000  H
  H138     1.0000 0.51534  0.12133  0.63767  Biso   1.000  H
  H139     1.0000 0.60576  0.48914  0.17634  Biso   1.000  H
  H140     1.0000 0.38658  0.40322  0.03658  Biso   1.000  H
  H141     1.0000 0.52462  0.62564  0.94976  Biso   1.000  H
  H142     1.0000 0.10709  0.50132  0.40660  Biso   1.000  H
  H143     1.0000 0.89140  0.38238  0.54632  Biso   1.000  H
  H144     1.0000 0.03574  0.61019  0.65229  Biso   1.000  H
  H145     1.0000 0.61713  0.48750  0.90949  Biso   1.000  H
  H146     1.0000 0.89030  0.56588  0.55355  Biso   1.000  H
  H147     1.0000 0.52626  0.85597  0.63649  Biso   1.000  H
  H148     1.0000 0.10999  0.47364  0.67508  Biso   1.000  H
  H149     1.0000 0.39271  0.59153  0.04362  Biso   1.000  H
  H150     1.0000 0.03814  0.84810  0.96265  Biso   1.000  H
  H151     1.0000 0.92526  0.96284  0.91593  Biso   1.000  H
  H152     1.0000 0.66491  0.05761  0.55373  Biso   1.000  H
  H153     1.0000 0.03517  0.33899  0.62786  Biso   1.000  H
  H154     1.0000 0.42880  0.00219  0.67290  Biso   1.000  H
  H155     1.0000 0.14622  0.08896  0.04112  Biso   1.000  H
  H156     1.0000 0.51776  0.35032  0.95952  Biso   1.000  H
  H157     1.0000 0.42494  0.48331  0.17489  Biso   1.000  H
  H158     1.0000 0.16109  0.39054  0.53452  Biso   1.000  H
  H159     1.0000 0.54373  0.10835  0.45371  Biso   1.000  H
  H160     1.0000 0.92912  0.50184  0.40804  Biso   1.000  H
  H161     1.0000 0.65583  0.38234  0.04722  Biso   1.000  H
  H162     1.0000 0.00485  0.12949  0.12249  Biso   1.000  H
  H163     1.0000 0.10909  0.00473  0.17765  Biso   1.000  H
  H164     1.0000 0.38821  0.89070  0.56898  Biso   1.000  H
  H165     1.0000 0.01384  0.62155  0.46278  Biso   1.000  H
  H166     1.0000 0.60394  0.98260  0.40973  Biso   1.000  H
  H167     1.0000 0.88758  0.88136  0.06179  Biso   1.000  H
  H168     1.0000 0.54330  0.61981  0.13381  Biso   1.000  H
  H169     1.0000 0.01550  0.06429  0.90475  Biso   1.000  H
  H170     1.0000 0.88152  0.97218  0.14320  Biso   1.000  H
  H171     1.0000 0.11996  0.86488  0.05585  Biso   1.000  H
  H172     1.0000 0.51457  0.07671  0.68182  Biso   1.000  H
  H173     1.0000 0.38612  0.96665  0.45540  Biso   1.000  H
  H174     1.0000 0.61373  0.84265  0.53132  Biso   1.000  H
  H175     1.0000 0.51622  0.57940  0.90958  Biso   1.000  H
  H176     1.0000 0.65065  0.47994  0.12949  Biso   1.000  H
  H177     1.0000 0.42560  0.35997  0.04761  Biso   1.000  H
  H178     1.0000 0.03634  0.56579  0.68921  Biso   1.000  H
  H179     1.0000 0.14790  0.50214  0.44844  Biso   1.000  H
  H180     1.0000 0.93556  0.33932  0.54068  Biso   1.000  H
  H181     1.0000 0.02821  0.90788  0.18918  Biso   1.000  H
  H182     1.0000 0.15786  0.98687  0.95276  Biso   1.000  H
  H183     1.0000 0.91796  0.10581  0.02979  Biso   1.000  H
  H184     1.0000 0.51250  0.88818  0.40954  Biso   1.000  H
  H185     1.0000 0.65976  0.96171  0.63172  Biso   1.000  H
  H186     1.0000 0.43833  0.10859  0.52459  Biso   1.000  H
  H187     1.0000 0.52437  0.39371  0.17884  Biso   1.000  H
  H188     1.0000 0.39053  0.50552  0.94573  Biso   1.000  H
  H189     1.0000 0.61708  0.61375  0.02753  Biso   1.000  H
  H190     1.0000 0.01053  0.40179  0.39777  Biso   1.000  H
  H191     1.0000 0.88700  0.48312  0.63497  Biso   1.000  H
  H192     1.0000 0.11320  0.62064  0.54916  Biso   1.000  H
  H193     1.0000 0.29513  0.83477  0.57329  Biso   1.000  H
  H194     1.0000 0.52318  0.25712  0.90037  Biso   1.000  H
  H195     1.0000 0.86823  0.50529  0.31202  Biso   1.000  H
  H196     1.0000 0.80330  0.81357  0.05598  Biso   1.000  H
  H197     1.0000 0.00810  0.24166  0.67389  Biso   1.000  H
  H198     1.0000 0.37476  0.48942  0.26853  Biso   1.000  H
  H199     1.0000 0.25585  0.33653  0.52043  Biso   1.000  H
  H200     1.0000 0.03868  0.74589  0.91835  Biso   1.000  H
  H201     1.0000 0.65890  0.98300  0.31736  Biso   1.000  H
  H202     1.0000 0.74537  0.32063  0.06768  Biso   1.000  H
  H203     1.0000 0.51780  0.75637  0.68479  Biso   1.000  H
  H204     1.0000 0.16381  0.99402  0.27431  Biso   1.000  H
  H205     1.0000 0.75981  0.11239  0.53978  Biso   1.000  H
  H206     1.0000 0.54796  0.71553  0.18917  Biso   1.000  H
  H207     1.0000 0.16621  0.47672  0.76704  Biso   1.000  H
  H208     1.0000 0.23756  0.14543  0.02793  Biso   1.000  H
  H209     1.0000 0.02353  0.72365  0.41793  Biso   1.000  H
  H210     1.0000 0.66991  0.48053  0.81497  Biso   1.000  H
  H211     1.0000 0.79509  0.61851  0.55100  Biso   1.000  H
  H212     1.0000 0.01736  0.23014  0.16630  Biso   1.000  H
  H213     1.0000 0.37892  0.99814  0.77200  Biso   1.000  H
  H214     1.0000 0.29988  0.64946  0.04461  Biso   1.000  H
  H215     1.0000 0.52591  0.20784  0.40821  Biso   1.000  H
  H216     1.0000 0.86547  0.95416  0.82318  Biso   1.000  H
  H217     1.0000 0.24232  0.48703  0.39355  Biso   1.000  H
  H218     1.0000 0.38738  0.20863  0.51966  Biso   1.000  H
  H219     1.0000 0.51703  0.34113  0.27737  Biso   1.000  H
  H220     1.0000 0.74476  0.47443  0.19275  Biso   1.000  H
  H221     1.0000 0.86154  0.19762  0.04339  Biso   1.000  H
  H222     1.0000 0.03648  0.35428  0.30308  Biso   1.000  H
  H223     1.0000 0.29006  0.96384  0.40114  Biso   1.000  H
  H224     1.0000 0.17162  0.71403  0.55980  Biso   1.000  H
  H225     1.0000 0.01762  0.86013  0.28831  Biso   1.000  H
  H226     1.0000 0.78464  0.98851  0.19311  Biso   1.000  H
  H227     1.0000 0.67648  0.70397  0.03320  Biso   1.000  H
  H228     1.0000 0.50699  0.83544  0.31310  Biso   1.000  H
  H229     1.0000 0.79429  0.47152  0.69170  Biso   1.000  H
  H230     1.0000 0.65985  0.74193  0.55287  Biso   1.000  H
  H231     1.0000 0.50808  0.63197  0.81122  Biso   1.000  H
  H232     1.0000 0.29528  0.50435  0.89264  Biso   1.000  H
  H233     1.0000 0.18393  0.77534  0.06309  Biso   1.000  H
  H234     1.0000 0.01261  0.61012  0.78808  Biso   1.000  H
  H235     1.0000 0.75369  0.95575  0.68849  Biso   1.000  H
  H236     1.0000 0.88245  0.24390  0.54129  Biso   1.000  H
  H237     1.0000 0.00489  0.10955  0.80346  Biso   1.000  H
  H238     1.0000 0.25123  0.99116  0.89837  Biso   1.000  H
  H239     1.0000 0.36568  0.26780  0.03448  Biso   1.000  H
  H240     1.0000 0.51677  0.13229  0.77643  Biso   1.000  H
  H241     1.0000 0.75188  0.46067  0.89948  Biso   1.000  H
  H242     1.0000 0.87720  0.70404  0.55420  Biso   1.000  H
  H243     1.0000 0.51874  0.84483  0.77138  Biso   1.000  H
  H244     1.0000 0.25205  0.48355  0.68644  Biso   1.000  H
  H245     1.0000 0.39412  0.72885  0.07114  Biso   1.000  H
  H246     1.0000 0.01514  0.82510  0.82593  Biso   1.000  H
  H247     1.0000 0.79025  0.93468  0.90951  Biso   1.000  H
  H248     1.0000 0.67299  0.19858  0.56834  Biso   1.000  H
  H249     1.0000 0.98882  0.32830  0.75854  Biso   1.000  H
  H250     1.0000 0.29322  0.02276  0.68343  Biso   1.000  H
  H251     1.0000 0.14556  0.22750  0.02667  Biso   1.000  H
  H252     1.0000 0.51627  0.34400  0.82052  Biso   1.000  H
  H253     1.0000 0.28837  0.50308  0.17787  Biso   1.000  H
  H254     1.0000 0.17339  0.25132  0.52998  Biso   1.000  H
  H255     1.0000 0.52070  0.12972  0.31538  Biso   1.000  H
  H256     1.0000 0.78810  0.48029  0.39820  Biso   1.000  H
  H257     1.0000 0.65449  0.24261  0.06382  Biso   1.000  H
  H258     1.0000 0.01912  0.14429  0.26020  Biso   1.000  H
  H259     1.0000 0.24715  0.00446  0.18891  Biso   1.000  H
  H260     1.0000 0.37944  0.75452  0.56147  Biso   1.000  H
  H261     1.0000 0.03515  0.64442  0.32552  Biso   1.000  H
  H262     1.0000 0.74737  0.99037  0.39810  Biso   1.000  H
  H263     1.0000 0.89960  0.74201  0.05696  Biso   1.000  H
  H264     1.0000 0.50651  0.63416  0.26696  Biso   1.000  H
  H265     1.0000 0.02112  0.20257  0.88323  Biso   1.000  H
  H266     1.0000 0.87276  0.01754  0.27185  Biso   1.000  H
  H267     1.0000 0.26031  0.86237  0.06400  Biso   1.000  H
  H268     1.0000 0.51662  0.21881  0.68543  Biso   1.000  H
  H269     1.0000 0.37064  0.98643  0.31525  Biso   1.000  H
  H270     1.0000 0.75560  0.82406  0.54369  Biso   1.000  H
  H271     1.0000 0.50226  0.72085  0.89987  Biso   1.000  H
  H272     1.0000 0.65589  0.51508  0.26886  Biso   1.000  H
  H273     1.0000 0.28545  0.36053  0.02892  Biso   1.000  H
  H274     1.0000 0.01382  0.70006  0.71018  Biso   1.000  H
  H275     1.0000 0.15729  0.50063  0.30825  Biso   1.000  H
  H276     1.0000 0.79749  0.33012  0.53956  Biso   1.000  H
  H277     1.0000 0.04092  0.76846  0.20641  Biso   1.000  H
  H278     1.0000 0.16086  0.99193  0.81393  Biso   1.000  H
  H279     1.0000 0.78941  0.10597  0.07745  Biso   1.000  H
  H280     1.0000 0.52379  0.75096  0.39910  Biso   1.000  H
  H281     1.0000 0.66604  0.96317  0.77264  Biso   1.000  H
  H282     1.0000 0.29688  0.11912  0.52302  Biso   1.000  H
  H283     1.0000 0.51583  0.25463  0.19204  Biso   1.000  H
  H284     1.0000 0.38030  0.48264  0.80680  Biso   1.000  H
  H285     1.0000 0.75833  0.61454  0.05071  Biso   1.000  H
  H286     1.0000 0.03414  0.26427  0.38460  Biso   1.000  H
  H287     1.0000 0.88448  0.47081  0.77698  Biso   1.000  H
  H288     1.0000 0.24933  0.62563  0.55818  Biso   1.000  H
  H289     1.0000 0.09156  0.22106  0.02650  Biso   1.000  H
  H290     1.0000 0.02467  0.09273  0.25908  Biso   1.000  H
  H291     1.0000 0.24682  0.00384  0.13340  Biso   1.000  H
  H292     1.0000 0.61944  0.19480  0.57072  Biso   1.000  H
  H293     1.0000 0.52576  0.07216  0.31229  Biso   1.000  H
  H294     1.0000 0.74789  0.99147  0.45091  Biso   1.000  H
  H295     1.0000 0.44189  0.72477  0.06003  Biso   1.000  H
  H296     1.0000 0.49728  0.58005  0.26300  Biso   1.000  H
  H297     1.0000 0.29113  0.50063  0.12482  Biso   1.000  H
  H298     1.0000 0.93552  0.70478  0.55481  Biso   1.000  H
  H299     1.0000 0.03216  0.59069  0.31868  Biso   1.000  H
  H300     1.0000 0.78960  0.47778  0.45296  Biso   1.000  H
  H301     1.0000 0.95247  0.74930  0.05989  Biso   1.000  H
  H302     1.0000 0.01179  0.87783  0.82288  Biso   1.000  H
  H303     1.0000 0.79131  0.94156  0.96091  Biso   1.000  H
  H304     1.0000 0.43663  0.75805  0.55049  Biso   1.000  H
  H305     1.0000 0.51254  0.89746  0.77016  Biso   1.000  H
  H306     1.0000 0.29518  0.01951  0.62862  Biso   1.000  H
  H307     1.0000 0.60082  0.24789  0.06052  Biso   1.000  H
  H308     1.0000 0.51732  0.39688  0.81886  Biso   1.000  H
  H309     1.0000 0.75402  0.46226  0.95418  Biso   1.000  H
  H310     1.0000 0.11645  0.25383  0.53119  Biso   1.000  H
  H311     1.0000 0.99723  0.38381  0.76106  Biso   1.000  H
  H312     1.0000 0.25100  0.48329  0.63177  Biso   1.000  H
  H313     1.0000 0.25216  0.98713  0.95201  Biso   1.000  H
  H314     1.0000 0.91445  0.20256  0.03013  Biso   1.000  H
  H315     1.0000 0.00880  0.91328  0.28396  Biso   1.000  H
  H316     1.0000 0.75586  0.95341  0.63579  Biso   1.000  H
  H317     1.0000 0.43928  0.20436  0.52929  Biso   1.000  H
  H318     1.0000 0.50989  0.89418  0.31453  Biso   1.000  H
  H319     1.0000 0.29590  0.50340  0.94539  Biso   1.000  H
  H320     1.0000 0.62411  0.70891  0.02979  Biso   1.000  H
  H321     1.0000 0.51925  0.39638  0.27252  Biso   1.000  H
  H322     1.0000 0.79183  0.46970  0.63668  Biso   1.000  H
  H323     1.0000 0.11758  0.71668  0.56237  Biso   1.000  H
  H324     1.0000 0.02883  0.40818  0.30568  Biso   1.000  H
  H325     1.0000 0.78456  0.97674  0.13747  Biso   1.000  H
  H326     1.0000 0.12527  0.77326  0.06240  Biso   1.000  H
  H327     1.0000 0.00825  0.05587  0.80909  Biso   1.000  H
  H328     1.0000 0.28858  0.96341  0.45767  Biso   1.000  H
  H329     1.0000 0.60810  0.74759  0.54466  Biso   1.000  H
  H330     1.0000 0.51555  0.08085  0.77644  Biso   1.000  H
  H331     1.0000 0.74185  0.45456  0.13872  Biso   1.000  H
  H332     1.0000 0.42123  0.26380  0.03500  Biso   1.000  H
  H333     1.0000 0.51796  0.57920  0.81325  Biso   1.000  H
  H334     1.0000 0.24570  0.48921  0.44596  Biso   1.000  H
  H335     1.0000 0.93599  0.24520  0.54451  Biso   1.000  H
  H336     1.0000 0.02108  0.55584  0.78245  Biso   1.000  H
  H337     1.0000 0.02092  0.20478  0.93767  Biso   1.000  H
  H338     1.0000 0.92480  0.01891  0.26996  Biso   1.000  H
  H339     1.0000 0.26007  0.91756  0.05549  Biso   1.000  H
  H340     1.0000 0.51150  0.21501  0.63182  Biso   1.000  H
  H341     1.0000 0.42440  0.98637  0.31835  Biso   1.000  H
  H342     1.0000 0.75321  0.87675  0.53390  Biso   1.000  H
  H343     1.0000 0.50941  0.72204  0.94881  Biso   1.000  H
  H344     1.0000 0.60272  0.50899  0.26741  Biso   1.000  H
  H345     1.0000 0.28894  0.41178  0.02736  Biso   1.000  H
  H346     1.0000 0.01417  0.70309  0.65227  Biso   1.000  H
  H347     1.0000 0.10398  0.50592  0.31012  Biso   1.000  H
  H348     1.0000 0.79743  0.38402  0.54207  Biso   1.000  H
  H349     1.0000 0.04063  0.76883  0.15232  Biso   1.000  H
  H350     1.0000 0.10726  0.98339  0.81355  Biso   1.000  H
  H351     1.0000 0.79218  0.05516  0.07561  Biso   1.000  H
  H352     1.0000 0.52681  0.75259  0.45409  Biso   1.000  H
  H353     1.0000 0.61391  0.97478  0.76757  Biso   1.000  H
  H354     1.0000 0.29955  0.06732  0.53089  Biso   1.000  H
  H355     1.0000 0.51262  0.25801  0.13378  Biso   1.000  H
  H356     1.0000 0.43478  0.48347  0.81068  Biso   1.000  H
  H357     1.0000 0.75369  0.55793  0.05201  Biso   1.000  H
  H358     1.0000 0.03047  0.26045  0.44039  Biso   1.000  H
  H359     1.0000 0.93460  0.47063  0.77233  Biso   1.000  H
  H360     1.0000 0.24715  0.57016  0.55771  Biso   1.000  H
  H361     1.0000 0.01968  0.71482  0.47340  Biso   1.000  H
  H362     1.0000 0.43428  0.99070  0.77017  Biso   1.000  H
  H363     1.0000 0.75196  0.37619  0.05461  Biso   1.000  H
  H364     1.0000 0.55532  0.71444  0.13557  Biso   1.000  H
  H365     1.0000 0.91927  0.96116  0.81838  Biso   1.000  H
  H366     1.0000 0.25560  0.39372  0.52215  Biso   1.000  H
  H367     1.0000 0.53035  0.20277  0.46169  Biso   1.000  H
  H368     1.0000 0.11325  0.47366  0.76949  Biso   1.000  H
  H369     1.0000 0.79400  0.86580  0.05352  Biso   1.000  H
  H370     1.0000 0.00856  0.22404  0.11107  Biso   1.000  H
  H371     1.0000 0.61265  0.48770  0.81655  Biso   1.000  H
  H372     1.0000 0.29327  0.89050  0.57409  Biso   1.000  H
  H373     1.0000 0.01347  0.24806  0.61724  Biso   1.000  H
  H374     1.0000 0.60883  0.96804  0.31524  Biso   1.000  H
  H375     1.0000 0.29754  0.59775  0.03456  Biso   1.000  H
  H376     1.0000 0.52146  0.25355  0.95491  Biso   1.000  H
  H377     1.0000 0.10698  0.99759  0.27234  Biso   1.000  H
  H378     1.0000 0.79370  0.56305  0.54989  Biso   1.000  H
  H379     1.0000 0.51779  0.75934  0.63010  Biso   1.000  H
  H380     1.0000 0.92420  0.50551  0.31374  Biso   1.000  H
  H381     1.0000 0.24131  0.09217  0.03450  Biso   1.000  H
  H382     1.0000 0.03825  0.75269  0.97476  Biso   1.000  H
  H383     1.0000 0.42754  0.48787  0.27103  Biso   1.000  H
  H384     1.0000 0.75685  0.06061  0.53737  Biso   1.000  H
  H385     1.0000 0.23302  0.45863  0.36182  Biso   1.000  H
  H386     1.0000 0.30666  0.15714  0.48680  Biso   1.000  H
  H387     1.0000 0.49122  0.30940  0.28091  Biso   1.000  H
  H388     1.0000 0.68394  0.47629  0.27634  Biso   1.000  H
  H389     1.0000 0.84119  0.19054  0.08213  Biso   1.000  H
  H390     1.0000 0.99759  0.27130  0.35585  Biso   1.000  H
  H391     1.0000 0.33933  0.94384  0.31885  Biso   1.000  H
  H392     1.0000 0.20216  0.71062  0.52780  Biso   1.000  H
  H393     1.0000 0.00224  0.77436  0.23217  Biso   1.000  H
  H394     1.0000 0.84588  0.98199  0.28293  Biso   1.000  H
  H395     1.0000 0.75104  0.64689  0.07861  Biso   1.000  H
  H396     1.0000 0.54551  0.81163  0.31450  Biso   1.000  H
  H397     1.0000 0.79600  0.49950  0.72398  Biso   1.000  H
  H398     1.0000 0.74369  0.79585  0.57710  Biso   1.000  H
  H399     1.0000 0.47509  0.65926  0.81494  Biso   1.000  H
  H400     1.0000 0.35152  0.51757  0.80386  Biso   1.000  H
  H401     1.0000 0.25303  0.82563  0.02245  Biso   1.000  H
  H402     1.0000 0.05562  0.64683  0.78342  Biso   1.000  H
  H403     1.0000 0.74637  0.92530  0.71980  Biso   1.000  H
  H404     1.0000 0.80091  0.30194  0.57165  Biso   1.000  H
  H405     1.0000 0.98260  0.19797  0.85963  Biso   1.000  H
  H406     1.0000 0.23975  0.02406  0.86752  Biso   1.000  H
  H407     1.0000 0.29052  0.32635  0.99644  Biso   1.000  H
  H408     1.0000 0.48376  0.16432  0.76880  Biso   1.000  H
  H409     1.0000 0.28581  0.47299  0.20647  Biso   1.000  H
  H410     1.0000 0.19899  0.25578  0.49964  Biso   1.000  H
  H411     1.0000 0.49015  0.20030  0.37328  Biso   1.000  H
  H412     1.0000 0.84361  0.46062  0.31919  Biso   1.000  H
  H413     1.0000 0.68265  0.24364  0.03631  Biso   1.000  H
  H414     1.0000 0.98674  0.22927  0.19980  Biso   1.000  H
  H415     1.0000 0.19339  0.95594  0.25773  Biso   1.000  H
  H416     1.0000 0.34060  0.76325  0.52338  Biso   1.000  H
  H417     1.0000 0.99828  0.67147  0.33204  Biso   1.000  H
  H418     1.0000 0.73248  0.95379  0.35980  Biso   1.000  H
  H419     1.0000 0.86490  0.73835  0.08177  Biso   1.000  H
  H420     1.0000 0.47916  0.67569  0.24430  Biso   1.000  H
  H421     1.0000 0.75923  0.49645  0.86809  Biso   1.000  H
  H422     1.0000 0.80315  0.64451  0.58380  Biso   1.000  H
  H423     1.0000 0.48324  0.81905  0.76598  Biso   1.000  H
  H424     1.0000 0.19178  0.51417  0.76535  Biso   1.000  H
  H425     1.0000 0.36084  0.73396  0.04197  Biso   1.000  H
  H426     1.0000 0.06516  0.75279  0.88155  Biso   1.000  H
  H427     1.0000 0.78387  0.97297  0.88224  Biso   1.000  H
  H428     1.0000 0.75647  0.14220  0.57069  Biso   1.000  H
  H429     1.0000 0.02905  0.30104  0.76532  Biso   1.000  H
  H430     1.0000 0.34851  0.03032  0.77092  Biso   1.000  H
  H431     1.0000 0.18476  0.22344  0.99438  Biso   1.000  H
  H432     1.0000 0.48834  0.26309  0.87680  Biso   1.000  H
  H433     1.0000 0.29009  0.98746  0.70703  Biso   1.000  H
  H434     1.0000 0.73634  0.29097  0.09444  Biso   1.000  H
  H435     1.0000 0.04899  0.72400  0.38994  Biso   1.000  H
  H436     1.0000 0.84245  0.91889  0.82723  Biso   1.000  H
  H437     1.0000 0.25664  0.30608  0.55915  Biso   1.000  H
  H438     1.0000 0.57361  0.69198  0.23499  Biso   1.000  H
  H439     1.0000 0.24601  0.45567  0.71283  Biso   1.000  H
  H440     1.0000 0.81709  0.79194  0.01748  Biso   1.000  H
  H441     1.0000 0.56273  0.15629  0.32415  Biso   1.000  H
  H442     1.0000 0.69448  0.44244  0.81775  Biso   1.000  H
  H443     1.0000 0.31056  0.79975  0.60881  Biso   1.000  H
  H444     1.0000 0.05216  0.17615  0.24959  Biso   1.000  H
  H445     1.0000 0.69240  0.03551  0.33172  Biso   1.000  H
  H446     1.0000 0.29990  0.67210  0.07886  Biso   1.000  H
  H447     1.0000 0.98109  0.24611  0.70108  Biso   1.000  H
  H448     1.0000 0.24237  0.03175  0.22736  Biso   1.000  H
  H449     1.0000 0.84618  0.70332  0.52373  Biso   1.000  H
  H450     1.0000 0.55033  0.31377  0.82657  Biso   1.000  H
  H451     1.0000 0.78810  0.52285  0.36462  Biso   1.000  H
  H452     1.0000 0.23251  0.17774  0.06613  Biso   1.000  H
  H453     1.0000 0.54495  0.75681  0.71929  Biso   1.000  H
  H454     1.0000 0.34371  0.52257  0.26317  Biso   1.000  H
  H455     1.0000 0.69404  0.19862  0.52789  Biso   1.000  H
  H456     1.0000 0.98748  0.79211  0.84296  Biso   1.000  H
  H457     1.0000 0.69107  0.74054  0.51797  Biso   1.000  H
  H458     1.0000 0.53212  0.71766  0.86326  Biso   1.000  H
  H459     1.0000 0.85635  0.43564  0.76875  Biso   1.000  H
  H460     1.0000 0.21321  0.78556  0.10279  Biso   1.000  H
  H461     1.0000 0.97681  0.68671  0.74516  Biso   1.000  H
  H462     1.0000 0.29753  0.46047  0.86163  Biso   1.000  H
  H463     1.0000 0.84944  0.24631  0.51354  Biso   1.000  H
  H464     1.0000 0.02923  0.14054  0.79839  Biso   1.000  H
  H465     1.0000 0.69655  0.99050  0.76694  Biso   1.000  H
  H466     1.0000 0.33058  0.27664  0.06749  Biso   1.000  H
  H467     1.0000 0.55265  0.21120  0.72304  Biso   1.000  H
  H468     1.0000 0.19328  0.96204  0.81034  Biso   1.000  H
  H469     1.0000 0.35343  0.20002  0.55499  Biso   1.000  H
  H470     1.0000 0.54338  0.25993  0.21900  Biso   1.000  H
  H471     1.0000 0.19060  0.52785  0.31246  Biso   1.000  H
  H472     1.0000 0.77914  0.13545  0.03248  Biso   1.000  H
  H473     1.0000 0.06141  0.32134  0.30574  Biso   1.000  H
  H474     1.0000 0.74761  0.50972  0.20972  Biso   1.000  H
  H475     1.0000 0.24452  0.65344  0.59159  Biso   1.000  H
  H476     1.0000 0.05506  0.82987  0.29082  Biso   1.000  H
  H477     1.0000 0.28939  0.00079  0.37523  Biso   1.000  H
  H478     1.0000 0.71152  0.70056  0.00548  Biso   1.000  H
  H479     1.0000 0.49354  0.74917  0.36824  Biso   1.000  H
  H480     1.0000 0.78191  0.02401  0.21705  Biso   1.000  H
  N1       1.0000 0.70487  0.14529  0.55388  Biso   1.000  N
  N2       1.0000 0.52858  0.66284  0.21637  Biso   1.000  N
  N3       1.0000 0.19556  0.48132  0.71676  Biso   1.000  N
  N4       1.0000 0.18344  0.17650  0.03357  Biso   1.000  N
  N5       1.0000 0.02376  0.67102  0.38127  Biso   1.000  N
  N6       1.0000 0.70210  0.47513  0.86727  Biso   1.000  N
  N7       1.0000 0.84754  0.65001  0.55097  Biso   1.000  N
  N8       1.0000 0.01699  0.17668  0.20247  Biso   1.000  N
  N9       1.0000 0.34643  0.00761  0.71760  Biso   1.000  N
  N10      1.0000 0.35245  0.67711  0.05858  Biso   1.000  N
  N11      1.0000 0.52945  0.15530  0.37138  Biso   1.000  N
  N12      1.0000 0.83860  0.95005  0.87685  Biso   1.000  N
  N13      1.0000 0.34759  0.80588  0.56695  Biso   1.000  N
  N14      1.0000 0.52096  0.31176  0.87223  Biso   1.000  N
  N15      1.0000 0.84067  0.49421  0.36548  Biso   1.000  N
  N16      1.0000 0.86017  0.79018  0.05703  Biso   1.000  N
  N17      1.0000 0.00727  0.29577  0.70785  Biso   1.000  N
  N18      1.0000 0.34044  0.49293  0.21451  Biso   1.000  N
  N19      1.0000 0.20403  0.30470  0.53081  Biso   1.000  N
  N20      1.0000 0.02836  0.79689  0.88313  Biso   1.000  N
  N21      1.0000 0.68978  0.99162  0.37033  Biso   1.000  N
  N22      1.0000 0.69089  0.29453  0.06087  Biso   1.000  N
  N23      1.0000 0.52060  0.80979  0.71776  Biso   1.000  N
  N24      1.0000 0.19414  0.99912  0.21960  Biso   1.000  N
  N25      1.0000 0.84444  0.47099  0.72256  Biso   1.000  N
  N26      1.0000 0.69719  0.79247  0.54649  Biso   1.000  N
  N27      1.0000 0.50708  0.66610  0.86512  Biso   1.000  N
  N28      1.0000 0.34722  0.49118  0.85910  Biso   1.000  N
  N29      1.0000 0.20964  0.82896  0.06440  Biso   1.000  N
  N30      1.0000 0.01836  0.64747  0.73813  Biso   1.000  N
  N31      1.0000 0.70015  0.96050  0.71958  Biso   1.000  N
  N32      1.0000 0.84833  0.29819  0.54077  Biso   1.000  N
  N33      1.0000 0.01157  0.14721  0.85324  Biso   1.000  N
  N34      1.0000 0.19564  0.99148  0.86490  Biso   1.000  N
  N35      1.0000 0.33762  0.32183  0.03266  Biso   1.000  N
  N36      1.0000 0.51745  0.16469  0.72279  Biso   1.000  N
  N37      1.0000 0.19133  0.49625  0.36255  Biso   1.000  N
  N38      1.0000 0.35196  0.15482  0.51975  Biso   1.000  N
  N39      1.0000 0.51616  0.30722  0.22475  Biso   1.000  N
  N40      1.0000 0.69038  0.49443  0.21881  Biso   1.000  N
  N41      1.0000 0.83452  0.14310  0.05123  Biso   1.000  N
  N42      1.0000 0.02970  0.31784  0.35413  Biso   1.000  N
  N43      1.0000 0.33818  0.97409  0.37068  Biso   1.000  N
  N44      1.0000 0.20004  0.65967  0.55810  Biso   1.000  N
  N45      1.0000 0.02848  0.82394  0.23819  Biso   1.000  N
  N46      1.0000 0.83731  0.99524  0.22556  Biso   1.000  N
  N47      1.0000 0.70575  0.64917  0.03778  Biso   1.000  N
  N48      1.0000 0.51475  0.80351  0.36667  Biso   1.000  N
  O1       1.0000 0.36648  0.54063  0.04258  Biso   1.000  O
  O2       1.0000 0.02764  0.31992  0.57573  Biso   1.000  O
  O3       1.0000 0.55571  0.97443  0.38582  Biso   1.000  O
  O4       1.0000 0.86573  0.51618  0.54810  Biso   1.000  O
  O5       1.0000 0.51795  0.32642  0.00744  Biso   1.000  O
  O6       1.0000 0.05928  0.00223  0.19708  Biso   1.000  O
  O7       1.0000 0.17534  0.04147  0.04301  Biso   1.000  O
  O8       1.0000 0.52628  0.83246  0.58454  Biso   1.000  O
  O9       1.0000 0.97420  0.49574  0.38241  Biso   1.000  O
  O10      1.0000 0.68540  0.01065  0.54885  Biso   1.000  O
  O11      1.0000 0.03453  0.82786  0.01579  Biso   1.000  O
  O12      1.0000 0.47319  0.48250  0.19700  Biso   1.000  O
  O13      1.0000 0.68018  0.42758  0.04776  Biso   1.000  O
  O14      1.0000 0.02220  0.64113  0.51502  Biso   1.000  O
  O15      1.0000 0.48202  0.99361  0.69849  Biso   1.000  O
  O16      1.0000 0.18225  0.43770  0.53077  Biso   1.000  O
  O17      1.0000 0.53519  0.64734  0.08517  Biso   1.000  O
  O18      1.0000 0.97417  0.96849  0.88743  Biso   1.000  O
  O19      1.0000 0.86422  0.92393  0.05678  Biso   1.000  O
  O20      1.0000 0.52936  0.13103  0.50547  Biso   1.000  O
  O21      1.0000 0.06228  0.47124  0.69701  Biso   1.000  O
  O22      1.0000 0.36455  0.93845  0.56212  Biso   1.000  O
  O23      1.0000 0.00347  0.14457  0.07358  Biso   1.000  O
  O24      1.0000 0.56671  0.48465  0.88908  Biso   1.000  O
  O25      1.0000 0.97183  0.99131  0.20296  Biso   1.000  O
  O26      1.0000 0.18256  0.95693  0.03885  Biso   1.000  O
  O27      1.0000 0.01397  0.13810  0.99019  Biso   1.000  O
  O28      1.0000 0.47234  0.98651  0.38698  Biso   1.000  O
  O29      1.0000 0.68093  0.92921  0.53439  Biso   1.000  O
  O30      1.0000 0.51803  0.13731  0.58827  Biso   1.000  O
  O31      1.0000 0.55657  0.48311  0.19738  Biso   1.000  O
  O32      1.0000 0.36514  0.45603  0.03783  Biso   1.000  O
  O33      1.0000 0.52177  0.64782  0.00104  Biso   1.000  O
  O34      1.0000 0.05792  0.49587  0.38264  Biso   1.000  O
  O35      1.0000 0.86968  0.43437  0.53504  Biso   1.000  O
  O36      1.0000 0.03094  0.63460  0.60093  Biso   1.000  O
  O37      1.0000 0.06059  0.98132  0.88827  Biso   1.000  O
  O38      1.0000 0.86025  0.01011  0.05280  Biso   1.000  O
  O39      1.0000 0.02914  0.83684  0.09889  Biso   1.000  O
  O40      1.0000 0.56402  0.98019  0.69750  Biso   1.000  O
  O41      1.0000 0.36919  0.01768  0.53325  Biso   1.000  O
  O42      1.0000 0.52206  0.82630  0.49907  Biso   1.000  O
  O43      1.0000 0.48188  0.49207  0.88459  Biso   1.000  O
  O44      1.0000 0.67754  0.51494  0.04591  Biso   1.000  O
  O45      1.0000 0.50968  0.33060  0.09053  Biso   1.000  O
  O46      1.0000 0.97952  0.48264  0.70046  Biso   1.000  O
  O47      1.0000 0.17333  0.52421  0.54337  Biso   1.000  O
  O48      1.0000 0.01543  0.32594  0.49385  Biso   1.000  O
  O49      1.0000 0.01934  0.95536  0.20454  Biso   1.000  O
  O50      1.0000 0.17870  0.99822  0.00049  Biso   1.000  O
  O51      1.0000 0.96584  0.13326  0.02321  Biso   1.000  O
  O52      1.0000 0.50756  0.93952  0.38608  Biso   1.000  O
  O53      1.0000 0.68375  0.96399  0.58405  Biso   1.000  O
  O54      1.0000 0.48601  0.13285  0.53812  Biso   1.000  O
  O55      1.0000 0.51782  0.44044  0.19733  Biso   1.000  O
  O56      1.0000 0.36601  0.50233  0.99897  Biso   1.000  O
  O57      1.0000 0.56980  0.64014  0.03356  Biso   1.000  O
  O58      1.0000 0.01990  0.45232  0.38006  Biso   1.000  O
  O59      1.0000 0.86692  0.47336  0.58619  Biso   1.000  O
  O60      1.0000 0.06718  0.64323  0.56058  Biso   1.000  O
  O61      1.0000 0.01077  0.01530  0.88525  Biso   1.000  O
  O62      1.0000 0.85700  0.96823  0.09549  Biso   1.000  O
  O63      1.0000 0.07472  0.83888  0.05752  Biso   1.000  O
  O64      1.0000 0.52698  0.02966  0.70241  Biso   1.000  O
  O65      1.0000 0.36451  0.96521  0.50663  Biso   1.000  O
  O66      1.0000 0.56499  0.82493  0.53857  Biso   1.000  O
  O67      1.0000 0.52575  0.53166  0.88623  Biso   1.000  O
  O68      1.0000 0.67610  0.47303  0.08550  Biso   1.000  O
  O69      1.0000 0.47477  0.33035  0.04790  Biso   1.000  O
  O70      1.0000 0.03146  0.51643  0.70575  Biso   1.000  O
  O71      1.0000 0.17590  0.48515  0.49964  Biso   1.000  O
  O72      1.0000 0.98317  0.31751  0.53866  Biso   1.000  O
  O73      1.0000 0.01297  0.43231  0.69377  Biso   1.000  O
  O74      1.0000 0.67762  0.97697  0.50101  Biso   1.000  O
  O75      1.0000 0.48580  0.64960  0.04753  Biso   1.000  O
  O76      1.0000 0.52085  0.44654  0.89183  Biso   1.000  O
  O77      1.0000 0.17240  0.00170  0.08576  Biso   1.000  O
  O78      1.0000 0.98270  0.63343  0.56065  Biso   1.000  O
  O79      1.0000 0.51474  0.94428  0.69759  Biso   1.000  O
  O80      1.0000 0.86626  0.47917  0.49901  Biso   1.000  O
  O81      1.0000 0.05009  0.14806  0.03854  Biso   1.000  O
  O82      1.0000 0.02583  0.93279  0.89045  Biso   1.000  O
  O83      1.0000 0.36729  0.49831  0.08129  Biso   1.000  O
  O84      1.0000 0.56991  0.12900  0.55059  Biso   1.000  O
  O85      1.0000 0.01531  0.53554  0.38492  Biso   1.000  O
  O86      1.0000 0.36686  0.99229  0.58700  Biso   1.000  O
  O87      1.0000 0.55741  0.32329  0.05431  Biso   1.000  O
  O88      1.0000 0.51235  0.52867  0.19193  Biso   1.000  O
  O89      1.0000 0.86008  0.96183  0.01189  Biso   1.000  O
  O90      1.0000 0.06475  0.32363  0.52706  Biso   1.000  O
  O91      1.0000 0.51985  0.02344  0.38348  Biso   1.000  O
  O92      1.0000 0.17909  0.47405  0.58101  Biso   1.000  O
  O93      1.0000 0.99199  0.82645  0.05628  Biso   1.000  O
  O94      1.0000 0.01007  0.03968  0.19283  Biso   1.000  O
  O95      1.0000 0.68254  0.47196  0.00234  Biso   1.000  O
  O96      1.0000 0.48155  0.83405  0.54617  Biso   1.000  O
  O97      1.0000 0.48975  0.18043  0.53883  Biso   1.000  O
  O98      1.0000 0.51970  0.44372  0.24620  Biso   1.000  O
  O99      1.0000 0.22555  0.48773  0.49634  Biso   1.000  O
  O100     1.0000 0.96132  0.18248  0.02076  Biso   1.000  O
  O101     1.0000 0.02150  0.45765  0.33243  Biso   1.000  O
  O102     1.0000 0.72411  0.46921  0.08914  Biso   1.000  O
  O103     1.0000 0.06234  0.69136  0.55453  Biso   1.000  O
  O104     1.0000 0.01967  0.95962  0.25216  Biso   1.000  O
  O105     1.0000 0.31638  0.96979  0.50694  Biso   1.000  O
  O106     1.0000 0.57249  0.68843  0.03471  Biso   1.000  O
  O107     1.0000 0.51372  0.93879  0.33816  Biso   1.000  O
  O108     1.0000 0.80831  0.96062  0.09346  Biso   1.000  O
  O109     1.0000 0.56088  0.77652  0.54270  Biso   1.000  O
  O110     1.0000 0.52421  0.52821  0.83743  Biso   1.000  O
  O111     1.0000 0.81849  0.47118  0.58596  Biso   1.000  O
  O112     1.0000 0.08016  0.79016  0.06268  Biso   1.000  O
  O113     1.0000 0.02520  0.51218  0.75509  Biso   1.000  O
  O114     1.0000 0.31736  0.50164  0.99567  Biso   1.000  O
  O115     1.0000 0.98520  0.26950  0.54061  Biso   1.000  O
  O116     1.0000 0.00953  0.01034  0.83696  Biso   1.000  O
  O117     1.0000 0.73282  0.96614  0.58431  Biso   1.000  O
  O118     1.0000 0.47057  0.28212  0.04750  Biso   1.000  O
  O119     1.0000 0.52303  0.02867  0.75076  Biso   1.000  O
  O120     1.0000 0.22697  0.00104  0.00009  Biso   1.000  O
  O121     1.0000 0.06222  0.46904  0.74553  Biso   1.000  O
  O122     1.0000 0.73341  0.00891  0.54410  Biso   1.000  O
  O123     1.0000 0.54616  0.69477  0.08476  Biso   1.000  O
  O124     1.0000 0.56664  0.48557  0.84020  Biso   1.000  O
  O125     1.0000 0.22309  0.04667  0.03628  Biso   1.000  O
  O126     1.0000 0.01802  0.69012  0.51754  Biso   1.000  O
  O127     1.0000 0.48233  0.98923  0.74699  Biso   1.000  O
  O128     1.0000 0.81834  0.51615  0.54365  Biso   1.000  O
  O129     1.0000 0.00167  0.19289  0.06632  Biso   1.000  O
  O130     1.0000 0.97050  0.96304  0.84007  Biso   1.000  O
  O131     1.0000 0.31913  0.54405  0.03802  Biso   1.000  O
  O132     1.0000 0.53918  0.17962  0.50692  Biso   1.000  O
  O133     1.0000 0.97181  0.49898  0.33363  Biso   1.000  O
  O134     1.0000 0.31612  0.94072  0.56194  Biso   1.000  O
  O135     1.0000 0.51465  0.27814  0.00625  Biso   1.000  O
  O136     1.0000 0.47352  0.47766  0.24642  Biso   1.000  O
  O137     1.0000 0.81611  0.92204  0.04803  Biso   1.000  O
  O138     1.0000 0.03491  0.27097  0.57164  Biso   1.000  O
  O139     1.0000 0.55688  0.98104  0.33787  Biso   1.000  O
  O140     1.0000 0.22935  0.44282  0.53192  Biso   1.000  O
  O141     1.0000 0.04280  0.78087  0.01968  Biso   1.000  O
  O142     1.0000 0.05756  0.00300  0.24604  Biso   1.000  O
  O143     1.0000 0.72924  0.42989  0.04600  Biso   1.000  O
  O144     1.0000 0.52346  0.78279  0.58572  Biso   1.000  O
  O145     1.0000 0.55590  0.49380  0.24484  Biso   1.000  O
  O146     1.0000 0.22252  0.52385  0.54359  Biso   1.000  O
  O147     1.0000 0.51842  0.18592  0.58504  Biso   1.000  O
  O148     1.0000 0.05630  0.50085  0.33436  Biso   1.000  O
  O149     1.0000 0.72593  0.51348  0.04791  Biso   1.000  O
  O150     1.0000 0.00391  0.18518  0.98229  Biso   1.000  O
  O151     1.0000 0.97518  0.99302  0.25197  Biso   1.000  O
  O152     1.0000 0.32114  0.01990  0.53366  Biso   1.000  O
  O153     1.0000 0.01743  0.68105  0.60231  Biso   1.000  O
  O154     1.0000 0.47249  0.98279  0.33990  Biso   1.000  O
  O155     1.0000 0.81194  0.00731  0.04904  Biso   1.000  O
  O156     1.0000 0.52690  0.69533  0.00002  Biso   1.000  O
  O157     1.0000 0.48480  0.48678  0.83630  Biso   1.000  O
  O158     1.0000 0.82196  0.43364  0.54222  Biso   1.000  O
  O159     1.0000 0.52024  0.77828  0.50326  Biso   1.000  O
  O160     1.0000 0.98191  0.47300  0.74764  Biso   1.000  O
  O161     1.0000 0.31553  0.45798  0.03611  Biso   1.000  O
  O162     1.0000 0.03721  0.78930  0.10329  Biso   1.000  O
  O163     1.0000 0.05728  0.97502  0.84113  Biso   1.000  O
  O164     1.0000 0.72796  0.92811  0.54005  Biso   1.000  O
  O165     1.0000 0.01666  0.27793  0.48961  Biso   1.000  O
  O166     1.0000 0.56796  0.98137  0.74699  Biso   1.000  O
  O167     1.0000 0.23065  0.96478  0.04607  Biso   1.000  O
  O168     1.0000 0.50749  0.28177  0.09058  Biso   1.000  O
  O169     1.0000 0.01508  0.04363  0.24082  Biso   1.000  O
  O170     1.0000 0.22187  0.00503  0.08405  Biso   1.000  O
  O171     1.0000 0.04377  0.19408  0.02466  Biso   1.000  O
  O172     1.0000 0.51865  0.02376  0.33576  Biso   1.000  O
  O173     1.0000 0.72610  0.97247  0.49673  Biso   1.000  O
  O174     1.0000 0.57196  0.17779  0.55744  Biso   1.000  O
  O175     1.0000 0.50912  0.52804  0.24078  Biso   1.000  O
  O176     1.0000 0.31863  0.49505  0.08023  Biso   1.000  O
  O177     1.0000 0.49248  0.69861  0.05193  Biso   1.000  O
  O178     1.0000 0.01345  0.54202  0.33768  Biso   1.000  O
  O179     1.0000 0.81698  0.47806  0.50128  Biso   1.000  O
  O180     1.0000 0.97725  0.68120  0.55848  Biso   1.000  O
  O181     1.0000 0.02050  0.92573  0.84069  Biso   1.000  O
  O182     1.0000 0.81063  0.96557  0.00867  Biso   1.000  O
  O183     1.0000 0.99574  0.77743  0.05975  Biso   1.000  O
  O184     1.0000 0.52085  0.94461  0.74676  Biso   1.000  O
  O185     1.0000 0.31748  0.99417  0.58634  Biso   1.000  O
  O186     1.0000 0.48173  0.78535  0.54819  Biso   1.000  O
  O187     1.0000 0.52528  0.44496  0.84321  Biso   1.000  O
  O188     1.0000 0.73152  0.47111  0.00239  Biso   1.000  O
  O189     1.0000 0.55308  0.27500  0.05270  Biso   1.000  O
  O190     1.0000 0.01961  0.42995  0.74214  Biso   1.000  O
  O191     1.0000 0.22662  0.48097  0.58077  Biso   1.000  O
  O192     1.0000 0.07167  0.27519  0.52279  Biso   1.000  O
