data_image0
_cell_length_a       46.7333
_cell_length_b       46.6556
_cell_length_c       46.4764
_cell_angle_alpha    90
_cell_angle_beta     90
_cell_angle_gamma    90

_symmetry_space_group_name_H-M    "P 1"
_symmetry_int_tables_number       1

loop_
  _symmetry_equiv_pos_as_xyz
  'x, y, z'

loop_
  _atom_site_label
  _atom_site_occupancy
  _atom_site_fract_x
  _atom_site_fract_y
  _atom_site_fract_z
  _atom_site_thermal_displace_type
  _atom_site_B_iso_or_equiv
  _atom_site_type_symbol
  C1       1.0000 0.56515  0.00296  0.35319  Biso   1.000  C
  C2       1.0000 0.34078  0.54976  0.03805  Biso   1.000  C
  C3       1.0000 0.00112  0.32497  0.57768  Biso   1.000  C
  C4       1.0000 0.06567  0.99927  0.20548  Biso   1.000  C
  C5       1.0000 0.83269  0.55871  0.51403  Biso   1.000  C
  C6       1.0000 0.51429  0.32657  0.97281  Biso   1.000  C
  C7       1.0000 0.96802  0.50489  0.33764  Biso   1.000  C
  C8       1.0000 0.20206  0.05043  0.03283  Biso   1.000  C
  C9       1.0000 0.50496  0.83226  0.59268  Biso   1.000  C
  C10      1.0000 0.47027  0.49441  0.21777  Biso   1.000  C
  C11      1.0000 0.69370  0.05548  0.53432  Biso   1.000  C
  C12      1.0000 0.02345  0.81893  0.97663  Biso   1.000  C
  C13      1.0000 0.46009  0.01060  0.71444  Biso   1.000  C
  C14      1.0000 0.69287  0.44902  0.01975  Biso   1.000  C
  C15      1.0000 0.01534  0.68212  0.46881  Biso   1.000  C
  C16      1.0000 0.95915  0.98922  0.84966  Biso   1.000  C
  C17      1.0000 0.18919  0.45459  0.54320  Biso   1.000  C
  C18      1.0000 0.51569  0.68514  0.09492  Biso   1.000  C
  C19      1.0000 0.05363  0.48672  0.70536  Biso   1.000  C
  C20      1.0000 0.83659  0.94742  0.03815  Biso   1.000  C
  C21      1.0000 0.51417  0.18541  0.47080  Biso   1.000  C
  C22      1.0000 0.55994  0.51783  0.84364  Biso   1.000  C
  C23      1.0000 0.33539  0.95370  0.52580  Biso   1.000  C
  C24      1.0000 0.01303  0.17709  0.08054  Biso   1.000  C
  C25      1.0000 0.33567  0.06252  0.54115  Biso   1.000  C
  C26      1.0000 0.51383  0.32494  0.08165  Biso   1.000  C
  C27      1.0000 0.07649  0.49904  0.35030  Biso   1.000  C
  C28      1.0000 0.83696  0.05355  0.02592  Biso   1.000  C
  C29      1.0000 0.00384  0.32457  0.46757  Biso   1.000  C
  C30      1.0000 0.57963  0.50199  0.21530  Biso   1.000  C
  C31      1.0000 0.19178  0.56364  0.54860  Biso   1.000  C
  C32      1.0000 0.00283  0.81960  0.08348  Biso   1.000  C
  C33      1.0000 0.45706  0.99703  0.34872  Biso   1.000  C
  C34      1.0000 0.69277  0.55794  0.01897  Biso   1.000  C
  C35      1.0000 0.53308  0.82315  0.48647  Biso   1.000  C
  C36      1.0000 0.95823  0.99328  0.21060  Biso   1.000  C
  C37      1.0000 0.69494  0.94556  0.53112  Biso   1.000  C
  C38      1.0000 0.50976  0.68660  0.98396  Biso   1.000  C
  C39      1.0000 0.94992  0.51141  0.70345  Biso   1.000  C
  C40      1.0000 0.19642  0.94258  0.03266  Biso   1.000  C
  C41      1.0000 0.03365  0.68271  0.57883  Biso   1.000  C
  C42      1.0000 0.45152  0.50583  0.85155  Biso   1.000  C
  C43      1.0000 0.82130  0.45179  0.51887  Biso   1.000  C
  C44      1.0000 0.01264  0.17277  0.96974  Biso   1.000  C
  C45      1.0000 0.56943  0.01575  0.71559  Biso   1.000  C
  C46      1.0000 0.33281  0.44110  0.04762  Biso   1.000  C
  C47      1.0000 0.50872  0.18842  0.58296  Biso   1.000  C
  C48      1.0000 0.06930  0.99122  0.84899  Biso   1.000  C
  C49      1.0000 0.01338  0.04574  0.84651  Biso   1.000  C
  C50      1.0000 0.83298  0.00454  0.08678  Biso   1.000  C
  C51      1.0000 0.06992  0.81471  0.03734  Biso   1.000  C
  C52      1.0000 0.51329  0.06810  0.71783  Biso   1.000  C
  C53      1.0000 0.33342  0.01207  0.47642  Biso   1.000  C
  C54      1.0000 0.57139  0.82368  0.55584  Biso   1.000  C
  C55      1.0000 0.49744  0.56873  0.84845  Biso   1.000  C
  C56      1.0000 0.69114  0.50084  0.07330  Biso   1.000  C
  C57      1.0000 0.46051  0.32218  0.02583  Biso   1.000  C
  C58      1.0000 0.01412  0.55242  0.69962  Biso   1.000  C
  C59      1.0000 0.19334  0.50940  0.48887  Biso   1.000  C
  C60      1.0000 0.94723  0.32740  0.52265  Biso   1.000  C
  C61      1.0000 0.01214  0.94317  0.21034  Biso   1.000  C
  C62      1.0000 0.20058  0.99328  0.97490  Biso   1.000  C
  C63      1.0000 0.96335  0.18065  0.02737  Biso   1.000  C
  C64      1.0000 0.51271  0.94657  0.35809  Biso   1.000  C
  C65      1.0000 0.69239  0.99784  0.58412  Biso   1.000  C
  C66      1.0000 0.45465  0.19454  0.51947  Biso   1.000  C
  C67      1.0000 0.52442  0.44588  0.21924  Biso   1.000  C
  C68      1.0000 0.33532  0.49329  0.98689  Biso   1.000  C
  C69      1.0000 0.56790  0.68647  0.03637  Biso   1.000  C
  C70      1.0000 0.02002  0.45001  0.34286  Biso   1.000  C
  C71      1.0000 0.82766  0.50895  0.57046  Biso   1.000  C
  C72      1.0000 0.07400  0.68834  0.51486  Biso   1.000  C
  C73      1.0000 0.02269  0.55501  0.34102  Biso   1.000  C
  C74      1.0000 0.33879  0.00296  0.58514  Biso   1.000  C
  C75      1.0000 0.56968  0.32507  0.02912  Biso   1.000  C
  C76      1.0000 0.52192  0.55459  0.21956  Biso   1.000  C
  C77      1.0000 0.83161  0.99462  0.97731  Biso   1.000  C
  C78      1.0000 0.05865  0.32889  0.52646  Biso   1.000  C
  C79      1.0000 0.51301  0.05340  0.34440  Biso   1.000  C
  C80      1.0000 0.19318  0.49809  0.59804  Biso   1.000  C
  C81      1.0000 0.96043  0.82335  0.02526  Biso   1.000  C
  C82      1.0000 0.01120  0.04974  0.20433  Biso   1.000  C
  C83      1.0000 0.69259  0.50497  0.96358  Biso   1.000  C
  C84      1.0000 0.46575  0.82832  0.52582  Biso   1.000  C
  C85      1.0000 0.99483  0.44591  0.70737  Biso   1.000  C
  C86      1.0000 0.69767  0.00510  0.47768  Biso   1.000  C
  C87      1.0000 0.46006  0.68366  0.04471  Biso   1.000  C
  C88      1.0000 0.50719  0.45767  0.84996  Biso   1.000  C
  C89      1.0000 0.20028  0.99899  0.08555  Biso   1.000  C
  C90      1.0000 0.96918  0.68136  0.53431  Biso   1.000  C
  C91      1.0000 0.52575  0.96110  0.71428  Biso   1.000  C
  C92      1.0000 0.83372  0.50247  0.45964  Biso   1.000  C
  C93      1.0000 0.07105  0.17444  0.02251  Biso   1.000  C
  C94      1.0000 0.01454  0.93859  0.84694  Biso   1.000  C
  C95      1.0000 0.33966  0.49744  0.09650  Biso   1.000  C
  C96      1.0000 0.56587  0.18303  0.53670  Biso   1.000  C
  C97      1.0000 0.69263  0.08758  0.53373  Biso   1.000  C
  C98      1.0000 0.50780  0.68394  0.12569  Biso   1.000  C
  C99      1.0000 0.08498  0.48329  0.71181  Biso   1.000  C
  C100     1.0000 0.20240  0.08207  0.03624  Biso   1.000  C
  C101     1.0000 0.01410  0.68357  0.43623  Biso   1.000  C
  C102     1.0000 0.59142  0.51831  0.84161  Biso   1.000  C
  C103     1.0000 0.83396  0.59055  0.51908  Biso   1.000  C
  C104     1.0000 0.00987  0.17781  0.11299  Biso   1.000  C
  C105     1.0000 0.42757  0.01147  0.71432  Biso   1.000  C
  C106     1.0000 0.34099  0.58151  0.03755  Biso   1.000  C
  C107     1.0000 0.51077  0.18464  0.43808  Biso   1.000  C
  C108     1.0000 0.92581  0.99093  0.84772  Biso   1.000  C
  C109     1.0000 0.33435  0.92321  0.52633  Biso   1.000  C
  C110     1.0000 0.52316  0.32792  0.94239  Biso   1.000  C
  C111     1.0000 0.93511  0.50530  0.33551  Biso   1.000  C
  C112     1.0000 0.83596  0.91600  0.04090  Biso   1.000  C
  C113     1.0000 0.99904  0.32197  0.61083  Biso   1.000  C
  C114     1.0000 0.43847  0.49065  0.22134  Biso   1.000  C
  C115     1.0000 0.18737  0.42169  0.54316  Biso   1.000  C
  C116     1.0000 0.02907  0.81812  0.94403  Biso   1.000  C
  C117     1.0000 0.59658  0.99888  0.35584  Biso   1.000  C
  C118     1.0000 0.69408  0.41692  0.02038  Biso   1.000  C
  C119     1.0000 0.50094  0.83537  0.62403  Biso   1.000  C
  C120     1.0000 0.09764  0.99956  0.20643  Biso   1.000  C
  C121     1.0000 0.82994  0.99843  0.11884  Biso   1.000  C
  C122     1.0000 0.10157  0.81580  0.03806  Biso   1.000  C
  C123     1.0000 0.01399  0.07739  0.84352  Biso   1.000  C
  C124     1.0000 0.33102  0.00871  0.44484  Biso   1.000  C
  C125     1.0000 0.60337  0.82219  0.55709  Biso   1.000  C
  C126     1.0000 0.51900  0.09858  0.71483  Biso   1.000  C
  C127     1.0000 0.69254  0.49612  0.10422  Biso   1.000  C
  C128     1.0000 0.42717  0.32000  0.02894  Biso   1.000  C
  C129     1.0000 0.49756  0.60200  0.84905  Biso   1.000  C
  C130     1.0000 0.19707  0.50408  0.45697  Biso   1.000  C
  C131     1.0000 0.91491  0.32509  0.52252  Biso   1.000  C
  C132     1.0000 0.02125  0.58395  0.69916  Biso   1.000  C
  C133     1.0000 0.19991  0.99533  0.94203  Biso   1.000  C
  C134     1.0000 0.93110  0.18105  0.02906  Biso   1.000  C
  C135     1.0000 0.00545  0.91156  0.21306  Biso   1.000  C
  C136     1.0000 0.69291  0.99980  0.61664  Biso   1.000  C
  C137     1.0000 0.42253  0.19492  0.52058  Biso   1.000  C
  C138     1.0000 0.51109  0.91391  0.36033  Biso   1.000  C
  C139     1.0000 0.33275  0.49414  0.95427  Biso   1.000  C
  C140     1.0000 0.60039  0.68546  0.03607  Biso   1.000  C
  C141     1.0000 0.51983  0.41358  0.21832  Biso   1.000  C
  C142     1.0000 0.82651  0.51187  0.60259  Biso   1.000  C
  C143     1.0000 0.10596  0.69089  0.51347  Biso   1.000  C
  C144     1.0000 0.01717  0.41747  0.34274  Biso   1.000  C
  C145     1.0000 0.34058  0.49849  0.12892  Biso   1.000  C
  C146     1.0000 0.08932  0.32848  0.53075  Biso   1.000  C
  C147     1.0000 0.51903  0.08494  0.34338  Biso   1.000  C
  C148     1.0000 0.83625  0.49536  0.42834  Biso   1.000  C
  C149     1.0000 0.60086  0.32312  0.02807  Biso   1.000  C
  C150     1.0000 0.01561  0.08082  0.20477  Biso   1.000  C
  C151     1.0000 0.19937  0.00142  0.11763  Biso   1.000  C
  C152     1.0000 0.43302  0.82981  0.51998  Biso   1.000  C
  C153     1.0000 0.02123  0.58830  0.34077  Biso   1.000  C
  C154     1.0000 0.69737  0.01334  0.44666  Biso   1.000  C
  C155     1.0000 0.92794  0.82448  0.01957  Biso   1.000  C
  C156     1.0000 0.51892  0.58743  0.21951  Biso   1.000  C
  C157     1.0000 0.69205  0.50898  0.93135  Biso   1.000  C
  C158     1.0000 0.93655  0.68109  0.53207  Biso   1.000  C
  C159     1.0000 0.52868  0.92896  0.71501  Biso   1.000  C
  C160     1.0000 0.19152  0.48818  0.62952  Biso   1.000  C
  C161     1.0000 0.42908  0.68254  0.04915  Biso   1.000  C
  C162     1.0000 0.01520  0.90599  0.84543  Biso   1.000  C
  C163     1.0000 0.82960  0.99735  0.94567  Biso   1.000  C
  C164     1.0000 0.59694  0.18311  0.54319  Biso   1.000  C
  C165     1.0000 0.99199  0.41268  0.70784  Biso   1.000  C
  C166     1.0000 0.33736  0.99470  0.61539  Biso   1.000  C
  C167     1.0000 0.10185  0.17421  0.02147  Biso   1.000  C
  C168     1.0000 0.50402  0.42567  0.85034  Biso   1.000  C
  C169     1.0000 0.99409  0.81903  0.11466  Biso   1.000  C
  C170     1.0000 0.10230  0.99207  0.84785  Biso   1.000  C
  C171     1.0000 0.83693  0.08582  0.02721  Biso   1.000  C
  C172     1.0000 0.53056  0.82187  0.45513  Biso   1.000  C
  C173     1.0000 0.60025  0.01073  0.71374  Biso   1.000  C
  C174     1.0000 0.33550  0.09457  0.54532  Biso   1.000  C
  C175     1.0000 0.50905  0.32443  0.11412  Biso   1.000  C
  C176     1.0000 0.41824  0.50164  0.85248  Biso   1.000  C
  C177     1.0000 0.69347  0.59041  0.01716  Biso   1.000  C
  C178     1.0000 0.00277  0.32466  0.43534  Biso   1.000  C
  C179     1.0000 0.91780  0.51866  0.70238  Biso   1.000  C
  C180     1.0000 0.19321  0.59539  0.55215  Biso   1.000  C
  C181     1.0000 0.00892  0.17358  0.93670  Biso   1.000  C
  C182     1.0000 0.92580  0.99629  0.21210  Biso   1.000  C
  C183     1.0000 0.19688  0.91072  0.03991  Biso   1.000  C
  C184     1.0000 0.51329  0.18951  0.61509  Biso   1.000  C
  C185     1.0000 0.42508  0.99488  0.34853  Biso   1.000  C
  C186     1.0000 0.69662  0.91392  0.53557  Biso   1.000  C
  C187     1.0000 0.50320  0.68748  0.95193  Biso   1.000  C
  C188     1.0000 0.61125  0.50203  0.21174  Biso   1.000  C
  C189     1.0000 0.33205  0.40927  0.04577  Biso   1.000  C
  C190     1.0000 0.03553  0.68296  0.61100  Biso   1.000  C
  C191     1.0000 0.10837  0.49668  0.35548  Biso   1.000  C
  C192     1.0000 0.81926  0.42022  0.52308  Biso   1.000  C
  C193     1.0000 0.85768  0.99589  0.93068  Biso   1.000  C
  C194     1.0000 0.91181  0.85126  0.02316  Biso   1.000  C
  C195     1.0000 0.01799  0.89209  0.87274  Biso   1.000  C
  C196     1.0000 0.36223  0.00382  0.63161  Biso   1.000  C
  C197     1.0000 0.41578  0.85684  0.52273  Biso   1.000  C
  C198     1.0000 0.52324  0.91160  0.68972  Biso   1.000  C
  C199     1.0000 0.66456  0.51415  0.91630  Biso   1.000  C
  C200     1.0000 0.61787  0.34967  0.02216  Biso   1.000  C
  C201     1.0000 0.50686  0.40922  0.87693  Biso   1.000  C
  C202     1.0000 0.16285  0.48577  0.64322  Biso   1.000  C
  C203     1.0000 0.10658  0.35622  0.53103  Biso   1.000  C
  C204     1.0000 0.99487  0.39645  0.68080  Biso   1.000  C
  C205     1.0000 0.17222  0.00471  0.13083  Biso   1.000  C
  C206     1.0000 0.11857  0.14723  0.02664  Biso   1.000  C
  C207     1.0000 0.01343  0.09590  0.17797  Biso   1.000  C
  C208     1.0000 0.67082  0.01262  0.43147  Biso   1.000  C
  C209     1.0000 0.61457  0.15668  0.53977  Biso   1.000  C
  C210     1.0000 0.51966  0.10078  0.37207  Biso   1.000  C
  C211     1.0000 0.36822  0.49449  0.14285  Biso   1.000  C
  C212     1.0000 0.41508  0.65613  0.04248  Biso   1.000  C
  C213     1.0000 0.51606  0.60359  0.19231  Biso   1.000  C
  C214     1.0000 0.86474  0.49793  0.41340  Biso   1.000  C
  C215     1.0000 0.91784  0.65527  0.52906  Biso   1.000  C
  C216     1.0000 0.01651  0.60388  0.36777  Biso   1.000  C
  C217     1.0000 0.12042  0.99312  0.87379  Biso   1.000  C
  C218     1.0000 0.86349  0.10259  0.02618  Biso   1.000  C
  C219     1.0000 0.99659  0.84522  0.13198  Biso   1.000  C
  C220     1.0000 0.61656  0.00774  0.68710  Biso   1.000  C
  C221     1.0000 0.36193  0.11240  0.54174  Biso   1.000  C
  C222     1.0000 0.52698  0.84701  0.43894  Biso   1.000  C
  C223     1.0000 0.40317  0.50628  0.87994  Biso   1.000  C
  C224     1.0000 0.66695  0.60616  0.01828  Biso   1.000  C
  C225     1.0000 0.51197  0.35097  0.13187  Biso   1.000  C
  C226     1.0000 0.90234  0.51902  0.67370  Biso   1.000  C
  C227     1.0000 0.16730  0.61168  0.54348  Biso   1.000  C
  C228     1.0000 0.00636  0.35128  0.41982  Biso   1.000  C
  C229     1.0000 0.90963  0.99483  0.18545  Biso   1.000  C
  C230     1.0000 0.17009  0.89401  0.04194  Biso   1.000  C
  C231     1.0000 0.01430  0.14683  0.92089  Biso   1.000  C
  C232     1.0000 0.40953  0.99614  0.37696  Biso   1.000  C
  C233     1.0000 0.66965  0.89819  0.54111  Biso   1.000  C
  C234     1.0000 0.51524  0.16274  0.63065  Biso   1.000  C
  C235     1.0000 0.62256  0.50111  0.18284  Biso   1.000  C
  C236     1.0000 0.35918  0.39397  0.04001  Biso   1.000  C
  C237     1.0000 0.50375  0.66182  0.93445  Biso   1.000  C
  C238     1.0000 0.12046  0.50099  0.38511  Biso   1.000  C
  C239     1.0000 0.84521  0.40350  0.52203  Biso   1.000  C
  C240     1.0000 0.03506  0.65626  0.62514  Biso   1.000  C
  C241     1.0000 0.60909  0.51570  0.86888  Biso   1.000  C
  C242     1.0000 0.86207  0.60593  0.52140  Biso   1.000  C
  C243     1.0000 0.50637  0.86139  0.64031  Biso   1.000  C
  C244     1.0000 0.10494  0.48555  0.68854  Biso   1.000  C
  C245     1.0000 0.36749  0.59750  0.03992  Biso   1.000  C
  C246     1.0000 0.02533  0.84462  0.92702  Biso   1.000  C
  C247     1.0000 0.90914  0.99280  0.87605  Biso   1.000  C
  C248     1.0000 0.66595  0.10490  0.53562  Biso   1.000  C
  C249     1.0000 0.99380  0.34749  0.62771  Biso   1.000  C
  C250     1.0000 0.41185  0.01015  0.68672  Biso   1.000  C
  C251     1.0000 0.17463  0.09784  0.03209  Biso   1.000  C
  C252     1.0000 0.51712  0.35523  0.92742  Biso   1.000  C
  C253     1.0000 0.42072  0.49126  0.19445  Biso   1.000  C
  C254     1.0000 0.15903  0.40514  0.53992  Biso   1.000  C
  C255     1.0000 0.51280  0.15672  0.42425  Biso   1.000  C
  C256     1.0000 0.91824  0.50120  0.36221  Biso   1.000  C
  C257     1.0000 0.66725  0.40048  0.02341  Biso   1.000  C
  C258     1.0000 0.00981  0.15112  0.12905  Biso   1.000  C
  C259     1.0000 0.11559  0.99957  0.18042  Biso   1.000  C
  C260     1.0000 0.36189  0.90752  0.52527  Biso   1.000  C
  C261     1.0000 0.01555  0.65649  0.42046  Biso   1.000  C
  C262     1.0000 0.61423  0.00744  0.38121  Biso   1.000  C
  C263     1.0000 0.86183  0.89896  0.03524  Biso   1.000  C
  C264     1.0000 0.50871  0.65719  0.14166  Biso   1.000  C
  C265     1.0000 0.01635  0.09384  0.87118  Biso   1.000  C
  C266     1.0000 0.85697  0.99596  0.13604  Biso   1.000  C
  C267     1.0000 0.11755  0.84267  0.03513  Biso   1.000  C
  C268     1.0000 0.51881  0.11334  0.68652  Biso   1.000  C
  C269     1.0000 0.35813  0.00167  0.42951  Biso   1.000  C
  C270     1.0000 0.62004  0.84864  0.55304  Biso   1.000  C
  C271     1.0000 0.49736  0.61595  0.87737  Biso   1.000  C
  C272     1.0000 0.66824  0.49825  0.12387  Biso   1.000  C
  C273     1.0000 0.40902  0.34510  0.03419  Biso   1.000  C
  C274     1.0000 0.02458  0.60086  0.67345  Biso   1.000  C
  C275     1.0000 0.17265  0.49947  0.43908  Biso   1.000  C
  C276     1.0000 0.89881  0.35272  0.51985  Biso   1.000  C
  C277     1.0000 0.00270  0.89609  0.18467  Biso   1.000  C
  C278     1.0000 0.17228  0.99770  0.92511  Biso   1.000  C
  C279     1.0000 0.91541  0.15458  0.02723  Biso   1.000  C
  C280     1.0000 0.51565  0.89870  0.38895  Biso   1.000  C
  C281     1.0000 0.66717  0.00079  0.63541  Biso   1.000  C
  C282     1.0000 0.40896  0.16695  0.52471  Biso   1.000  C
  C283     1.0000 0.52201  0.39900  0.18929  Biso   1.000  C
  C284     1.0000 0.35685  0.49616  0.93477  Biso   1.000  C
  C285     1.0000 0.61555  0.65880  0.02669  Biso   1.000  C
  C286     1.0000 0.01376  0.40182  0.36949  Biso   1.000  C
  C287     1.0000 0.85319  0.51297  0.61915  Biso   1.000  C
  C288     1.0000 0.11995  0.66392  0.51989  Biso   1.000  C
  C289     1.0000 0.36121  0.87672  0.52656  Biso   1.000  C
  C290     1.0000 0.51897  0.35689  0.89691  Biso   1.000  C
  C291     1.0000 0.88723  0.50016  0.36213  Biso   1.000  C
  C292     1.0000 0.86050  0.86860  0.03473  Biso   1.000  C
  C293     1.0000 0.99515  0.34388  0.65961  Biso   1.000  C
  C294     1.0000 0.38882  0.49290  0.19610  Biso   1.000  C
  C295     1.0000 0.15873  0.37337  0.53934  Biso   1.000  C
  C296     1.0000 0.02700  0.84193  0.89533  Biso   1.000  C
  C297     1.0000 0.64486  0.00395  0.38157  Biso   1.000  C
  C298     1.0000 0.66909  0.37019  0.02394  Biso   1.000  C
  C299     1.0000 0.50836  0.86044  0.67130  Biso   1.000  C
  C300     1.0000 0.14748  0.00144  0.18224  Biso   1.000  C
  C301     1.0000 0.66673  0.13613  0.53842  Biso   1.000  C
  C302     1.0000 0.51066  0.65695  0.17212  Biso   1.000  C
  C303     1.0000 0.13589  0.47984  0.69405  Biso   1.000  C
  C304     1.0000 0.17308  0.12894  0.03125  Biso   1.000  C
  C305     1.0000 0.01219  0.65622  0.38870  Biso   1.000  C
  C306     1.0000 0.64023  0.51449  0.86496  Biso   1.000  C
  C307     1.0000 0.86272  0.63705  0.52676  Biso   1.000  C
  C308     1.0000 0.01085  0.15173  0.16029  Biso   1.000  C
  C309     1.0000 0.38090  0.00280  0.68503  Biso   1.000  C
  C310     1.0000 0.36396  0.63001  0.04133  Biso   1.000  C
  C311     1.0000 0.51162  0.15401  0.39143  Biso   1.000  C
  C312     1.0000 0.87921  0.99571  0.87718  Biso   1.000  C
  C313     1.0000 0.17372  0.49712  0.40830  Biso   1.000  C
  C314     1.0000 0.37824  0.16704  0.53146  Biso   1.000  C
  C315     1.0000 0.51657  0.36785  0.18751  Biso   1.000  C
  C316     1.0000 0.67233  0.49630  0.15577  Biso   1.000  C
  C317     1.0000 0.88349  0.15609  0.02779  Biso   1.000  C
  C318     1.0000 0.00913  0.37141  0.36609  Biso   1.000  C
  C319     1.0000 0.35763  0.00370  0.39753  Biso   1.000  C
  C320     1.0000 0.15102  0.66306  0.52406  Biso   1.000  C
  C321     1.0000 0.99992  0.86547  0.18579  Biso   1.000  C
  C322     1.0000 0.85738  0.99190  0.16650  Biso   1.000  C
  C323     1.0000 0.64625  0.65953  0.02441  Biso   1.000  C
  C324     1.0000 0.51616  0.86753  0.38703  Biso   1.000  C
  C325     1.0000 0.84990  0.51562  0.65079  Biso   1.000  C
  C326     1.0000 0.65140  0.84760  0.55329  Biso   1.000  C
  C327     1.0000 0.49883  0.64702  0.87963  Biso   1.000  C
  C328     1.0000 0.35481  0.49334  0.90312  Biso   1.000  C
  C329     1.0000 0.14903  0.84126  0.04095  Biso   1.000  C
  C330     1.0000 0.03116  0.63168  0.67737  Biso   1.000  C
  C331     1.0000 0.66873  0.00617  0.66519  Biso   1.000  C
  C332     1.0000 0.86801  0.35222  0.52304  Biso   1.000  C
  C333     1.0000 0.01578  0.12518  0.86857  Biso   1.000  C
  C334     1.0000 0.17337  0.99528  0.89266  Biso   1.000  C
  C335     1.0000 0.37910  0.34141  0.03833  Biso   1.000  C
  C336     1.0000 0.51837  0.14395  0.68444  Biso   1.000  C
  C337     1.0000 0.66282  0.51433  0.88594  Biso   1.000  C
  C338     1.0000 0.88596  0.65834  0.53031  Biso   1.000  C
  C339     1.0000 0.51745  0.88050  0.69196  Biso   1.000  C
  C340     1.0000 0.16077  0.48087  0.67512  Biso   1.000  C
  C341     1.0000 0.38385  0.65313  0.04307  Biso   1.000  C
  C342     1.0000 0.02214  0.86195  0.87355  Biso   1.000  C
  C343     1.0000 0.85776  0.99661  0.89877  Biso   1.000  C
  C344     1.0000 0.64590  0.15744  0.54049  Biso   1.000  C
  C345     1.0000 0.99539  0.36534  0.68166  Biso   1.000  C
  C346     1.0000 0.36103  0.99937  0.66297  Biso   1.000  C
  C347     1.0000 0.14946  0.14873  0.02703  Biso   1.000  C
  C348     1.0000 0.51312  0.37810  0.87606  Biso   1.000  C
  C349     1.0000 0.36630  0.49275  0.17474  Biso   1.000  C
  C350     1.0000 0.13689  0.35358  0.53580  Biso   1.000  C
  C351     1.0000 0.51484  0.13116  0.37137  Biso   1.000  C
  C352     1.0000 0.86490  0.49665  0.38297  Biso   1.000  C
  C353     1.0000 0.64886  0.34902  0.02492  Biso   1.000  C
  C354     1.0000 0.01191  0.12893  0.18053  Biso   1.000  C
  C355     1.0000 0.17168  0.00100  0.16278  Biso   1.000  C
  C356     1.0000 0.38363  0.85597  0.52347  Biso   1.000  C
  C357     1.0000 0.01217  0.63497  0.36656  Biso   1.000  C
  C358     1.0000 0.66834  0.00610  0.40172  Biso   1.000  C
  C359     1.0000 0.88163  0.84776  0.02789  Biso   1.000  C
  C360     1.0000 0.51382  0.63588  0.19370  Biso   1.000  C
  C361     1.0000 0.01611  0.14748  0.88936  Biso   1.000  C
  C362     1.0000 0.87947  0.99112  0.18710  Biso   1.000  C
  C363     1.0000 0.17091  0.86232  0.04172  Biso   1.000  C
  C364     1.0000 0.51722  0.16472  0.66127  Biso   1.000  C
  C365     1.0000 0.37816  0.00053  0.37604  Biso   1.000  C
  C366     1.0000 0.67256  0.86781  0.54825  Biso   1.000  C
  C367     1.0000 0.50113  0.66614  0.90351  Biso   1.000  C
  C368     1.0000 0.65357  0.49673  0.18112  Biso   1.000  C
  C369     1.0000 0.35883  0.36308  0.04257  Biso   1.000  C
  C370     1.0000 0.03489  0.65448  0.65718  Biso   1.000  C
  C371     1.0000 0.15320  0.49778  0.38515  Biso   1.000  C
  C372     1.0000 0.84525  0.37360  0.52499  Biso   1.000  C
  C373     1.0000 0.99773  0.84333  0.16337  Biso   1.000  C
  C374     1.0000 0.15154  0.99332  0.87196  Biso   1.000  C
  C375     1.0000 0.86106  0.13466  0.02774  Biso   1.000  C
  C376     1.0000 0.52040  0.84539  0.40815  Biso   1.000  C
  C377     1.0000 0.64864  0.00783  0.68859  Biso   1.000  C
  C378     1.0000 0.35802  0.14398  0.53812  Biso   1.000  C
  C379     1.0000 0.51200  0.34862  0.16382  Biso   1.000  C
  C380     1.0000 0.37295  0.49852  0.88047  Biso   1.000  C
  C381     1.0000 0.66805  0.63821  0.02137  Biso   1.000  C
  C382     1.0000 0.00571  0.35091  0.38778  Biso   1.000  C
  C383     1.0000 0.87087  0.51769  0.67306  Biso   1.000  C
  C384     1.0000 0.17023  0.64162  0.53457  Biso   1.000  C
  C385     1.0000 0.19956  0.14520  0.03232  Biso   1.000  C
  C386     1.0000 0.00980  0.17766  0.17794  Biso   1.000  C
  C387     1.0000 0.16097  0.99725  0.21004  Biso   1.000  C
  C388     1.0000 0.69471  0.15068  0.53929  Biso   1.000  C
  C389     1.0000 0.50767  0.18017  0.37450  Biso   1.000  C
  C390     1.0000 0.66015  0.99803  0.35408  Biso   1.000  C
  C391     1.0000 0.33532  0.64333  0.04312  Biso   1.000  C
  C392     1.0000 0.50892  0.68195  0.18914  Biso   1.000  C
  C393     1.0000 0.37481  0.49289  0.22404  Biso   1.000  C
  C394     1.0000 0.83687  0.65334  0.52885  Biso   1.000  C
  C395     1.0000 0.00570  0.68351  0.37300  Biso   1.000  C
  C396     1.0000 0.87203  0.49906  0.33395  Biso   1.000  C
  C397     1.0000 0.83450  0.85295  0.03850  Biso   1.000  C
  C398     1.0000 0.03073  0.81465  0.88062  Biso   1.000  C
  C399     1.0000 0.86299  0.99493  0.84922  Biso   1.000  C
  C400     1.0000 0.33528  0.86042  0.52543  Biso   1.000  C
  C401     1.0000 0.50454  0.83446  0.68859  Biso   1.000  C
  C402     1.0000 0.36571  0.99918  0.71249  Biso   1.000  C
  C403     1.0000 0.69561  0.35452  0.02366  Biso   1.000  C
  C404     1.0000 0.52372  0.33067  0.88072  Biso   1.000  C
  C405     1.0000 0.65461  0.51638  0.83747  Biso   1.000  C
  C406     1.0000 0.18514  0.35757  0.54217  Biso   1.000  C
  C407     1.0000 0.99831  0.31745  0.67544  Biso   1.000  C
  C408     1.0000 0.14749  0.47481  0.72218  Biso   1.000  C
  C409     1.0000 0.16594  0.98994  0.84497  Biso   1.000  C
  C410     1.0000 0.83478  0.14997  0.03048  Biso   1.000  C
  C411     1.0000 0.99514  0.81620  0.17665  Biso   1.000  C
  C412     1.0000 0.66564  0.01043  0.71491  Biso   1.000  C
  C413     1.0000 0.33032  0.15776  0.54089  Biso   1.000  C
  C414     1.0000 0.52000  0.81860  0.39213  Biso   1.000  C
  C415     1.0000 0.35476  0.49374  0.85450  Biso   1.000  C
  C416     1.0000 0.69518  0.65370  0.02136  Biso   1.000  C
  C417     1.0000 0.50791  0.32150  0.17776  Biso   1.000  C
  C418     1.0000 0.85422  0.51876  0.70003  Biso   1.000  C
  C419     1.0000 0.19763  0.65595  0.53475  Biso   1.000  C
  C420     1.0000 0.00105  0.32347  0.37192  Biso   1.000  C
  C421     1.0000 0.86461  0.99168  0.21450  Biso   1.000  C
  C422     1.0000 0.19768  0.84578  0.04230  Biso   1.000  C
  C423     1.0000 0.01331  0.17477  0.87298  Biso   1.000  C
  C424     1.0000 0.36235  0.99886  0.34893  Biso   1.000  C
  C425     1.0000 0.69957  0.85203  0.54677  Biso   1.000  C
  C426     1.0000 0.51837  0.19216  0.67693  Biso   1.000  C
  C427     1.0000 0.67252  0.49235  0.20454  Biso   1.000  C
  C428     1.0000 0.33320  0.34775  0.04544  Biso   1.000  C
  C429     1.0000 0.50131  0.69413  0.88963  Biso   1.000  C
  C430     1.0000 0.17150  0.49160  0.36007  Biso   1.000  C
  C431     1.0000 0.81907  0.35733  0.53000  Biso   1.000  C
  C432     1.0000 0.03791  0.67987  0.67577  Biso   1.000  C
  C433     1.0000 0.01482  0.14006  0.84065  Biso   1.000  C
  C434     1.0000 0.82986  0.99272  0.18238  Biso   1.000  C
  C435     1.0000 0.16546  0.81369  0.04360  Biso   1.000  C
  C436     1.0000 0.51850  0.16165  0.71093  Biso   1.000  C
  C437     1.0000 0.33051  0.00534  0.38289  Biso   1.000  C
  C438     1.0000 0.66628  0.82090  0.55549  Biso   1.000  C
  C439     1.0000 0.49876  0.66526  0.85380  Biso   1.000  C
  C440     1.0000 0.70040  0.49249  0.16766  Biso   1.000  C
  C441     1.0000 0.36428  0.31395  0.03945  Biso   1.000  C
  C442     1.0000 0.03324  0.64475  0.70580  Biso   1.000  C
  C443     1.0000 0.20197  0.49511  0.39432  Biso   1.000  C
  C444     1.0000 0.85236  0.32495  0.52555  Biso   1.000  C
  C445     1.0000 0.99857  0.84895  0.21220  Biso   1.000  C
  C446     1.0000 0.19990  0.99235  0.87679  Biso   1.000  C
  C447     1.0000 0.86710  0.18200  0.03174  Biso   1.000  C
  C448     1.0000 0.51235  0.85189  0.35984  Biso   1.000  C
  C449     1.0000 0.69729  0.00988  0.68006  Biso   1.000  C
  C450     1.0000 0.36010  0.19358  0.53107  Biso   1.000  C
  C451     1.0000 0.51416  0.35113  0.21389  Biso   1.000  C
  C452     1.0000 0.32700  0.48870  0.89057  Biso   1.000  C
  C453     1.0000 0.66273  0.68667  0.02926  Biso   1.000  C
  C454     1.0000 0.00805  0.35556  0.33915  Biso   1.000  C
  C455     1.0000 0.82278  0.51483  0.66607  Biso   1.000  C
  C456     1.0000 0.16767  0.68802  0.52024  Biso   1.000  C
  C457     1.0000 0.00963  0.65082  0.33937  Biso   1.000  C
  C458     1.0000 0.33441  0.99266  0.67790  Biso   1.000  C
  C459     1.0000 0.66421  0.32291  0.02736  Biso   1.000  C
  C460     1.0000 0.51370  0.65124  0.22085  Biso   1.000  C
  C461     1.0000 0.83044  0.99588  0.88336  Biso   1.000  C
  C462     1.0000 0.15258  0.32658  0.53575  Biso   1.000  C
  C463     1.0000 0.51146  0.14523  0.34340  Biso   1.000  C
  C464     1.0000 0.18647  0.47804  0.69378  Biso   1.000  C
  C465     1.0000 0.86753  0.82051  0.02878  Biso   1.000  C
  C466     1.0000 0.01440  0.14342  0.20797  Biso   1.000  C
  C467     1.0000 0.68812  0.51171  0.86894  Biso   1.000  C
  C468     1.0000 0.36916  0.82894  0.52347  Biso   1.000  C
  C469     1.0000 0.99589  0.34927  0.70876  Biso   1.000  C
  C470     1.0000 0.69360  0.00199  0.38497  Biso   1.000  C
  C471     1.0000 0.36628  0.67837  0.04659  Biso   1.000  C
  C472     1.0000 0.51358  0.36224  0.84754  Biso   1.000  C
  C473     1.0000 0.19675  0.99815  0.18068  Biso   1.000  C
  C474     1.0000 0.87130  0.68676  0.53464  Biso   1.000  C
  C475     1.0000 0.51711  0.86577  0.71966  Biso   1.000  C
  C476     1.0000 0.83825  0.49406  0.36567  Biso   1.000  C
  C477     1.0000 0.16467  0.17702  0.02616  Biso   1.000  C
  C478     1.0000 0.02436  0.84571  0.84757  Biso   1.000  C
  C479     1.0000 0.34043  0.49506  0.19175  Biso   1.000  C
  C480     1.0000 0.66125  0.18354  0.54163  Biso   1.000  C
  C481     1.0000 0.38572  0.80259  0.51815  Biso   1.000  C
  C482     1.0000 0.50673  0.37966  0.82129  Biso   1.000  C
  C483     1.0000 0.81147  0.48808  0.37947  Biso   1.000  C
  C484     1.0000 0.88359  0.79479  0.02264  Biso   1.000  C
  C485     1.0000 0.99065  0.36691  0.73416  Biso   1.000  C
  C486     1.0000 0.31476  0.50006  0.17584  Biso   1.000  C
  C487     1.0000 0.13632  0.30078  0.53312  Biso   1.000  C
  C488     1.0000 0.02034  0.85867  0.82020  Biso   1.000  C
  C489     1.0000 0.72150  0.00629  0.39965  Biso   1.000  C
  C490     1.0000 0.64766  0.29553  0.03059  Biso   1.000  C
  C491     1.0000 0.52296  0.88162  0.74627  Biso   1.000  C
  C492     1.0000 0.22534  0.99755  0.16775  Biso   1.000  C
  C493     1.0000 0.64449  0.20928  0.54792  Biso   1.000  C
  C494     1.0000 0.51857  0.63489  0.24627  Biso   1.000  C
  C495     1.0000 0.21430  0.47836  0.68039  Biso   1.000  C
  C496     1.0000 0.14667  0.20220  0.01954  Biso   1.000  C
  C497     1.0000 0.01214  0.63554  0.31225  Biso   1.000  C
  C498     1.0000 0.71558  0.50490  0.88187  Biso   1.000  C
  C499     1.0000 0.88868  0.71209  0.54111  Biso   1.000  C
  C500     1.0000 0.02151  0.12727  0.23414  Biso   1.000  C
  C501     1.0000 0.30860  0.98480  0.66024  Biso   1.000  C
  C502     1.0000 0.38014  0.70540  0.05435  Biso   1.000  C
  C503     1.0000 0.51263  0.12986  0.31538  Biso   1.000  C
  C504     1.0000 0.80267  0.99609  0.89889  Biso   1.000  C
  C505     1.0000 0.63760  0.51909  0.81101  Biso   1.000  C
  C506     1.0000 0.80942  0.63927  0.52521  Biso   1.000  C
  C507     1.0000 0.49571  0.80876  0.67232  Biso   1.000  C
  C508     1.0000 0.12747  0.47581  0.74722  Biso   1.000  C
  C509     1.0000 0.30881  0.62748  0.03997  Biso   1.000  C
  C510     1.0000 0.03342  0.78841  0.89804  Biso   1.000  C
  C511     1.0000 0.87909  0.99235  0.82179  Biso   1.000  C
  C512     1.0000 0.72149  0.13282  0.53546  Biso   1.000  C
  C513     1.0000 0.00416  0.29366  0.65695  Biso   1.000  C
  C514     1.0000 0.38120  0.00489  0.74032  Biso   1.000  C
  C515     1.0000 0.22667  0.13035  0.03782  Biso   1.000  C
  C516     1.0000 0.53041  0.30258  0.89442  Biso   1.000  C
  C517     1.0000 0.39287  0.48985  0.25161  Biso   1.000  C
  C518     1.0000 0.21140  0.37313  0.54448  Biso   1.000  C
  C519     1.0000 0.50682  0.21038  0.38830  Biso   1.000  C
  C520     1.0000 0.88954  0.50319  0.30738  Biso   1.000  C
  C521     1.0000 0.72208  0.37176  0.02211  Biso   1.000  C
  C522     1.0000 0.00565  0.20554  0.16163  Biso   1.000  C
  C523     1.0000 0.14384  0.99300  0.23693  Biso   1.000  C
  C524     1.0000 0.30838  0.87698  0.52513  Biso   1.000  C
  C525     1.0000 0.00365  0.70985  0.39049  Biso   1.000  C
  C526     1.0000 0.64250  0.99092  0.32820  Biso   1.000  C
  C527     1.0000 0.80764  0.86926  0.04464  Biso   1.000  C
  C528     1.0000 0.50374  0.70851  0.17333  Biso   1.000  C
  C529     1.0000 0.80917  0.13214  0.03287  Biso   1.000  C
  C530     1.0000 0.98949  0.78941  0.16020  Biso   1.000  C
  C531     1.0000 0.14883  0.99136  0.81821  Biso   1.000  C
  C532     1.0000 0.30571  0.13932  0.54664  Biso   1.000  C
  C533     1.0000 0.52212  0.79137  0.40803  Biso   1.000  C
  C534     1.0000 0.64855  0.00998  0.74219  Biso   1.000  C
  C535     1.0000 0.72273  0.63581  0.01844  Biso   1.000  C
  C536     1.0000 0.50294  0.29510  0.15921  Biso   1.000  C
  C537     1.0000 0.37059  0.49450  0.82582  Biso   1.000  C
  C538     1.0000 0.22433  0.63963  0.54281  Biso   1.000  C
  C539     1.0000 0.99883  0.29561  0.38914  Biso   1.000  C
  C540     1.0000 0.87010  0.52049  0.72962  Biso   1.000  C
  C541     1.0000 0.22481  0.86316  0.04150  Biso   1.000  C
  C542     1.0000 0.00826  0.20133  0.88870  Biso   1.000  C
  C543     1.0000 0.87984  0.99022  0.24176  Biso   1.000  C
  C544     1.0000 0.72579  0.86844  0.53748  Biso   1.000  C
  C545     1.0000 0.51957  0.21887  0.66038  Biso   1.000  C
  C546     1.0000 0.37723  0.99657  0.31903  Biso   1.000  C
  C547     1.0000 0.30623  0.36303  0.05255  Biso   1.000  C
  C548     1.0000 0.50089  0.71890  0.90820  Biso   1.000  C
  C549     1.0000 0.66125  0.49228  0.23303  Biso   1.000  C
  C550     1.0000 0.79263  0.37453  0.53285  Biso   1.000  C
  C551     1.0000 0.04261  0.70792  0.66029  Biso   1.000  C
  C552     1.0000 0.15811  0.48892  0.33214  Biso   1.000  C
  C553     1.0000 0.01814  0.12409  0.81530  Biso   1.000  C
  C554     1.0000 0.80273  0.99351  0.16576  Biso   1.000  C
  C555     1.0000 0.14860  0.78694  0.04108  Biso   1.000  C
  C556     1.0000 0.52163  0.14617  0.73982  Biso   1.000  C
  C557     1.0000 0.30329  0.01091  0.39814  Biso   1.000  C
  C558     1.0000 0.65038  0.79488  0.56128  Biso   1.000  C
  C559     1.0000 0.49875  0.65108  0.82458  Biso   1.000  C
  C560     1.0000 0.72613  0.48957  0.14686  Biso   1.000  C
  C561     1.0000 0.38111  0.28886  0.03384  Biso   1.000  C
  C562     1.0000 0.02628  0.62770  0.73064  Biso   1.000  C
  C563     1.0000 0.22828  0.50051  0.41160  Biso   1.000  C
  C564     1.0000 0.86820  0.29743  0.52922  Biso   1.000  C
  C565     1.0000 0.00097  0.86376  0.23993  Biso   1.000  C
  C566     1.0000 0.22775  0.99151  0.89416  Biso   1.000  C
  C567     1.0000 0.88314  0.21058  0.03312  Biso   1.000  C
  C568     1.0000 0.50736  0.86655  0.33195  Biso   1.000  C
  C569     1.0000 0.72331  0.01244  0.66081  Biso   1.000  C
  C570     1.0000 0.37446  0.22099  0.52311  Biso   1.000  C
  C571     1.0000 0.51694  0.36499  0.24299  Biso   1.000  C
  C572     1.0000 0.29995  0.48924  0.90979  Biso   1.000  C
  C573     1.0000 0.64614  0.71299  0.03801  Biso   1.000  C
  C574     1.0000 0.01243  0.37192  0.31215  Biso   1.000  C
  C575     1.0000 0.79609  0.51376  0.64891  Biso   1.000  C
  C576     1.0000 0.15406  0.71577  0.51464  Biso   1.000  C
  C577     1.0000 0.31434  0.49996  0.14540  Biso   1.000  C
  C578     1.0000 0.10488  0.30113  0.53158  Biso   1.000  C
  C579     1.0000 0.51659  0.09829  0.31526  Biso   1.000  C
  C580     1.0000 0.81004  0.48894  0.41078  Biso   1.000  C
  C581     1.0000 0.61625  0.29716  0.03179  Biso   1.000  C
  C582     1.0000 0.02076  0.09630  0.23356  Biso   1.000  C
  C583     1.0000 0.22555  0.99942  0.13711  Biso   1.000  C
  C584     1.0000 0.41793  0.80368  0.51580  Biso   1.000  C
  C585     1.0000 0.01722  0.60378  0.31210  Biso   1.000  C
  C586     1.0000 0.72275  0.01185  0.43026  Biso   1.000  C
  C587     1.0000 0.91438  0.79673  0.01595  Biso   1.000  C
  C588     1.0000 0.52085  0.60443  0.24719  Biso   1.000  C
  C589     1.0000 0.71718  0.50346  0.91398  Biso   1.000  C
  C590     1.0000 0.92024  0.70906  0.53833  Biso   1.000  C
  C591     1.0000 0.53001  0.91229  0.74482  Biso   1.000  C
  C592     1.0000 0.21632  0.48558  0.64760  Biso   1.000  C
  C593     1.0000 0.41212  0.70745  0.05491  Biso   1.000  C
  C594     1.0000 0.01510  0.88973  0.81779  Biso   1.000  C
  C595     1.0000 0.80313  0.99778  0.93053  Biso   1.000  C
  C596     1.0000 0.61232  0.20942  0.55087  Biso   1.000  C
  C597     1.0000 0.98699  0.39776  0.73480  Biso   1.000  C
  C598     1.0000 0.30927  0.98463  0.62890  Biso   1.000  C
  C599     1.0000 0.11563  0.20094  0.01495  Biso   1.000  C
  C600     1.0000 0.50308  0.41039  0.82283  Biso   1.000  C
  C601     1.0000 0.22761  0.99202  0.92627  Biso   1.000  C
  C602     1.0000 0.91592  0.20882  0.03175  Biso   1.000  C
  C603     1.0000 0.00241  0.89537  0.24035  Biso   1.000  C
  C604     1.0000 0.72037  0.00546  0.62986  Biso   1.000  C
  C605     1.0000 0.40476  0.22102  0.51891  Biso   1.000  C
  C606     1.0000 0.50430  0.89781  0.33275  Biso   1.000  C
  C607     1.0000 0.30432  0.49077  0.94119  Biso   1.000  C
  C608     1.0000 0.61467  0.71270  0.04032  Biso   1.000  C
  C609     1.0000 0.51639  0.39583  0.24516  Biso   1.000  C
  C610     1.0000 0.79794  0.51429  0.61753  Biso   1.000  C
  C611     1.0000 0.12255  0.71787  0.50943  Biso   1.000  C
  C612     1.0000 0.01764  0.40266  0.31451  Biso   1.000  C
  C613     1.0000 0.80205  0.99675  0.13459  Biso   1.000  C
  C614     1.0000 0.11693  0.78869  0.03767  Biso   1.000  C
  C615     1.0000 0.01641  0.09286  0.81614  Biso   1.000  C
  C616     1.0000 0.30352  0.01270  0.42955  Biso   1.000  C
  C617     1.0000 0.61894  0.79473  0.56007  Biso   1.000  C
  C618     1.0000 0.52246  0.11481  0.74132  Biso   1.000  C
  C619     1.0000 0.72193  0.48981  0.11541  Biso   1.000  C
  C620     1.0000 0.41245  0.29215  0.02943  Biso   1.000  C
  C621     1.0000 0.49702  0.61921  0.82172  Biso   1.000  C
  C622     1.0000 0.22614  0.50430  0.44306  Biso   1.000  C
  C623     1.0000 0.89971  0.29663  0.53010  Biso   1.000  C
  C624     1.0000 0.02436  0.59759  0.72740  Biso   1.000  C
  C625     1.0000 0.00590  0.20121  0.92027  Biso   1.000  C
  C626     1.0000 0.91178  0.99385  0.24017  Biso   1.000  C
  C627     1.0000 0.22346  0.89393  0.04020  Biso   1.000  C
  C628     1.0000 0.51543  0.21802  0.62938  Biso   1.000  C
  C629     1.0000 0.40944  0.99408  0.32121  Biso   1.000  C
  C630     1.0000 0.72427  0.89989  0.53186  Biso   1.000  C
  C631     1.0000 0.50059  0.71596  0.93981  Biso   1.000  C
  C632     1.0000 0.63022  0.49676  0.23682  Biso   1.000  C
  C633     1.0000 0.30678  0.39510  0.05254  Biso   1.000  C
  C634     1.0000 0.03879  0.71034  0.62813  Biso   1.000  C
  C635     1.0000 0.12713  0.49290  0.32999  Biso   1.000  C
  C636     1.0000 0.79248  0.40500  0.52978  Biso   1.000  C
  C637     1.0000 0.98788  0.79118  0.12946  Biso   1.000  C
  C638     1.0000 0.11721  0.99104  0.82074  Biso   1.000  C
  C639     1.0000 0.80969  0.10093  0.03071  Biso   1.000  C
  C640     1.0000 0.52838  0.79328  0.43941  Biso   1.000  C
  C641     1.0000 0.61670  0.01174  0.74099  Biso   1.000  C
  C642     1.0000 0.30831  0.10836  0.54826  Biso   1.000  C
  C643     1.0000 0.50216  0.29656  0.12777  Biso   1.000  C
  C644     1.0000 0.40192  0.49573  0.82673  Biso   1.000  C
  C645     1.0000 0.72163  0.60469  0.01564  Biso   1.000  C
  C646     1.0000 0.99910  0.29694  0.42048  Biso   1.000  C
  C647     1.0000 0.90109  0.52071  0.72943  Biso   1.000  C
  C648     1.0000 0.22106  0.60961  0.55097  Biso   1.000  C
  C649     1.0000 0.00786  0.70968  0.42169  Biso   1.000  C
  C650     1.0000 0.41292  0.01096  0.74074  Biso   1.000  C
  C651     1.0000 0.72172  0.40272  0.01877  Biso   1.000  C
  C652     1.0000 0.50672  0.71051  0.14301  Biso   1.000  C
  C653     1.0000 0.91048  0.99006  0.81936  Biso   1.000  C
  C654     1.0000 0.21495  0.40413  0.54608  Biso   1.000  C
  C655     1.0000 0.50760  0.21269  0.42107  Biso   1.000  C
  C656     1.0000 0.09788  0.48045  0.74226  Biso   1.000  C
  C657     1.0000 0.80887  0.90047  0.04707  Biso   1.000  C
  C658     1.0000 0.00657  0.20498  0.12958  Biso   1.000  C
  C659     1.0000 0.60639  0.52296  0.81326  Biso   1.000  C
  C660     1.0000 0.30764  0.90841  0.52688  Biso   1.000  C
  C661     1.0000 0.00400  0.29485  0.62460  Biso   1.000  C
  C662     1.0000 0.61213  0.98964  0.33020  Biso   1.000  C
  C663     1.0000 0.31265  0.59637  0.03813  Biso   1.000  C
  C664     1.0000 0.52878  0.30125  0.92585  Biso   1.000  C
  C665     1.0000 0.11321  0.99472  0.23454  Biso   1.000  C
  C666     1.0000 0.80724  0.60704  0.52210  Biso   1.000  C
  C667     1.0000 0.49411  0.80958  0.64025  Biso   1.000  C
  C668     1.0000 0.92076  0.50785  0.30837  Biso   1.000  C
  C669     1.0000 0.22802  0.09934  0.03920  Biso   1.000  C
  C670     1.0000 0.03223  0.79067  0.92869  Biso   1.000  C
  C671     1.0000 0.42419  0.48734  0.25028  Biso   1.000  C
  C672     1.0000 0.71932  0.10191  0.53403  Biso   1.000  C
  C673     1.0000 0.21075  0.98424  0.83000  Biso   1.000  C
  C674     1.0000 0.81943  0.19611  0.03233  Biso   1.000  C
  C675     1.0000 0.99518  0.80311  0.22309  Biso   1.000  C
  C676     1.0000 0.71126  0.01248  0.72738  Biso   1.000  C
  C677     1.0000 0.31158  0.20304  0.53748  Biso   1.000  C
  C678     1.0000 0.51326  0.80350  0.34834  Biso   1.000  C
  C679     1.0000 0.30659  0.48414  0.84562  Biso   1.000  C
  C680     1.0000 0.70907  0.70039  0.02702  Biso   1.000  C
  C681     1.0000 0.51021  0.30228  0.22236  Biso   1.000  C
  C682     1.0000 0.80808  0.51577  0.71367  Biso   1.000  C
  C683     1.0000 0.21314  0.70280  0.52508  Biso   1.000  C
  C684     1.0000 0.00506  0.30621  0.32703  Biso   1.000  C
  C685     1.0000 0.81762  0.99572  0.23066  Biso   1.000  C
  C686     1.0000 0.21163  0.79947  0.04524  Biso   1.000  C
  C687     1.0000 0.01388  0.18642  0.82562  Biso   1.000  C
  C688     1.0000 0.31465  0.00140  0.33570  Biso   1.000  C
  C689     1.0000 0.71353  0.80662  0.55189  Biso   1.000  C
  C690     1.0000 0.51846  0.20884  0.72272  Biso   1.000  C
  C691     1.0000 0.71998  0.48310  0.21201  Biso   1.000  C
  C692     1.0000 0.31818  0.30091  0.04363  Biso   1.000  C
  C693     1.0000 0.50054  0.71159  0.84276  Biso   1.000  C
  C694     1.0000 0.21984  0.49243  0.34831  Biso   1.000  C
  C695     1.0000 0.80662  0.31098  0.53272  Biso   1.000  C
  C696     1.0000 0.03213  0.69025  0.72326  Biso   1.000  C
  C697     1.0000 0.70535  0.99668  0.33653  Biso   1.000  C
  C698     1.0000 0.31743  0.68826  0.04398  Biso   1.000  C
  C699     1.0000 0.00116  0.30243  0.72107  Biso   1.000  C
  C700     1.0000 0.20775  0.99599  0.22738  Biso   1.000  C
  C701     1.0000 0.82656  0.70195  0.53712  Biso   1.000  C
  C702     1.0000 0.52094  0.31686  0.83334  Biso   1.000  C
  C703     1.0000 0.82650  0.49324  0.31678  Biso   1.000  C
  C704     1.0000 0.21033  0.19254  0.03192  Biso   1.000  C
  C705     1.0000 0.50733  0.82149  0.73526  Biso   1.000  C
  C706     1.0000 0.32900  0.49255  0.23872  Biso   1.000  C
  C707     1.0000 0.70817  0.19872  0.54016  Biso   1.000  C
  C708     1.0000 0.02960  0.80010  0.83251  Biso   1.000  C
  C709     1.0000 0.31920  0.98855  0.72525  Biso   1.000  C
  C710     1.0000 0.70977  0.30612  0.02908  Biso   1.000  C
  C711     1.0000 0.00184  0.69690  0.32755  Biso   1.000  C
  C712     1.0000 0.81694  0.99679  0.83665  Biso   1.000  C
  C713     1.0000 0.19983  0.31186  0.53873  Biso   1.000  C
  C714     1.0000 0.51030  0.69716  0.23592  Biso   1.000  C
  C715     1.0000 0.19220  0.47214  0.74223  Biso   1.000  C
  C716     1.0000 0.82103  0.80596  0.03669  Biso   1.000  C
  C717     1.0000 0.50657  0.18854  0.32571  Biso   1.000  C
  C718     1.0000 0.70102  0.51129  0.82112  Biso   1.000  C
  C719     1.0000 0.32233  0.81330  0.52236  Biso   1.000  C
  C720     1.0000 0.01485  0.19051  0.22465  Biso   1.000  C
  C721     1.0000 0.48951  0.80403  0.32715  Biso   1.000  C
  C722     1.0000 0.30379  0.50031  0.81848  Biso   1.000  C
  C723     1.0000 0.78144  0.31374  0.55219  Biso   1.000  C
  C724     1.0000 0.01144  0.77466  0.21739  Biso   1.000  C
  C725     1.0000 0.78049  0.53240  0.71038  Biso   1.000  C
  C726     1.0000 0.28969  0.30476  0.02982  Biso   1.000  C
  C727     1.0000 0.98707  0.28074  0.33033  Biso   1.000  C
  C728     1.0000 0.23831  0.99879  0.83318  Biso   1.000  C
  C729     1.0000 0.74276  0.81296  0.56259  Biso   1.000  C
  C730     1.0000 0.49636  0.30525  0.25104  Biso   1.000  C
  C731     1.0000 0.73734  0.99489  0.72135  Biso   1.000  C
  C732     1.0000 0.23661  0.80110  0.02590  Biso   1.000  C
  C733     1.0000 0.50285  0.20572  0.75073  Biso   1.000  C
  C734     1.0000 0.71922  0.46228  0.23525  Biso   1.000  C
  C735     1.0000 0.21357  0.72417  0.50139  Biso   1.000  C
  C736     1.0000 0.02731  0.21473  0.83002  Biso   1.000  C
  C737     1.0000 0.24774  0.47859  0.35303  Biso   1.000  C
  C738     1.0000 0.73501  0.69497  0.04538  Biso   1.000  C
  C739     1.0000 0.04609  0.68569  0.75102  Biso   1.000  C
  C740     1.0000 0.79142  0.97869  0.22819  Biso   1.000  C
  C741     1.0000 0.28121  0.19593  0.52723  Biso   1.000  C
  C742     1.0000 0.48201  0.70932  0.81506  Biso   1.000  C
  C743     1.0000 0.29033  0.98227  0.34211  Biso   1.000  C
  C744     1.0000 0.82064  0.22004  0.05236  Biso   1.000  C
  C745     1.0000 0.01371  0.72621  0.32803  Biso   1.000  C
  C746     1.0000 0.29016  0.00102  0.72111  Biso   1.000  C
  C747     1.0000 0.73811  0.31050  0.04156  Biso   1.000  C
  C748     1.0000 0.52398  0.72731  0.23198  Biso   1.000  C
  C749     1.0000 0.78775  0.98331  0.83937  Biso   1.000  C
  C750     1.0000 0.22195  0.30986  0.56024  Biso   1.000  C
  C751     1.0000 0.52313  0.18663  0.29870  Biso   1.000  C
  C752     1.0000 0.22016  0.45599  0.73844  Biso   1.000  C
  C753     1.0000 0.79314  0.81090  0.02603  Biso   1.000  C
  C754     1.0000 0.02436  0.22091  0.22005  Biso   1.000  C
  C755     1.0000 0.69605  0.49390  0.79561  Biso   1.000  C
  C756     1.0000 0.32575  0.78655  0.53852  Biso   1.000  C
  C757     1.0000 0.98992  0.27353  0.71444  Biso   1.000  C
  C758     1.0000 0.70096  0.01393  0.30980  Biso   1.000  C
  C759     1.0000 0.29062  0.68455  0.05842  Biso   1.000  C
  C760     1.0000 0.53246  0.32309  0.80445  Biso   1.000  C
  C761     1.0000 0.23320  0.97761  0.22690  Biso   1.000  C
  C762     1.0000 0.82987  0.73178  0.52824  Biso   1.000  C
  C763     1.0000 0.48141  0.80418  0.73642  Biso   1.000  C
  C764     1.0000 0.79692  0.50468  0.31593  Biso   1.000  C
  C765     1.0000 0.20427  0.21918  0.04698  Biso   1.000  C
  C766     1.0000 0.00529  0.79571  0.81382  Biso   1.000  C
  C767     1.0000 0.33297  0.50820  0.26546  Biso   1.000  C
  C768     1.0000 0.70091  0.22829  0.52922  Biso   1.000  C
  C769     1.0000 0.51724  0.73744  0.84726  Biso   1.000  C
  C770     1.0000 0.81022  0.49533  0.73743  Biso   1.000  C
  C771     1.0000 0.70802  0.77725  0.53973  Biso   1.000  C
  C772     1.0000 0.01794  0.71921  0.71906  Biso   1.000  C
  C773     1.0000 0.28425  0.46225  0.85295  Biso   1.000  C
  C774     1.0000 0.20877  0.77457  0.06239  Biso   1.000  C
  C775     1.0000 0.00001  0.18200  0.79835  Biso   1.000  C
  C776     1.0000 0.70941  0.02642  0.75415  Biso   1.000  C
  C777     1.0000 0.80896  0.28388  0.51546  Biso   1.000  C
  C778     1.0000 0.53592  0.23582  0.71873  Biso   1.000  C
  C779     1.0000 0.20660  0.96578  0.80461  Biso   1.000  C
  C780     1.0000 0.32276  0.27252  0.05490  Biso   1.000  C
  C781     1.0000 0.52135  0.27260  0.21517  Biso   1.000  C
  C782     1.0000 0.21540  0.50491  0.31903  Biso   1.000  C
  C783     1.0000 0.31692  0.23388  0.54602  Biso   1.000  C
  C784     1.0000 0.02777  0.30606  0.30351  Biso   1.000  C
  C785     1.0000 0.74729  0.49998  0.20684  Biso   1.000  C
  C786     1.0000 0.79653  0.19356  0.01269  Biso   1.000  C
  C787     1.0000 0.97724  0.80625  0.24842  Biso   1.000  C
  C788     1.0000 0.31472  0.01766  0.30901  Biso   1.000  C
  C789     1.0000 0.23533  0.70414  0.54790  Biso   1.000  C
  C790     1.0000 0.53290  0.77953  0.34664  Biso   1.000  C
  C791     1.0000 0.81842  0.01641  0.25758  Biso   1.000  C
  C792     1.0000 0.70499  0.72799  0.01208  Biso   1.000  C
  C793     1.0000 0.48477  0.21224  0.32704  Biso   1.000  C
  C794     1.0000 0.30252  0.47628  0.23351  Biso   1.000  C
  C795     1.0000 0.19858  0.28979  0.51611  Biso   1.000  C
  C796     1.0000 0.00395  0.18524  0.25445  Biso   1.000  C
  C797     1.0000 0.83612  0.47639  0.29188  Biso   1.000  C
  C798     1.0000 0.70607  0.27924  0.01184  Biso   1.000  C
  C799     1.0000 0.98190  0.68857  0.30498  Biso   1.000  C
  C800     1.0000 0.20001  0.01036  0.25515  Biso   1.000  C
  C801     1.0000 0.29443  0.81652  0.50577  Biso   1.000  C
  C802     1.0000 0.49497  0.69387  0.26293  Biso   1.000  C
  C803     1.0000 0.73245  0.98351  0.34048  Biso   1.000  C
  C804     1.0000 0.82647  0.77664  0.04700  Biso   1.000  C
  C805     1.0000 0.52991  0.81590  0.75655  Biso   1.000  C
  C806     1.0000 0.72749  0.52829  0.82379  Biso   1.000  C
  C807     1.0000 0.79956  0.69505  0.55158  Biso   1.000  C
  C808     1.0000 0.05351  0.77986  0.83094  Biso   1.000  C
  C809     1.0000 0.18616  0.48521  0.77123  Biso   1.000  C
  C810     1.0000 0.32166  0.71582  0.02633  Biso   1.000  C
  C811     1.0000 0.01317  0.30595  0.75106  Biso   1.000  C
  C812     1.0000 0.82277  0.01345  0.80960  Biso   1.000  C
  C813     1.0000 0.73676  0.19363  0.55137  Biso   1.000  C
  C814     1.0000 0.50900  0.28866  0.83911  Biso   1.000  C
  C815     1.0000 0.32587  0.97167  0.75021  Biso   1.000  C
  C816     1.0000 0.24004  0.18850  0.01965  Biso   1.000  C
  C817     1.0000 0.02122  0.23623  0.81005  Biso   1.000  C
  C818     1.0000 0.76834  0.98158  0.24813  Biso   1.000  C
  C819     1.0000 0.25589  0.77745  0.02234  Biso   1.000  C
  C820     1.0000 0.50432  0.22659  0.77106  Biso   1.000  C
  C821     1.0000 0.26794  0.98257  0.32147  Biso   1.000  C
  C822     1.0000 0.76546  0.79329  0.56480  Biso   1.000  C
  C823     1.0000 0.48484  0.73062  0.79485  Biso   1.000  C
  C824     1.0000 0.74197  0.46133  0.25480  Biso   1.000  C
  C825     1.0000 0.26726  0.28437  0.03070  Biso   1.000  C
  C826     1.0000 0.04607  0.70668  0.77294  Biso   1.000  C
  C827     1.0000 0.26866  0.47923  0.33243  Biso   1.000  C
  C828     1.0000 0.76579  0.28951  0.55904  Biso   1.000  C
  C829     1.0000 0.00602  0.75225  0.23650  Biso   1.000  C
  C830     1.0000 0.26002  0.99365  0.81379  Biso   1.000  C
  C831     1.0000 0.80016  0.24143  0.04925  Biso   1.000  C
  C832     1.0000 0.48862  0.78404  0.30482  Biso   1.000  C
  C833     1.0000 0.75865  0.99441  0.74179  Biso   1.000  C
  C834     1.0000 0.26090  0.21716  0.52597  Biso   1.000  C
  C835     1.0000 0.49308  0.28235  0.26983  Biso   1.000  C
  C836     1.0000 0.27953  0.49515  0.80005  Biso   1.000  C
  C837     1.0000 0.75719  0.71506  0.04684  Biso   1.000  C
  C838     1.0000 0.99067  0.25612  0.31352  Biso   1.000  C
  C839     1.0000 0.75918  0.52872  0.73151  Biso   1.000  C
  C840     1.0000 0.23597  0.74518  0.50064  Biso   1.000  C
  C841     1.0000 0.22819  0.96336  0.78386  Biso   1.000  C
  C842     1.0000 0.77569  0.21598  0.01030  Biso   1.000  C
  C843     1.0000 0.97309  0.78297  0.26561  Biso   1.000  C
  C844     1.0000 0.73062  0.02434  0.77509  Biso   1.000  C
  C845     1.0000 0.29348  0.25342  0.54675  Biso   1.000  C
  C846     1.0000 0.53000  0.75901  0.32351  Biso   1.000  C
  C847     1.0000 0.26039  0.46045  0.83505  Biso   1.000  C
  C848     1.0000 0.72912  0.74629  0.01293  Biso   1.000  C
  C849     1.0000 0.51722  0.24959  0.23403  Biso   1.000  C
  C850     1.0000 0.78994  0.49460  0.75835  Biso   1.000  C
  C851     1.0000 0.25486  0.72682  0.54703  Biso   1.000  C
  C852     1.0000 0.02854  0.28207  0.28626  Biso   1.000  C
  C853     1.0000 0.79517  0.01716  0.27710  Biso   1.000  C
  C854     1.0000 0.22828  0.75245  0.05968  Biso   1.000  C
  C855     1.0000 0.99738  0.20410  0.77740  Biso   1.000  C
  C856     1.0000 0.29309  0.01591  0.28965  Biso   1.000  C
  C857     1.0000 0.73242  0.75834  0.54057  Biso   1.000  C
  C858     1.0000 0.53537  0.25613  0.74158  Biso   1.000  C
  C859     1.0000 0.77006  0.49494  0.22479  Biso   1.000  C
  C860     1.0000 0.30226  0.25198  0.05450  Biso   1.000  C
  C861     1.0000 0.51623  0.75885  0.82616  Biso   1.000  C
  C862     1.0000 0.23729  0.50461  0.29823  Biso   1.000  C
  C863     1.0000 0.79070  0.26106  0.52052  Biso   1.000  C
  C864     1.0000 0.01629  0.73738  0.74171  Biso   1.000  C
  C865     1.0000 0.71776  0.49276  0.77304  Biso   1.000  C
  C866     1.0000 0.80877  0.75192  0.53610  Biso   1.000  C
  C867     1.0000 0.47913  0.78284  0.75786  Biso   1.000  C
  C868     1.0000 0.24054  0.45515  0.76207  Biso   1.000  C
  C869     1.0000 0.26980  0.70599  0.05397  Biso   1.000  C
  C870     1.0000 0.00548  0.77153  0.79490  Biso   1.000  C
  C871     1.0000 0.76822  0.98825  0.81759  Biso   1.000  C
  C872     1.0000 0.72064  0.25049  0.53161  Biso   1.000  C
  C873     1.0000 0.99187  0.25224  0.73451  Biso   1.000  C
  C874     1.0000 0.26827  0.99440  0.74148  Biso   1.000  C
  C875     1.0000 0.22481  0.24059  0.05033  Biso   1.000  C
  C876     1.0000 0.53283  0.30188  0.78405  Biso   1.000  C
  C877     1.0000 0.31078  0.50770  0.28640  Biso   1.000  C
  C878     1.0000 0.24198  0.28769  0.55949  Biso   1.000  C
  C879     1.0000 0.52114  0.20607  0.27524  Biso   1.000  C
  C880     1.0000 0.77953  0.49756  0.29297  Biso   1.000  C
  C881     1.0000 0.76025  0.29106  0.03923  Biso   1.000  C
  C882     1.0000 0.02443  0.24250  0.24113  Biso   1.000  C
  C883     1.0000 0.25173  0.97786  0.25081  Biso   1.000  C
  C884     1.0000 0.30388  0.76579  0.53799  Biso   1.000  C
  C885     1.0000 0.00422  0.74557  0.30743  Biso   1.000  C
  C886     1.0000 0.72420  0.01529  0.28962  Biso   1.000  C
  C887     1.0000 0.77006  0.79136  0.02505  Biso   1.000  C
  C888     1.0000 0.52285  0.74756  0.25347  Biso   1.000  C
  C889     1.0000 0.75338  0.98292  0.31993  Biso   1.000  C
  C890     1.0000 0.30002  0.73724  0.02540  Biso   1.000  C
  C891     1.0000 0.01488  0.28258  0.77069  Biso   1.000  C
  C892     1.0000 0.22098  0.01103  0.27661  Biso   1.000  C
  C893     1.0000 0.77917  0.71573  0.55790  Biso   1.000  C
  C894     1.0000 0.51050  0.26702  0.81837  Biso   1.000  C
  C895     1.0000 0.81675  0.46999  0.26982  Biso   1.000  C
  C896     1.0000 0.26165  0.20987  0.02445  Biso   1.000  C
  C897     1.0000 0.52575  0.79584  0.77727  Biso   1.000  C
  C898     1.0000 0.28059  0.47821  0.25633  Biso   1.000  C
  C899     1.0000 0.75535  0.21729  0.55275  Biso   1.000  C
  C900     1.0000 0.05410  0.75899  0.80888  Biso   1.000  C
  C901     1.0000 0.30519  0.96949  0.77122  Biso   1.000  C
  C902     1.0000 0.72927  0.25965  0.01000  Biso   1.000  C
  C903     1.0000 0.97566  0.70958  0.28299  Biso   1.000  C
  C904     1.0000 0.80141  0.01844  0.78885  Biso   1.000  C
  C905     1.0000 0.22062  0.26933  0.51582  Biso   1.000  C
  C906     1.0000 0.49574  0.71463  0.28593  Biso   1.000  C
  C907     1.0000 0.20808  0.48580  0.79239  Biso   1.000  C
  C908     1.0000 0.80410  0.75597  0.04568  Biso   1.000  C
  C909     1.0000 0.48507  0.23219  0.30445  Biso   1.000  C
  C910     1.0000 0.74891  0.52748  0.80126  Biso   1.000  C
  C911     1.0000 0.27351  0.79515  0.50723  Biso   1.000  C
  C912     1.0000 0.00306  0.20790  0.27433  Biso   1.000  C
  C913     1.0000 0.76515  0.51047  0.75451  Biso   1.000  C
  C914     1.0000 0.75907  0.76640  0.55287  Biso   1.000  C
  C915     1.0000 0.49885  0.75703  0.80142  Biso   1.000  C
  C916     1.0000 0.25900  0.47475  0.80828  Biso   1.000  C
  C917     1.0000 0.25279  0.75435  0.04002  Biso   1.000  C
  C918     1.0000 0.03012  0.73192  0.76789  Biso   1.000  C
  C919     1.0000 0.75528  0.00806  0.76922  Biso   1.000  C
  C920     1.0000 0.76927  0.26507  0.54171  Biso   1.000  C
  C921     1.0000 0.00755  0.23173  0.78317  Biso   1.000  C
  C922     1.0000 0.25578  0.97597  0.78944  Biso   1.000  C
  C923     1.0000 0.27502  0.25789  0.04189  Biso   1.000  C
  C924     1.0000 0.52030  0.25201  0.76777  Biso   1.000  C
  C925     1.0000 0.26425  0.49215  0.30442  Biso   1.000  C
  C926     1.0000 0.26610  0.24580  0.53534  Biso   1.000  C
  C927     1.0000 0.50378  0.25502  0.26148  Biso   1.000  C
  C928     1.0000 0.76703  0.47540  0.24793  Biso   1.000  C
  C929     1.0000 0.77818  0.24066  0.02769  Biso   1.000  C
  C930     1.0000 0.01125  0.25759  0.29125  Biso   1.000  C
  C931     1.0000 0.26841  0.99964  0.29656  Biso   1.000  C
  C932     1.0000 0.25558  0.74576  0.52351  Biso   1.000  C
  C933     1.0000 0.98537  0.75593  0.25948  Biso   1.000  C
  C934     1.0000 0.77180  0.99917  0.27278  Biso   1.000  C
  C935     1.0000 0.75347  0.74071  0.02954  Biso   1.000  C
  C936     1.0000 0.50864  0.76228  0.30334  Biso   1.000  C
  C937     1.0000 0.75580  0.26449  0.02532  Biso   1.000  C
  C938     1.0000 0.98549  0.73818  0.28486  Biso   1.000  C
  C939     1.0000 0.27614  0.97690  0.76590  Biso   1.000  C
  C940     1.0000 0.24182  0.26727  0.53656  Biso   1.000  C
  C941     1.0000 0.50752  0.74178  0.27923  Biso   1.000  C
  C942     1.0000 0.77500  0.00488  0.79357  Biso   1.000  C
  C943     1.0000 0.77603  0.76348  0.03375  Biso   1.000  C
  C944     1.0000 0.50200  0.22915  0.27977  Biso   1.000  C
  C945     1.0000 0.23440  0.47115  0.78783  Biso   1.000  C
  C946     1.0000 0.27808  0.76975  0.52313  Biso   1.000  C
  C947     1.0000 0.01345  0.23505  0.26811  Biso   1.000  C
  C948     1.0000 0.74302  0.50975  0.77647  Biso   1.000  C
  C949     1.0000 0.27493  0.73122  0.03980  Biso   1.000  C
  C950     1.0000 0.00230  0.25707  0.76300  Biso   1.000  C
  C951     1.0000 0.74945  0.00001  0.29434  Biso   1.000  C
  C952     1.0000 0.78386  0.74466  0.55057  Biso   1.000  C
  C953     1.0000 0.52364  0.27351  0.79193  Biso   1.000  C
  C954     1.0000 0.24677  0.99703  0.27385  Biso   1.000  C
  C955     1.0000 0.25305  0.23510  0.03969  Biso   1.000  C
  C956     1.0000 0.49992  0.78077  0.77921  Biso   1.000  C
  C957     1.0000 0.78852  0.47760  0.27180  Biso   1.000  C
  C958     1.0000 0.74645  0.24358  0.54346  Biso   1.000  C
  C959     1.0000 0.03001  0.75401  0.79135  Biso   1.000  C
  C960     1.0000 0.28640  0.49063  0.28252  Biso   1.000  C
  Cu1      1.0000 0.00294  0.49697  0.67564  Biso   1.000  Cu
  Cu2      1.0000 0.66726  0.99887  0.53088  Biso   1.000  Cu
  Cu3      1.0000 0.51494  0.65893  0.03857  Biso   1.000  Cu
  Cu4      1.0000 0.50823  0.51392  0.87389  Biso   1.000  Cu
  Cu5      1.0000 0.17142  0.99632  0.03132  Biso   1.000  Cu
  Cu6      1.0000 0.02264  0.65780  0.52499  Biso   1.000  Cu
  Cu7      1.0000 0.51565  0.01612  0.68746  Biso   1.000  Cu
  Cu8      1.0000 0.85430  0.50102  0.51652  Biso   1.000  Cu
  Cu9      1.0000 0.01626  0.14957  0.02609  Biso   1.000  Cu
  Cu10     1.0000 0.01334  0.99220  0.87541  Biso   1.000  Cu
  Cu11     1.0000 0.36442  0.49686  0.04033  Biso   1.000  Cu
  Cu12     1.0000 0.50994  0.16162  0.52691  Biso   1.000  Cu
  Cu13     1.0000 0.02036  0.50304  0.37032  Biso   1.000  Cu
  Cu14     1.0000 0.36376  0.01003  0.52906  Biso   1.000  Cu
  Cu15     1.0000 0.51428  0.35207  0.02702  Biso   1.000  Cu
  Cu16     1.0000 0.52162  0.50035  0.19191  Biso   1.000  Cu
  Cu17     1.0000 0.86056  0.00007  0.03016  Biso   1.000  Cu
  Cu18     1.0000 0.00163  0.35351  0.52367  Biso   1.000  Cu
  Cu19     1.0000 0.51099  0.00334  0.37610  Biso   1.000  Cu
  Cu20     1.0000 0.16534  0.50951  0.54100  Biso   1.000  Cu
  Cu21     1.0000 0.01659  0.84685  0.03177  Biso   1.000  Cu
  Cu22     1.0000 0.01126  0.99530  0.17916  Biso   1.000  Cu
  Cu23     1.0000 0.66495  0.50257  0.01917  Biso   1.000  Cu
  Cu24     1.0000 0.52020  0.85334  0.53796  Biso   1.000  Cu
  Cu25     1.0000 0.22716  0.99534  0.02928  Biso   1.000  Cu
  Cu26     1.0000 0.01838  0.20203  0.02367  Biso   1.000  Cu
  Cu27     1.0000 0.01360  0.99680  0.23307  Biso   1.000  Cu
  Cu28     1.0000 0.72031  0.00146  0.53010  Biso   1.000  Cu
  Cu29     1.0000 0.51304  0.21444  0.52654  Biso   1.000  Cu
  Cu30     1.0000 0.51269  0.99514  0.32272  Biso   1.000  Cu
  Cu31     1.0000 0.31135  0.49673  0.04413  Biso   1.000  Cu
  Cu32     1.0000 0.51589  0.71240  0.04007  Biso   1.000  Cu
  Cu33     1.0000 0.52584  0.50092  0.24461  Biso   1.000  Cu
  Cu34     1.0000 0.80173  0.50934  0.51282  Biso   1.000  Cu
  Cu35     1.0000 0.01965  0.71093  0.52610  Biso   1.000  Cu
  Cu36     1.0000 0.02586  0.50101  0.31504  Biso   1.000  Cu
  Cu37     1.0000 0.80544  0.00197  0.03198  Biso   1.000  Cu
  Cu38     1.0000 0.01564  0.79280  0.03150  Biso   1.000  Cu
  Cu39     1.0000 0.01471  0.99221  0.82225  Biso   1.000  Cu
  Cu40     1.0000 0.30927  0.00970  0.53184  Biso   1.000  Cu
  Cu41     1.0000 0.51727  0.79869  0.54084  Biso   1.000  Cu
  Cu42     1.0000 0.51466  0.01418  0.74163  Biso   1.000  Cu
  Cu43     1.0000 0.71984  0.50300  0.01851  Biso   1.000  Cu
  Cu44     1.0000 0.51511  0.29904  0.02646  Biso   1.000  Cu
  Cu45     1.0000 0.50369  0.51154  0.82106  Biso   1.000  Cu
  Cu46     1.0000 0.21979  0.50754  0.54465  Biso   1.000  Cu
  Cu47     1.0000 0.00481  0.29852  0.52317  Biso   1.000  Cu
  Cu48     1.0000 0.00203  0.50138  0.72950  Biso   1.000  Cu
  H1       1.0000 0.30739  0.74605  0.54839  Biso   1.000  H
  H2       1.0000 0.54045  0.30774  0.76158  Biso   1.000  H
  H3       1.0000 0.75773  0.50727  0.29424  Biso   1.000  H
  H4       1.0000 0.74988  0.80040  0.01781  Biso   1.000  H
  H5       1.0000 0.98433  0.23078  0.72889  Biso   1.000  H
  H6       1.0000 0.31646  0.51765  0.30626  Biso   1.000  H
  H7       1.0000 0.25859  0.28825  0.57593  Biso   1.000  H
  H8       1.0000 0.98638  0.76677  0.78055  Biso   1.000  H
  H9       1.0000 0.72130  0.02841  0.26989  Biso   1.000  H
  H10      1.0000 0.78068  0.29968  0.04969  Biso   1.000  H
  H11      1.0000 0.46305  0.76607  0.75832  Biso   1.000  H
  H12      1.0000 0.27196  0.96524  0.24691  Biso   1.000  H
  H13      1.0000 0.71868  0.27270  0.52289  Biso   1.000  H
  H14      1.0000 0.53515  0.76681  0.24786  Biso   1.000  H
  H15      1.0000 0.25890  0.44129  0.75878  Biso   1.000  H
  H16      1.0000 0.21895  0.25997  0.06339  Biso   1.000  H
  H17      1.0000 0.01163  0.76762  0.30803  Biso   1.000  H
  H18      1.0000 0.71325  0.47936  0.75390  Biso   1.000  H
  H19      1.0000 0.81317  0.77546  0.53254  Biso   1.000  H
  H20      1.0000 0.03127  0.26373  0.23509  Biso   1.000  H
  H21      1.0000 0.24621  0.99992  0.73882  Biso   1.000  H
  H22      1.0000 0.24771  0.70164  0.06021  Biso   1.000  H
  H23      1.0000 0.53550  0.20083  0.25638  Biso   1.000  H
  H24      1.0000 0.74792  0.97507  0.81591  Biso   1.000  H
  H25      1.0000 0.27934  0.00669  0.81384  Biso   1.000  H
  H26      1.0000 0.80037  0.26010  0.06243  Biso   1.000  H
  H27      1.0000 0.01745  0.73184  0.23194  Biso   1.000  H
  H28      1.0000 0.77898  0.98424  0.74027  Biso   1.000  H
  H29      1.0000 0.23919  0.21120  0.51873  Biso   1.000  H
  H30      1.0000 0.46920  0.78199  0.29251  Biso   1.000  H
  H31      1.0000 0.27812  0.50407  0.77798  Biso   1.000  H
  H32      1.0000 0.77509  0.71421  0.06154  Biso   1.000  H
  H33      1.0000 0.48473  0.28715  0.29086  Biso   1.000  H
  H34      1.0000 0.74090  0.54337  0.73119  Biso   1.000  H
  H35      1.0000 0.23562  0.76153  0.48463  Biso   1.000  H
  H36      1.0000 0.97510  0.23717  0.31491  Biso   1.000  H
  H37      1.0000 0.74861  0.97001  0.24398  Biso   1.000  H
  H38      1.0000 0.27120  0.77994  0.00362  Biso   1.000  H
  H39      1.0000 0.02779  0.25772  0.81847  Biso   1.000  H
  H40      1.0000 0.24985  0.96793  0.32617  Biso   1.000  H
  H41      1.0000 0.78284  0.79917  0.57637  Biso   1.000  H
  H42      1.0000 0.49033  0.22285  0.78870  Biso   1.000  H
  H43      1.0000 0.74392  0.44698  0.27114  Biso   1.000  H
  H44      1.0000 0.24474  0.28760  0.02140  Biso   1.000  H
  H45      1.0000 0.47194  0.72991  0.77639  Biso   1.000  H
  H46      1.0000 0.28916  0.46734  0.33883  Biso   1.000  H
  H47      1.0000 0.75022  0.29349  0.57828  Biso   1.000  H
  H48      1.0000 0.05660  0.70035  0.79351  Biso   1.000  H
  H49      1.0000 0.23303  0.51733  0.27868  Biso   1.000  H
  H50      1.0000 0.29707  0.27514  0.55585  Biso   1.000  H
  H51      1.0000 0.52219  0.22784  0.22609  Biso   1.000  H
  H52      1.0000 0.79063  0.50703  0.22084  Biso   1.000  H
  H53      1.0000 0.75843  0.21280  0.99509  Biso   1.000  H
  H54      1.0000 0.04574  0.27978  0.26985  Biso   1.000  H
  H55      1.0000 0.29431  0.02872  0.27068  Biso   1.000  H
  H56      1.0000 0.27110  0.72778  0.56481  Biso   1.000  H
  H57      1.0000 0.96044  0.78501  0.28578  Biso   1.000  H
  H58      1.0000 0.79915  0.03179  0.29463  Biso   1.000  H
  H59      1.0000 0.72978  0.76632  0.99944  Biso   1.000  H
  H60      1.0000 0.54601  0.74173  0.32224  Biso   1.000  H
  H61      1.0000 0.79141  0.48002  0.77687  Biso   1.000  H
  H62      1.0000 0.72973  0.73637  0.53200  Biso   1.000  H
  H63      1.0000 0.52740  0.77871  0.82998  Biso   1.000  H
  H64      1.0000 0.24289  0.44554  0.83733  Biso   1.000  H
  H65      1.0000 0.22506  0.73370  0.07492  Biso   1.000  H
  H66      1.0000 0.00678  0.75893  0.74063  Biso   1.000  H
  H67      1.0000 0.73065  0.03336  0.79735  Biso   1.000  H
  H68      1.0000 0.79388  0.24089  0.50645  Biso   1.000  H
  H69      1.0000 0.98629  0.19982  0.75703  Biso   1.000  H
  H70      1.0000 0.22324  0.95120  0.76389  Biso   1.000  H
  H71      1.0000 0.30721  0.22863  0.06035  Biso   1.000  H
  H72      1.0000 0.54914  0.27364  0.73933  Biso   1.000  H
  H73      1.0000 0.76796  0.54018  0.80169  Biso   1.000  H
  H74      1.0000 0.75953  0.70869  0.56845  Biso   1.000  H
  H75      1.0000 0.54348  0.79287  0.79138  Biso   1.000  H
  H76      1.0000 0.20294  0.49678  0.81274  Biso   1.000  H
  H77      1.0000 0.30222  0.75586  0.01245  Biso   1.000  H
  H78      1.0000 0.07309  0.74561  0.80783  Biso   1.000  H
  H79      1.0000 0.80358  0.03397  0.77178  Biso   1.000  H
  H80      1.0000 0.77614  0.21578  0.56220  Biso   1.000  H
  H81      1.0000 0.02653  0.28850  0.78968  Biso   1.000  H
  H82      1.0000 0.31083  0.95832  0.79214  Biso   1.000  H
  H83      1.0000 0.28294  0.20416  0.01431  Biso   1.000  H
  H84      1.0000 0.50500  0.24429  0.82250  Biso   1.000  H
  H85      1.0000 0.26115  0.46603  0.25279  Biso   1.000  H
  H86      1.0000 0.21806  0.25103  0.50052  Biso   1.000  H
  H87      1.0000 0.46693  0.24854  0.30396  Biso   1.000  H
  H88      1.0000 0.82187  0.45658  0.25006  Biso   1.000  H
  H89      1.0000 0.72424  0.24257  0.99399  Biso   1.000  H
  H90      1.0000 0.99259  0.20407  0.29462  Biso   1.000  H
  H91      1.0000 0.21886  0.02361  0.29597  Biso   1.000  H
  H92      1.0000 0.25406  0.79922  0.49392  Biso   1.000  H
  H93      1.0000 0.96527  0.70583  0.26298  Biso   1.000  H
  H94      1.0000 0.77548  0.97330  0.32198  Biso   1.000  H
  H95      1.0000 0.81104  0.73492  0.05650  Biso   1.000  H
  H96      1.0000 0.48340  0.71011  0.30405  Biso   1.000  H
  H97      1.0000 0.87929  0.99715  0.94177  Biso   1.000  H
  H98      1.0000 0.92251  0.87284  0.02579  Biso   1.000  H
  H99      1.0000 0.01255  0.90311  0.89468  Biso   1.000  H
  H100     1.0000 0.38028  0.01410  0.62170  Biso   1.000  H
  H101     1.0000 0.42452  0.87889  0.52607  Biso   1.000  H
  H102     1.0000 0.52224  0.92136  0.66793  Biso   1.000  H
  H103     1.0000 0.64437  0.51758  0.92873  Biso   1.000  H
  H104     1.0000 0.60660  0.36957  0.01954  Biso   1.000  H
  H105     1.0000 0.50861  0.42057  0.89818  Biso   1.000  H
  H106     1.0000 0.14410  0.48731  0.62998  Biso   1.000  H
  H107     1.0000 0.09828  0.37793  0.52951  Biso   1.000  H
  H108     1.0000 0.99528  0.40579  0.65912  Biso   1.000  H
  H109     1.0000 0.15168  0.01070  0.12085  Biso   1.000  H
  H110     1.0000 0.10868  0.12520  0.02924  Biso   1.000  H
  H111     1.0000 0.01550  0.08486  0.15679  Biso   1.000  H
  H112     1.0000 0.65117  0.01656  0.44373  Biso   1.000  H
  H113     1.0000 0.60438  0.13581  0.53380  Biso   1.000  H
  H114     1.0000 0.52442  0.08875  0.39291  Biso   1.000  H
  H115     1.0000 0.39043  0.49127  0.13433  Biso   1.000  H
  H116     1.0000 0.42763  0.63633  0.04390  Biso   1.000  H
  H117     1.0000 0.51206  0.59150  0.17183  Biso   1.000  H
  H118     1.0000 0.88548  0.50262  0.42501  Biso   1.000  H
  H119     1.0000 0.92508  0.63303  0.52642  Biso   1.000  H
  H120     1.0000 0.01757  0.59033  0.38816  Biso   1.000  H
  H121     1.0000 0.11052  0.99763  0.89510  Biso   1.000  H
  H122     1.0000 0.88399  0.09185  0.02041  Biso   1.000  H
  H123     1.0000 0.99607  0.86669  0.12123  Biso   1.000  H
  H124     1.0000 0.60388  0.00514  0.66713  Biso   1.000  H
  H125     1.0000 0.38303  0.10264  0.54161  Biso   1.000  H
  H126     1.0000 0.52957  0.86861  0.44868  Biso   1.000  H
  H127     1.0000 0.41577  0.51525  0.89755  Biso   1.000  H
  H128     1.0000 0.64519  0.59637  0.01863  Biso   1.000  H
  H129     1.0000 0.51234  0.37285  0.12154  Biso   1.000  H
  H130     1.0000 0.91488  0.52051  0.65375  Biso   1.000  H
  H131     1.0000 0.14532  0.60175  0.54128  Biso   1.000  H
  H132     1.0000 0.00565  0.37324  0.43023  Biso   1.000  H
  H133     1.0000 0.91951  0.99720  0.16391  Biso   1.000  H
  H134     1.0000 0.14928  0.90771  0.04219  Biso   1.000  H
  H135     1.0000 0.01179  0.12677  0.93144  Biso   1.000  H
  H136     1.0000 0.41984  0.99653  0.39959  Biso   1.000  H
  H137     1.0000 0.64801  0.90605  0.54027  Biso   1.000  H
  H138     1.0000 0.51391  0.14127  0.62071  Biso   1.000  H
  H139     1.0000 0.61011  0.50600  0.16284  Biso   1.000  H
  H140     1.0000 0.38006  0.40385  0.03510  Biso   1.000  H
  H141     1.0000 0.50505  0.63964  0.94134  Biso   1.000  H
  H142     1.0000 0.10538  0.50554  0.40338  Biso   1.000  H
  H143     1.0000 0.86460  0.41393  0.52101  Biso   1.000  H
  H144     1.0000 0.03228  0.63544  0.61131  Biso   1.000  H
  H145     1.0000 0.59861  0.51641  0.89041  Biso   1.000  H
  H146     1.0000 0.88167  0.59418  0.51799  Biso   1.000  H
  H147     1.0000 0.51120  0.88255  0.62875  Biso   1.000  H
  H148     1.0000 0.09672  0.49364  0.66808  Biso   1.000  H
  H149     1.0000 0.38970  0.58779  0.03888  Biso   1.000  H
  H150     1.0000 0.01878  0.86503  0.93634  Biso   1.000  H
  H151     1.0000 0.92170  0.99254  0.89683  Biso   1.000  H
  H152     1.0000 0.64478  0.09431  0.53336  Biso   1.000  H
  H153     1.0000 0.98794  0.36735  0.61716  Biso   1.000  H
  H154     1.0000 0.42664  0.01340  0.66746  Biso   1.000  H
  H155     1.0000 0.15370  0.08644  0.02936  Biso   1.000  H
  H156     1.0000 0.51294  0.37570  0.93922  Biso   1.000  H
  H157     1.0000 0.43118  0.49156  0.17345  Biso   1.000  H
  H158     1.0000 0.13875  0.41660  0.53906  Biso   1.000  H
  H159     1.0000 0.51621  0.13911  0.43763  Biso   1.000  H
  H160     1.0000 0.92953  0.49935  0.38270  Biso   1.000  H
  H161     1.0000 0.64522  0.41123  0.02197  Biso   1.000  H
  H162     1.0000 0.00886  0.13049  0.11796  Biso   1.000  H
  H163     1.0000 0.10530  0.99910  0.15991  Biso   1.000  H
  H164     1.0000 0.38205  0.91957  0.52085  Biso   1.000  H
  H165     1.0000 0.01769  0.63542  0.43197  Biso   1.000  H
  H166     1.0000 0.60471  0.01448  0.40182  Biso   1.000  H
  H167     1.0000 0.88205  0.90919  0.02983  Biso   1.000  H
  H168     1.0000 0.50897  0.63654  0.12953  Biso   1.000  H
  H169     1.0000 0.01716  0.08387  0.89191  Biso   1.000  H
  H170     1.0000 0.87782  0.99909  0.12572  Biso   1.000  H
  H171     1.0000 0.10543  0.86260  0.03055  Biso   1.000  H
  H172     1.0000 0.51773  0.10101  0.66680  Biso   1.000  H
  H173     1.0000 0.37822  0.99839  0.44201  Biso   1.000  H
  H174     1.0000 0.60842  0.86940  0.55326  Biso   1.000  H
  H175     1.0000 0.50032  0.60405  0.89716  Biso   1.000  H
  H176     1.0000 0.64605  0.50274  0.11476  Biso   1.000  H
  H177     1.0000 0.41727  0.36663  0.03312  Biso   1.000  H
  H178     1.0000 0.02469  0.58976  0.65263  Biso   1.000  H
  H179     1.0000 0.14983  0.50001  0.44847  Biso   1.000  H
  H180     1.0000 0.91241  0.37201  0.51600  Biso   1.000  H
  H181     1.0000 0.00416  0.90576  0.16300  Biso   1.000  H
  H182     1.0000 0.15204  0.00196  0.93776  Biso   1.000  H
  H183     1.0000 0.92638  0.13211  0.02619  Biso   1.000  H
  H184     1.0000 0.51786  0.91202  0.40896  Biso   1.000  H
  H185     1.0000 0.64588  0.99715  0.62451  Biso   1.000  H
  H186     1.0000 0.41818  0.14477  0.52258  Biso   1.000  H
  H187     1.0000 0.52668  0.40998  0.16885  Biso   1.000  H
  H188     1.0000 0.37849  0.49888  0.94354  Biso   1.000  H
  H189     1.0000 0.60600  0.63848  0.02088  Biso   1.000  H
  H190     1.0000 0.01558  0.41255  0.39076  Biso   1.000  H
  H191     1.0000 0.87477  0.51300  0.60911  Biso   1.000  H
  H192     1.0000 0.10789  0.64509  0.52750  Biso   1.000  H
  H193     1.0000 0.28746  0.86448  0.52619  Biso   1.000  H
  H194     1.0000 0.53674  0.28205  0.88281  Biso   1.000  H
  H195     1.0000 0.88080  0.50242  0.28576  Biso   1.000  H
  H196     1.0000 0.78888  0.85800  0.04828  Biso   1.000  H
  H197     1.0000 0.00921  0.27340  0.66702  Biso   1.000  H
  H198     1.0000 0.38128  0.48799  0.27193  Biso   1.000  H
  H199     1.0000 0.23050  0.35898  0.54382  Biso   1.000  H
  H200     1.0000 0.03519  0.76631  0.88821  Biso   1.000  H
  H201     1.0000 0.65309  0.98505  0.30843  Biso   1.000  H
  H202     1.0000 0.74342  0.36101  0.02490  Biso   1.000  H
  H203     1.0000 0.49299  0.78777  0.68256  Biso   1.000  H
  H204     1.0000 0.15600  0.98925  0.25754  Biso   1.000  H
  H205     1.0000 0.74252  0.14238  0.53683  Biso   1.000  H
  H206     1.0000 0.50028  0.72807  0.18410  Biso   1.000  H
  H207     1.0000 0.13323  0.47357  0.76910  Biso   1.000  H
  H208     1.0000 0.24478  0.14372  0.04499  Biso   1.000  H
  H209     1.0000 0.00162  0.73036  0.38020  Biso   1.000  H
  H210     1.0000 0.64537  0.51885  0.78891  Biso   1.000  H
  H211     1.0000 0.78965  0.65161  0.52204  Biso   1.000  H
  H212     1.0000 0.00127  0.22782  0.17129  Biso   1.000  H
  H213     1.0000 0.36978  0.00370  0.76147  Biso   1.000  H
  H214     1.0000 0.28744  0.63546  0.04275  Biso   1.000  H
  H215     1.0000 0.50309  0.22880  0.37499  Biso   1.000  H
  H216     1.0000 0.86883  0.99347  0.80088  Biso   1.000  H
  H217     1.0000 0.25110  0.49988  0.40126  Biso   1.000  H
  H218     1.0000 0.36235  0.24270  0.51870  Biso   1.000  H
  H219     1.0000 0.51715  0.35035  0.26379  Biso   1.000  H
  H220     1.0000 0.74719  0.48460  0.15482  Biso   1.000  H
  H221     1.0000 0.87260  0.23125  0.03534  Biso   1.000  H
  H222     1.0000 0.01097  0.36197  0.28998  Biso   1.000  H
  H223     1.0000 0.28364  0.01313  0.38689  Biso   1.000  H
  H224     1.0000 0.16741  0.73463  0.51429  Biso   1.000  H
  H225     1.0000 0.00182  0.85289  0.26086  Biso   1.000  H
  H226     1.0000 0.78103  0.99467  0.17411  Biso   1.000  H
  H227     1.0000 0.65602  0.73455  0.04101  Biso   1.000  H
  H228     1.0000 0.50459  0.85414  0.31146  Biso   1.000  H
  H229     1.0000 0.77507  0.51221  0.65951  Biso   1.000  H
  H230     1.0000 0.65992  0.77490  0.56653  Biso   1.000  H
  H231     1.0000 0.50215  0.66353  0.80570  Biso   1.000  H
  H232     1.0000 0.27816  0.48610  0.89988  Biso   1.000  H
  H233     1.0000 0.15920  0.76536  0.03915  Biso   1.000  H
  H234     1.0000 0.02565  0.63564  0.75386  Biso   1.000  H
  H235     1.0000 0.74453  0.01609  0.66968  Biso   1.000  H
  H236     1.0000 0.85679  0.27628  0.53256  Biso   1.000  H
  H237     1.0000 0.02273  0.13236  0.79422  Biso   1.000  H
  H238     1.0000 0.24876  0.98687  0.88244  Biso   1.000  H
  H239     1.0000 0.37283  0.26827  0.03181  Biso   1.000  H
  H240     1.0000 0.52373  0.15962  0.75769  Biso   1.000  H
  H241     1.0000 0.73478  0.49943  0.86843  Biso   1.000  H
  H242     1.0000 0.87881  0.73197  0.54873  Biso   1.000  H
  H243     1.0000 0.52335  0.86978  0.76633  Biso   1.000  H
  H244     1.0000 0.23506  0.47464  0.69296  Biso   1.000  H
  H245     1.0000 0.36638  0.72417  0.06068  Biso   1.000  H
  H246     1.0000 0.01811  0.84589  0.80044  Biso   1.000  H
  H247     1.0000 0.78147  0.99820  0.88793  Biso   1.000  H
  H248     1.0000 0.65607  0.22817  0.55307  Biso   1.000  H
  H249     1.0000 0.98627  0.35600  0.75545  Biso   1.000  H
  H250     1.0000 0.28943  0.97790  0.67054  Biso   1.000  H
  H251     1.0000 0.15707  0.22130  0.01302  Biso   1.000  H
  H252     1.0000 0.50643  0.36783  0.80039  Biso   1.000  H
  H253     1.0000 0.29497  0.50587  0.18648  Biso   1.000  H
  H254     1.0000 0.14576  0.27951  0.53565  Biso   1.000  H
  H255     1.0000 0.50869  0.14005  0.29474  Biso   1.000  H
  H256     1.0000 0.79439  0.48489  0.36506  Biso   1.000  H
  H257     1.0000 0.65830  0.27391  0.03675  Biso   1.000  H
  H258     1.0000 0.02850  0.13884  0.25447  Biso   1.000  H
  H259     1.0000 0.24553  0.99666  0.18125  Biso   1.000  H
  H260     1.0000 0.37393  0.78283  0.51310  Biso   1.000  H
  H261     1.0000 0.01148  0.64728  0.29119  Biso   1.000  H
  H262     1.0000 0.74209  0.00371  0.38708  Biso   1.000  H
  H263     1.0000 0.87245  0.77444  0.01912  Biso   1.000  H
  H264     1.0000 0.51951  0.64804  0.26579  Biso   1.000  H
  H265     1.0000 0.00771  0.22006  0.87619  Biso   1.000  H
  H266     1.0000 0.86906  0.98677  0.26088  Biso   1.000  H
  H267     1.0000 0.24430  0.85179  0.04032  Biso   1.000  H
  H268     1.0000 0.52040  0.23938  0.67086  Biso   1.000  H
  H269     1.0000 0.36643  0.99777  0.29775  Biso   1.000  H
  H270     1.0000 0.74654  0.85629  0.53325  Biso   1.000  H
  H271     1.0000 0.49590  0.73972  0.89928  Biso   1.000  H
  H272     1.0000 0.67705  0.49239  0.25087  Biso   1.000  H
  H273     1.0000 0.28577  0.35121  0.05407  Biso   1.000  H
  H274     1.0000 0.04508  0.72831  0.67103  Biso   1.000  H
  H275     1.0000 0.17001  0.48299  0.31255  Biso   1.000  H
  H276     1.0000 0.77259  0.36308  0.53493  Biso   1.000  H
  H277     1.0000 0.98402  0.77020  0.17178  Biso   1.000  H
  H278     1.0000 0.16099  0.99092  0.79853  Biso   1.000  H
  H279     1.0000 0.78741  0.14120  0.03778  Biso   1.000  H
  H280     1.0000 0.51980  0.76964  0.39852  Biso   1.000  H
  H281     1.0000 0.65812  0.01020  0.76454  Biso   1.000  H
  H282     1.0000 0.28301  0.14467  0.55114  Biso   1.000  H
  H283     1.0000 0.49819  0.27377  0.16763  Biso   1.000  H
  H284     1.0000 0.36030  0.49296  0.80459  Biso   1.000  H
  H285     1.0000 0.74308  0.64635  0.01609  Biso   1.000  H
  H286     1.0000 0.99799  0.27498  0.37924  Biso   1.000  H
  H287     1.0000 0.86020  0.52306  0.75094  Biso   1.000  H
  H288     1.0000 0.24640  0.64725  0.54101  Biso   1.000  H
  H289     1.0000 0.10436  0.22127  0.00703  Biso   1.000  H
  H290     1.0000 0.02250  0.08309  0.25366  Biso   1.000  H
  H291     1.0000 0.24579  0.99689  0.12698  Biso   1.000  H
  H292     1.0000 0.60161  0.22930  0.55765  Biso   1.000  H
  H293     1.0000 0.52063  0.08605  0.29637  Biso   1.000  H
  H294     1.0000 0.74186  0.01719  0.44186  Biso   1.000  H
  H295     1.0000 0.42338  0.72674  0.06048  Biso   1.000  H
  H296     1.0000 0.52012  0.59447  0.26767  Biso   1.000  H
  H297     1.0000 0.29437  0.50748  0.13507  Biso   1.000  H
  H298     1.0000 0.93009  0.72889  0.54365  Biso   1.000  H
  H299     1.0000 0.01879  0.59231  0.29280  Biso   1.000  H
  H300     1.0000 0.78806  0.48602  0.41981  Biso   1.000  H
  H301     1.0000 0.92678  0.77650  0.00894  Biso   1.000  H
  H302     1.0000 0.01270  0.90422  0.79802  Biso   1.000  H
  H303     1.0000 0.78221  0.00069  0.94063  Biso   1.000  H
  H304     1.0000 0.42937  0.78419  0.51145  Biso   1.000  H
  H305     1.0000 0.53450  0.92502  0.76343  Biso   1.000  H
  H306     1.0000 0.29084  0.97851  0.61398  Biso   1.000  H
  H307     1.0000 0.60557  0.27706  0.03630  Biso   1.000  H
  H308     1.0000 0.50015  0.42297  0.80440  Biso   1.000  H
  H309     1.0000 0.73657  0.49896  0.92588  Biso   1.000  H
  H310     1.0000 0.09385  0.28132  0.53229  Biso   1.000  H
  H311     1.0000 0.98185  0.40901  0.75525  Biso   1.000  H
  H312     1.0000 0.23790  0.48850  0.63890  Biso   1.000  H
  H313     1.0000 0.24724  0.98967  0.93697  Biso   1.000  H
  H314     1.0000 0.92787  0.22987  0.02835  Biso   1.000  H
  H315     1.0000 0.00170  0.90694  0.26095  Biso   1.000  H
  H316     1.0000 0.74165  0.00286  0.61748  Biso   1.000  H
  H317     1.0000 0.41493  0.24087  0.51306  Biso   1.000  H
  H318     1.0000 0.49780  0.90945  0.31299  Biso   1.000  H
  H319     1.0000 0.28623  0.49030  0.95596  Biso   1.000  H
  H320     1.0000 0.60286  0.73239  0.04831  Biso   1.000  H
  H321     1.0000 0.51714  0.40590  0.26657  Biso   1.000  H
  H322     1.0000 0.77810  0.51180  0.60540  Biso   1.000  H
  H323     1.0000 0.11239  0.73908  0.50480  Biso   1.000  H
  H324     1.0000 0.01865  0.41347  0.29314  Biso   1.000  H
  H325     1.0000 0.78211  0.99738  0.12215  Biso   1.000  H
  H326     1.0000 0.10390  0.76882  0.03386  Biso   1.000  H
  H327     1.0000 0.01762  0.08157  0.79518  Biso   1.000  H
  H328     1.0000 0.28238  0.01583  0.43987  Biso   1.000  H
  H329     1.0000 0.60528  0.77471  0.56248  Biso   1.000  H
  H330     1.0000 0.52637  0.10292  0.76147  Biso   1.000  H
  H331     1.0000 0.74026  0.48249  0.10042  Biso   1.000  H
  H332     1.0000 0.42428  0.27194  0.02768  Biso   1.000  H
  H333     1.0000 0.49576  0.60664  0.80127  Biso   1.000  H
  H334     1.0000 0.24480  0.50497  0.45901  Biso   1.000  H
  H335     1.0000 0.91076  0.27605  0.52867  Biso   1.000  H
  H336     1.0000 0.02458  0.58464  0.74750  Biso   1.000  H
  H337     1.0000 0.00269  0.22095  0.93254  Biso   1.000  H
  H338     1.0000 0.92634  0.99674  0.25901  Biso   1.000  H
  H339     1.0000 0.24439  0.90362  0.03781  Biso   1.000  H
  H340     1.0000 0.51406  0.23761  0.61549  Biso   1.000  H
  H341     1.0000 0.42034  0.99182  0.30146  Biso   1.000  H
  H342     1.0000 0.74239  0.91270  0.52550  Biso   1.000  H
  H343     1.0000 0.49660  0.73537  0.95224  Biso   1.000  H
  H344     1.0000 0.62120  0.49728  0.25908  Biso   1.000  H
  H345     1.0000 0.28477  0.40539  0.05709  Biso   1.000  H
  H346     1.0000 0.04069  0.73117  0.61571  Biso   1.000  H
  H347     1.0000 0.11795  0.49307  0.30788  Biso   1.000  H
  H348     1.0000 0.77288  0.41904  0.53354  Biso   1.000  H
  H349     1.0000 0.98100  0.77171  0.11844  Biso   1.000  H
  H350     1.0000 0.10546  0.98991  0.80035  Biso   1.000  H
  H351     1.0000 0.78924  0.08943  0.03177  Biso   1.000  H
  H352     1.0000 0.53142  0.77354  0.45276  Biso   1.000  H
  H353     1.0000 0.60486  0.01023  0.76088  Biso   1.000  H
  H354     1.0000 0.29009  0.09490  0.55302  Biso   1.000  H
  H355     1.0000 0.50228  0.27681  0.11345  Biso   1.000  H
  H356     1.0000 0.41147  0.49568  0.80594  Biso   1.000  H
  H357     1.0000 0.74109  0.59032  0.01416  Biso   1.000  H
  H358     1.0000 0.99872  0.27639  0.43220  Biso   1.000  H
  H359     1.0000 0.91402  0.52424  0.74954  Biso   1.000  H
  H360     1.0000 0.23950  0.59660  0.55421  Biso   1.000  H
  H361     1.0000 0.00780  0.73119  0.43432  Biso   1.000  H
  H362     1.0000 0.42471  0.01644  0.76126  Biso   1.000  H
  H363     1.0000 0.74184  0.41442  0.02025  Biso   1.000  H
  H364     1.0000 0.50454  0.73120  0.13128  Biso   1.000  H
  H365     1.0000 0.91806  0.98532  0.79754  Biso   1.000  H
  H366     1.0000 0.23551  0.41382  0.54743  Biso   1.000  H
  H367     1.0000 0.50642  0.23310  0.43096  Biso   1.000  H
  H368     1.0000 0.08437  0.48240  0.76152  Biso   1.000  H
  H369     1.0000 0.78959  0.91273  0.05347  Biso   1.000  H
  H370     1.0000 0.00295  0.22654  0.11992  Biso   1.000  H
  H371     1.0000 0.59472  0.52604  0.79435  Biso   1.000  H
  H372     1.0000 0.28606  0.91966  0.52733  Biso   1.000  H
  H373     1.0000 0.00228  0.27510  0.61212  Biso   1.000  H
  H374     1.0000 0.60012  0.98089  0.31268  Biso   1.000  H
  H375     1.0000 0.29235  0.58261  0.03763  Biso   1.000  H
  H376     1.0000 0.53979  0.28141  0.93586  Biso   1.000  H
  H377     1.0000 0.10133  0.99259  0.25629  Biso   1.000  H
  H378     1.0000 0.78708  0.59523  0.52182  Biso   1.000  H
  H379     1.0000 0.48628  0.79009  0.62854  Biso   1.000  H
  H380     1.0000 0.93306  0.51073  0.28692  Biso   1.000  H
  H381     1.0000 0.24627  0.09070  0.05108  Biso   1.000  H
  H382     1.0000 0.03545  0.77104  0.94180  Biso   1.000  H
  H383     1.0000 0.43607  0.48476  0.26910  Biso   1.000  H
  H384     1.0000 0.73843  0.08860  0.53294  Biso   1.000  H
  H385     1.0000 0.25359  0.46419  0.36990  Biso   1.000  H
  H386     1.0000 0.27439  0.17592  0.51709  Biso   1.000  H
  H387     1.0000 0.48485  0.32533  0.25885  Biso   1.000  H
  H388     1.0000 0.69809  0.45019  0.23866  Biso   1.000  H
  H389     1.0000 0.83732  0.22291  0.06861  Biso   1.000  H
  H390     1.0000 0.96926  0.27814  0.34472  Biso   1.000  H
  H391     1.0000 0.28705  0.96992  0.36159  Biso   1.000  H
  H392     1.0000 0.19848  0.72377  0.48364  Biso   1.000  H
  H393     1.0000 0.02669  0.77252  0.20010  Biso   1.000  H
  H394     1.0000 0.79155  0.96329  0.21033  Biso   1.000  H
  H395     1.0000 0.73760  0.67529  0.05814  Biso   1.000  H
  H396     1.0000 0.47130  0.81869  0.32713  Biso   1.000  H
  H397     1.0000 0.77818  0.54966  0.69393  Biso   1.000  H
  H398     1.0000 0.74409  0.83242  0.57391  Biso   1.000  H
  H399     1.0000 0.46677  0.69178  0.81103  Biso   1.000  H
  H400     1.0000 0.31981  0.51619  0.81455  Biso   1.000  H
  H401     1.0000 0.24044  0.81986  0.01073  Biso   1.000  H
  H402     1.0000 0.05763  0.66625  0.75437  Biso   1.000  H
  H403     1.0000 0.74060  0.98326  0.70080  Biso   1.000  H
  H404     1.0000 0.77934  0.33289  0.56373  Biso   1.000  H
  H405     1.0000 0.03991  0.22125  0.84849  Biso   1.000  H
  H406     1.0000 0.24297  0.01817  0.84953  Biso   1.000  H
  H407     1.0000 0.28375  0.32452  0.01903  Biso   1.000  H
  H408     1.0000 0.49003  0.18678  0.75509  Biso   1.000  H
  H409     1.0000 0.29777  0.46546  0.21313  Biso   1.000  H
  H410     1.0000 0.18137  0.28892  0.50001  Biso   1.000  H
  H411     1.0000 0.46830  0.21553  0.34400  Biso   1.000  H
  H412     1.0000 0.85672  0.46514  0.29037  Biso   1.000  H
  H413     1.0000 0.68486  0.27597  0.00020  Biso   1.000  H
  H414     1.0000 0.99663  0.16536  0.26266  Biso   1.000  H
  H415     1.0000 0.18092  0.02313  0.25919  Biso   1.000  H
  H416     1.0000 0.28973  0.83332  0.48987  Biso   1.000  H
  H417     1.0000 0.97154  0.66818  0.30336  Biso   1.000  H
  H418     1.0000 0.73976  0.97149  0.36114  Biso   1.000  H
  H419     1.0000 0.84747  0.76982  0.05366  Biso   1.000  H
  H420     1.0000 0.48257  0.67430  0.26450  Biso   1.000  H
  H421     1.0000 0.73198  0.54202  0.84309  Biso   1.000  H
  H422     1.0000 0.79600  0.67335  0.56065  Biso   1.000  H
  H423     1.0000 0.55248  0.82462  0.75417  Biso   1.000  H
  H424     1.0000 0.16606  0.49721  0.77493  Biso   1.000  H
  H425     1.0000 0.34120  0.72096  0.01606  Biso   1.000  H
  H426     1.0000 0.07173  0.78213  0.84399  Biso   1.000  H
  H427     1.0000 0.84157  0.02563  0.80857  Biso   1.000  H
  H428     1.0000 0.74538  0.17284  0.55994  Biso   1.000  H
  H429     1.0000 0.02364  0.32581  0.75983  Biso   1.000  H
  H430     1.0000 0.34626  0.96048  0.75381  Biso   1.000  H
  H431     1.0000 0.24452  0.17104  0.00594  Biso   1.000  H
  H432     1.0000 0.49818  0.28327  0.85900  Biso   1.000  H
  H433     1.0000 0.28455  0.01510  0.70323  Biso   1.000  H
  H434     1.0000 0.74480  0.32962  0.05409  Biso   1.000  H
  H435     1.0000 0.02829  0.73170  0.34564  Biso   1.000  H
  H436     1.0000 0.78027  0.96834  0.85714  Biso   1.000  H
  H437     1.0000 0.22318  0.32678  0.57777  Biso   1.000  H
  H438     1.0000 0.53914  0.73142  0.21450  Biso   1.000  H
  H439     1.0000 0.22387  0.44011  0.72028  Biso   1.000  H
  H440     1.0000 0.79039  0.83119  0.01493  Biso   1.000  H
  H441     1.0000 0.54069  0.17167  0.29816  Biso   1.000  H
  H442     1.0000 0.67777  0.47980  0.79409  Biso   1.000  H
  H443     1.0000 0.34515  0.78561  0.55173  Biso   1.000  H
  H444     1.0000 0.03021  0.22884  0.19858  Biso   1.000  H
  H445     1.0000 0.68216  0.02757  0.30713  Biso   1.000  H
  H446     1.0000 0.28575  0.66512  0.07041  Biso   1.000  H
  H447     1.0000 0.97931  0.26891  0.69454  Biso   1.000  H
  H448     1.0000 0.23796  0.96545  0.20757  Biso   1.000  H
  H449     1.0000 0.84824  0.73850  0.51477  Biso   1.000  H
  H450     1.0000 0.54078  0.34531  0.79940  Biso   1.000  H
  H451     1.0000 0.78831  0.51881  0.33491  Biso   1.000  H
  H452     1.0000 0.18450  0.22206  0.05885  Biso   1.000  H
  H453     1.0000 0.46726  0.80700  0.71869  Biso   1.000  H
  H454     1.0000 0.35259  0.52054  0.26852  Biso   1.000  H
  H455     1.0000 0.67895  0.23386  0.51705  Biso   1.000  H
  H456     1.0000 0.98764  0.81205  0.81495  Biso   1.000  H
  H457     1.0000 0.68774  0.77216  0.53030  Biso   1.000  H
  H458     1.0000 0.53024  0.73925  0.86584  Biso   1.000  H
  H459     1.0000 0.83022  0.48268  0.74098  Biso   1.000  H
  H460     1.0000 0.18947  0.76958  0.07659  Biso   1.000  H
  H461     1.0000 0.00639  0.72433  0.69750  Biso   1.000  H
  H462     1.0000 0.28654  0.44806  0.87223  Biso   1.000  H
  H463     1.0000 0.82425  0.28247  0.49708  Biso   1.000  H
  H464     1.0000 0.99328  0.16062  0.79067  Biso   1.000  H
  H465     1.0000 0.68890  0.03625  0.75735  Biso   1.000  H
  H466     1.0000 0.34344  0.26721  0.06591  Biso   1.000  H
  H467     1.0000 0.54837  0.24080  0.69996  Biso   1.000  H
  H468     1.0000 0.18791  0.95147  0.80111  Biso   1.000  H
  H469     1.0000 0.33718  0.24042  0.55327  Biso   1.000  H
  H470     1.0000 0.53297  0.26855  0.19362  Biso   1.000  H
  H471     1.0000 0.19675  0.51852  0.31415  Biso   1.000  H
  H472     1.0000 0.79328  0.17754  0.99670  Biso   1.000  H
  H473     1.0000 0.04286  0.32367  0.30368  Biso   1.000  H
  H474     1.0000 0.74764  0.51833  0.19070  Biso   1.000  H
  H475     1.0000 0.23673  0.68626  0.56342  Biso   1.000  H
  H476     1.0000 0.96296  0.82457  0.25234  Biso   1.000  H
  H477     1.0000 0.33124  0.03396  0.30632  Biso   1.000  H
  H478     1.0000 0.68713  0.73442  0.99817  Biso   1.000  H
  H479     1.0000 0.55181  0.77568  0.36112  Biso   1.000  H
  H480     1.0000 0.83706  0.02917  0.25994  Biso   1.000  H
  N1       1.0000 0.68937  0.17813  0.54037  Biso   1.000  N
  N2       1.0000 0.50974  0.67785  0.21594  Biso   1.000  N
  N3       1.0000 0.17534  0.47430  0.72011  Biso   1.000  N
  N4       1.0000 0.19247  0.17266  0.03014  Biso   1.000  N
  N5       1.0000 0.00500  0.67761  0.34627  Biso   1.000  N
  N6       1.0000 0.68226  0.51229  0.84194  Biso   1.000  N
  N7       1.0000 0.84391  0.68037  0.53406  Biso   1.000  N
  N8       1.0000 0.01348  0.17162  0.20450  Biso   1.000  N
  N9       1.0000 0.33881  0.99288  0.70637  Biso   1.000  N
  N10      1.0000 0.33858  0.67132  0.04490  Biso   1.000  N
  N11      1.0000 0.51021  0.17228  0.34843  Biso   1.000  N
  N12      1.0000 0.83600  0.99612  0.85567  Biso   1.000  N
  N13      1.0000 0.34198  0.83280  0.52355  Biso   1.000  N
  N14      1.0000 0.52001  0.33605  0.85335  Biso   1.000  N
  N15      1.0000 0.84524  0.49555  0.33799  Biso   1.000  N
  N16      1.0000 0.84083  0.82556  0.03506  Biso   1.000  N
  N17      1.0000 0.99901  0.32192  0.70243  Biso   1.000  N
  N18      1.0000 0.34729  0.49332  0.21868  Biso   1.000  N
  N19      1.0000 0.18015  0.33085  0.53907  Biso   1.000  N
  N20      1.0000 0.02897  0.81875  0.85311  Biso   1.000  N
  N21      1.0000 0.68795  0.99778  0.35751  Biso   1.000  N
  N22      1.0000 0.69183  0.32742  0.02740  Biso   1.000  N
  N23      1.0000 0.51097  0.83949  0.71538  Biso   1.000  N
  N24      1.0000 0.18942  0.99635  0.20700  Biso   1.000  N
  N25      1.0000 0.82734  0.51650  0.69398  Biso   1.000  N
  N26      1.0000 0.69311  0.82527  0.55122  Biso   1.000  N
  N27      1.0000 0.49928  0.69190  0.86176  Biso   1.000  N
  N28      1.0000 0.32840  0.48804  0.86307  Biso   1.000  N
  N29      1.0000 0.19257  0.81876  0.04490  Biso   1.000  N
  N30      1.0000 0.03495  0.67165  0.70233  Biso   1.000  N
  N31      1.0000 0.69266  0.01082  0.70713  Biso   1.000  N
  N32      1.0000 0.82490  0.33041  0.52737  Biso   1.000  N
  N33      1.0000 0.01401  0.16775  0.84522  Biso   1.000  N
  N34      1.0000 0.19313  0.98838  0.85063  Biso   1.000  N
  N35      1.0000 0.33743  0.32022  0.04423  Biso   1.000  N
  N36      1.0000 0.51835  0.18795  0.70453  Biso   1.000  N
  N37      1.0000 0.19846  0.49299  0.36613  Biso   1.000  N
  N38      1.0000 0.33372  0.18529  0.53685  Biso   1.000  N
  N39      1.0000 0.51175  0.32496  0.20605  Biso   1.000  N
  N40      1.0000 0.69787  0.48908  0.19512  Biso   1.000  N
  N41      1.0000 0.83908  0.17706  0.03214  Biso   1.000  N
  N42      1.0000 0.00424  0.32843  0.34436  Biso   1.000  N
  N43      1.0000 0.33551  0.00195  0.35499  Biso   1.000  N
  N44      1.0000 0.19419  0.68223  0.52648  Biso   1.000  N
  N45      1.0000 0.99563  0.82217  0.20365  Biso   1.000  N
  N46      1.0000 0.83737  0.99308  0.21064  Biso   1.000  N
  N47      1.0000 0.68956  0.68062  0.02566  Biso   1.000  N
  N48      1.0000 0.51415  0.82401  0.36640  Biso   1.000  N
  O1       1.0000 0.36435  0.53799  0.03594  Biso   1.000  O
  O2       1.0000 0.99879  0.34918  0.56599  Biso   1.000  O
  O3       1.0000 0.55115  0.00831  0.37672  Biso   1.000  O
  O4       1.0000 0.85510  0.54344  0.51858  Biso   1.000  O
  O5       1.0000 0.51317  0.35088  0.98454  Biso   1.000  O
  O6       1.0000 0.05313  0.99655  0.18144  Biso   1.000  O
  O7       1.0000 0.17657  0.03993  0.03398  Biso   1.000  O
  O8       1.0000 0.50748  0.85611  0.57871  Biso   1.000  O
  O9       1.0000 0.97777  0.49975  0.36194  Biso   1.000  O
  O10      1.0000 0.66989  0.04217  0.53261  Biso   1.000  O
  O11      1.0000 0.01968  0.84366  0.98799  Biso   1.000  O
  O12      1.0000 0.48055  0.49794  0.19308  Biso   1.000  O
  O13      1.0000 0.66924  0.46179  0.01629  Biso   1.000  O
  O14      1.0000 0.01763  0.65722  0.48091  Biso   1.000  O
  O15      1.0000 0.47405  0.01375  0.69090  Biso   1.000  O
  O16      1.0000 0.16480  0.46747  0.53862  Biso   1.000  O
  O17      1.0000 0.51801  0.66069  0.08208  Biso   1.000  O
  O18      1.0000 0.97065  0.98884  0.87482  Biso   1.000  O
  O19      1.0000 0.86113  0.95963  0.03657  Biso   1.000  O
  O20      1.0000 0.51502  0.16160  0.48465  Biso   1.000  O
  O21      1.0000 0.04292  0.48655  0.68037  Biso   1.000  O
  O22      1.0000 0.35957  0.96702  0.52466  Biso   1.000  O
  O23      1.0000 0.01145  0.15224  0.06889  Biso   1.000  O
  O24      1.0000 0.54960  0.51540  0.86837  Biso   1.000  O
  O25      1.0000 0.96952  0.99480  0.18601  Biso   1.000  O
  O26      1.0000 0.17267  0.95577  0.02710  Biso   1.000  O
  O27      1.0000 0.01441  0.14857  0.98273  Biso   1.000  O
  O28      1.0000 0.46996  0.00101  0.37341  Biso   1.000  O
  O29      1.0000 0.66945  0.95684  0.52953  Biso   1.000  O
  O30      1.0000 0.50579  0.16284  0.57014  Biso   1.000  O
  O31      1.0000 0.56448  0.50087  0.19117  Biso   1.000  O
  O32      1.0000 0.35713  0.45367  0.04652  Biso   1.000  O
  O33      1.0000 0.51098  0.66200  0.99426  Biso   1.000  O
  O34      1.0000 0.06039  0.50548  0.37127  Biso   1.000  O
  O35      1.0000 0.84628  0.46218  0.51809  Biso   1.000  O
  O36      1.0000 0.03117  0.65816  0.56611  Biso   1.000  O
  O37      1.0000 0.05598  0.99396  0.87270  Biso   1.000  O
  O38      1.0000 0.86115  0.04032  0.02604  Biso   1.000  O
  O39      1.0000 0.01059  0.84227  0.07042  Biso   1.000  O
  O40      1.0000 0.55686  0.01794  0.69137  Biso   1.000  O
  O41      1.0000 0.35973  0.04933  0.53937  Biso   1.000  O
  O42      1.0000 0.53377  0.84807  0.49915  Biso   1.000  O
  O43      1.0000 0.46520  0.51049  0.87479  Biso   1.000  O
  O44      1.0000 0.66858  0.54542  0.02118  Biso   1.000  O
  O45      1.0000 0.51360  0.34813  0.06950  Biso   1.000  O
  O46      1.0000 0.96170  0.50527  0.67842  Biso   1.000  O
  O47      1.0000 0.16801  0.55180  0.54618  Biso   1.000  O
  O48      1.0000 0.00460  0.34937  0.48012  Biso   1.000  O
  O49      1.0000 0.00857  0.95381  0.18458  Biso   1.000  O
  O50      1.0000 0.17772  0.99665  0.98917  Biso   1.000  O
  O51      1.0000 0.97499  0.15599  0.02515  Biso   1.000  O
  O52      1.0000 0.51469  0.96210  0.38104  Biso   1.000  O
  O53      1.0000 0.66810  0.99762  0.57286  Biso   1.000  O
  O54      1.0000 0.46771  0.17058  0.52201  Biso   1.000  O
  O55      1.0000 0.52050  0.45869  0.19622  Biso   1.000  O
  O56      1.0000 0.36030  0.49053  0.99942  Biso   1.000  O
  O57      1.0000 0.55467  0.66306  0.03519  Biso   1.000  O
  O58      1.0000 0.02288  0.46124  0.36768  Biso   1.000  O
  O59      1.0000 0.85172  0.50405  0.55809  Biso   1.000  O
  O60      1.0000 0.06299  0.66294  0.51717  Biso   1.000  O
  O61      1.0000 0.01048  0.03485  0.87199  Biso   1.000  O
  O62      1.0000 0.85792  0.00255  0.07416  Biso   1.000  O
  O63      1.0000 0.05728  0.83931  0.03506  Biso   1.000  O
  O64      1.0000 0.50955  0.05586  0.69249  Biso   1.000  O
  O65      1.0000 0.35832  0.01348  0.48735  Biso   1.000  O
  O66      1.0000 0.55935  0.84896  0.55332  Biso   1.000  O
  O67      1.0000 0.50214  0.55703  0.87358  Biso   1.000  O
  O68      1.0000 0.66703  0.50146  0.06030  Biso   1.000  O
  O69      1.0000 0.47168  0.34769  0.02462  Biso   1.000  O
  O70      1.0000 0.00887  0.53982  0.67536  Biso   1.000  O
  O71      1.0000 0.16815  0.51075  0.49975  Biso   1.000  O
  O72      1.0000 0.95978  0.35228  0.52355  Biso   1.000  O
  O73      1.0000 0.99468  0.45647  0.68246  Biso   1.000  O
  O74      1.0000 0.67234  0.99954  0.48849  Biso   1.000  O
  O75      1.0000 0.47329  0.66009  0.04190  Biso   1.000  O
  O76      1.0000 0.51139  0.47113  0.87394  Biso   1.000  O
  O77      1.0000 0.17570  0.99650  0.07372  Biso   1.000  O
  O78      1.0000 0.98280  0.65730  0.53382  Biso   1.000  O
  O79      1.0000 0.52043  0.97295  0.69097  Biso   1.000  O
  O80      1.0000 0.85641  0.50018  0.47474  Biso   1.000  O
  O81      1.0000 0.05754  0.15102  0.02378  Biso   1.000  O
  O82      1.0000 0.01476  0.95068  0.87140  Biso   1.000  O
  O83      1.0000 0.36277  0.50061  0.08245  Biso   1.000  O
  O84      1.0000 0.55164  0.15985  0.53357  Biso   1.000  O
  O85      1.0000 0.01752  0.54379  0.36559  Biso   1.000  O
  O86      1.0000 0.36210  0.00545  0.57138  Biso   1.000  O
  O87      1.0000 0.55763  0.35028  0.02942  Biso   1.000  O
  O88      1.0000 0.52225  0.54101  0.19578  Biso   1.000  O
  O89      1.0000 0.85680  0.99578  0.98782  Biso   1.000  O
  O90      1.0000 0.04376  0.35208  0.52392  Biso   1.000  O
  O91      1.0000 0.51159  0.04365  0.36952  Biso   1.000  O
  O92      1.0000 0.16921  0.50399  0.58403  Biso   1.000  O
  O93      1.0000 0.97330  0.84792  0.02995  Biso   1.000  O
  O94      1.0000 0.00998  0.03597  0.18039  Biso   1.000  O
  O95      1.0000 0.66773  0.50543  0.97692  Biso   1.000  O
  O96      1.0000 0.47941  0.85217  0.52705  Biso   1.000  O
  O97      1.0000 0.46871  0.21830  0.51948  Biso   1.000  O
  O98      1.0000 0.53018  0.45743  0.24404  Biso   1.000  O
  O99      1.0000 0.21681  0.50818  0.50280  Biso   1.000  O
  O100     1.0000 0.97724  0.20409  0.02681  Biso   1.000  O
  O101     1.0000 0.01807  0.46096  0.31811  Biso   1.000  O
  O102     1.0000 0.71622  0.50302  0.06149  Biso   1.000  O
  O103     1.0000 0.05945  0.71251  0.51684  Biso   1.000  O
  O104     1.0000 0.01843  0.95610  0.23348  Biso   1.000  O
  O105     1.0000 0.30975  0.01424  0.49017  Biso   1.000  O
  O106     1.0000 0.55624  0.71142  0.03713  Biso   1.000  O
  O107     1.0000 0.51180  0.95496  0.33274  Biso   1.000  O
  O108     1.0000 0.80863  0.00788  0.07507  Biso   1.000  O
  O109     1.0000 0.55902  0.79917  0.55506  Biso   1.000  O
  O110     1.0000 0.49396  0.55530  0.82546  Biso   1.000  O
  O111     1.0000 0.80269  0.51106  0.55616  Biso   1.000  O
  O112     1.0000 0.05549  0.78985  0.03781  Biso   1.000  O
  O113     1.0000 0.01468  0.54009  0.72403  Biso   1.000  O
  O114     1.0000 0.31189  0.49706  0.00081  Biso   1.000  O
  O115     1.0000 0.96184  0.30271  0.52023  Biso   1.000  O
  O116     1.0000 0.01581  0.03174  0.82358  Biso   1.000  O
  O117     1.0000 0.71767  0.99759  0.57103  Biso   1.000  O
  O118     1.0000 0.47352  0.29744  0.02565  Biso   1.000  O
  O119     1.0000 0.51270  0.05646  0.74304  Biso   1.000  O
  O120     1.0000 0.22537  0.99236  0.98558  Biso   1.000  O
  O121     1.0000 0.03904  0.49010  0.72941  Biso   1.000  O
  O122     1.0000 0.71829  0.04342  0.53466  Biso   1.000  O
  O123     1.0000 0.51827  0.70958  0.08230  Biso   1.000  O
  O124     1.0000 0.54539  0.52019  0.82074  Biso   1.000  O
  O125     1.0000 0.22610  0.03693  0.03014  Biso   1.000  O
  O126     1.0000 0.01401  0.70536  0.48324  Biso   1.000  O
  O127     1.0000 0.47219  0.00946  0.73923  Biso   1.000  O
  O128     1.0000 0.80879  0.54823  0.50811  Biso   1.000  O
  O129     1.0000 0.01597  0.20094  0.06681  Biso   1.000  O
  O130     1.0000 0.97279  0.99198  0.82523  Biso   1.000  O
  O131     1.0000 0.31613  0.53880  0.04176  Biso   1.000  O
  O132     1.0000 0.51739  0.21051  0.48300  Biso   1.000  O
  O133     1.0000 0.98323  0.50922  0.31522  Biso   1.000  O
  O134     1.0000 0.31211  0.96778  0.52591  Biso   1.000  O
  O135     1.0000 0.51201  0.30220  0.98430  Biso   1.000  O
  O136     1.0000 0.48405  0.49693  0.24155  Biso   1.000  O
  O137     1.0000 0.81253  0.96099  0.03817  Biso   1.000  O
  O138     1.0000 0.00465  0.30024  0.56523  Biso   1.000  O
  O139     1.0000 0.55346  0.99883  0.32873  Biso   1.000  O
  O140     1.0000 0.21444  0.46594  0.54615  Biso   1.000  O
  O141     1.0000 0.02436  0.79477  0.98932  Biso   1.000  O
  O142     1.0000 0.05370  0.00051  0.23009  Biso   1.000  O
  O143     1.0000 0.71743  0.46194  0.02381  Biso   1.000  O
  O144     1.0000 0.50657  0.80809  0.57946  Biso   1.000  O
  O145     1.0000 0.56950  0.50057  0.24061  Biso   1.000  O
  O146     1.0000 0.21649  0.55090  0.54851  Biso   1.000  O
  O147     1.0000 0.50914  0.21143  0.57027  Biso   1.000  O
  O148     1.0000 0.06851  0.49501  0.32497  Biso   1.000  O
  O149     1.0000 0.71594  0.54517  0.01474  Biso   1.000  O
  O150     1.0000 0.01549  0.19731  0.98159  Biso   1.000  O
  O151     1.0000 0.97278  0.99174  0.23389  Biso   1.000  O
  O152     1.0000 0.31249  0.05026  0.53731  Biso   1.000  O
  O153     1.0000 0.03079  0.70702  0.56630  Biso   1.000  O
  O154     1.0000 0.47004  0.99418  0.32558  Biso   1.000  O
  O155     1.0000 0.81219  0.04224  0.02549  Biso   1.000  O
  O156     1.0000 0.51381  0.71022  0.99607  Biso   1.000  O
  O157     1.0000 0.46292  0.50803  0.82653  Biso   1.000  O
  O158     1.0000 0.79720  0.46615  0.51540  Biso   1.000  O
  O159     1.0000 0.53168  0.79932  0.49930  Biso   1.000  O
  O160     1.0000 0.96154  0.51156  0.72838  Biso   1.000  O
  O161     1.0000 0.30883  0.45498  0.04472  Biso   1.000  O
  O162     1.0000 0.00545  0.79556  0.07151  Biso   1.000  O
  O163     1.0000 0.05712  0.98662  0.82465  Biso   1.000  O
  O164     1.0000 0.71885  0.95854  0.53042  Biso   1.000  O
  O165     1.0000 0.00770  0.29977  0.48042  Biso   1.000  O
  O166     1.0000 0.55739  0.01567  0.74008  Biso   1.000  O
  O167     1.0000 0.22192  0.95232  0.02764  Biso   1.000  O
  O168     1.0000 0.51583  0.30145  0.06800  Biso   1.000  O
  O169     1.0000 0.00933  0.03646  0.22840  Biso   1.000  O
  O170     1.0000 0.22477  0.00112  0.07293  Biso   1.000  O
  O171     1.0000 0.05968  0.19878  0.02151  Biso   1.000  O
  O172     1.0000 0.51268  0.03865  0.32130  Biso   1.000  O
  O173     1.0000 0.72178  0.00499  0.48966  Biso   1.000  O
  O174     1.0000 0.55495  0.20769  0.53402  Biso   1.000  O
  O175     1.0000 0.52255  0.54264  0.24426  Biso   1.000  O
  O176     1.0000 0.31444  0.49512  0.08589  Biso   1.000  O
  O177     1.0000 0.47288  0.70753  0.04326  Biso   1.000  O
  O178     1.0000 0.02914  0.54125  0.31795  Biso   1.000  O
  O179     1.0000 0.80795  0.50666  0.47084  Biso   1.000  O
  O180     1.0000 0.98038  0.70600  0.53576  Biso   1.000  O
  O181     1.0000 0.01315  0.95073  0.82276  Biso   1.000  O
  O182     1.0000 0.80785  0.99545  0.99079  Biso   1.000  O
  O183     1.0000 0.97280  0.79799  0.02561  Biso   1.000  O
  O184     1.0000 0.52363  0.97296  0.73948  Biso   1.000  O
  O185     1.0000 0.31333  0.00627  0.57495  Biso   1.000  O
  O186     1.0000 0.47691  0.80245  0.52637  Biso   1.000  O
  O187     1.0000 0.50701  0.46849  0.82518  Biso   1.000  O
  O188     1.0000 0.71763  0.50135  0.97623  Biso   1.000  O
  O189     1.0000 0.55561  0.30207  0.02716  Biso   1.000  O
  O190     1.0000 0.99409  0.46191  0.72974  Biso   1.000  O
  O191     1.0000 0.21881  0.50089  0.58826  Biso   1.000  O
  O192     1.0000 0.04767  0.30480  0.52390  Biso   1.000  O
