data_image0
_cell_length_a       47.0712
_cell_length_b       46.407
_cell_length_c       46.4784
_cell_angle_alpha    90
_cell_angle_beta     90
_cell_angle_gamma    90

_symmetry_space_group_name_H-M    "P 1"
_symmetry_int_tables_number       1

loop_
  _symmetry_equiv_pos_as_xyz
  'x, y, z'

loop_
  _atom_site_label
  _atom_site_occupancy
  _atom_site_fract_x
  _atom_site_fract_y
  _atom_site_fract_z
  _atom_site_thermal_displace_type
  _atom_site_B_iso_or_equiv
  _atom_site_type_symbol
  C1       1.0000 0.55779  0.96387  0.34612  Biso   1.000  C
  C2       1.0000 0.33656  0.50509  0.03294  Biso   1.000  C
  C3       1.0000 0.02281  0.27606  0.56115  Biso   1.000  C
  C4       1.0000 0.06295  0.97195  0.20616  Biso   1.000  C
  C5       1.0000 0.83389  0.50701  0.52451  Biso   1.000  C
  C6       1.0000 0.52850  0.27975  0.97700  Biso   1.000  C
  C7       1.0000 0.96019  0.47878  0.34354  Biso   1.000  C
  C8       1.0000 0.19463  0.00529  0.03141  Biso   1.000  C
  C9       1.0000 0.49964  0.77739  0.57976  Biso   1.000  C
  C10      1.0000 0.46474  0.47743  0.21025  Biso   1.000  C
  C11      1.0000 0.69116  0.99941  0.50852  Biso   1.000  C
  C12      1.0000 0.01690  0.76747  0.98290  Biso   1.000  C
  C13      1.0000 0.46777  0.95455  0.70541  Biso   1.000  C
  C14      1.0000 0.69627  0.40583  0.01134  Biso   1.000  C
  C15      1.0000 0.99896  0.65307  0.49187  Biso   1.000  C
  C16      1.0000 0.96280  0.94825  0.83855  Biso   1.000  C
  C17      1.0000 0.19735  0.41323  0.53199  Biso   1.000  C
  C18      1.0000 0.50073  0.64402  0.08474  Biso   1.000  C
  C19      1.0000 0.06011  0.44898  0.70827  Biso   1.000  C
  C20      1.0000 0.83596  0.89828  0.03078  Biso   1.000  C
  C21      1.0000 0.51399  0.14263  0.47526  Biso   1.000  C
  C22      1.0000 0.56184  0.46673  0.84398  Biso   1.000  C
  C23      1.0000 0.32821  0.92150  0.52895  Biso   1.000  C
  C24      1.0000 0.01519  0.13773  0.06554  Biso   1.000  C
  C25      1.0000 0.33189  0.03391  0.53832  Biso   1.000  C
  C26      1.0000 0.51191  0.27460  0.08318  Biso   1.000  C
  C27      1.0000 0.07144  0.47332  0.35172  Biso   1.000  C
  C28      1.0000 0.83091  0.00746  0.01816  Biso   1.000  C
  C29      1.0000 0.01343  0.28480  0.45137  Biso   1.000  C
  C30      1.0000 0.57366  0.45142  0.19975  Biso   1.000  C
  C31      1.0000 0.19273  0.52325  0.52781  Biso   1.000  C
  C32      1.0000 0.01061  0.77705  0.09272  Biso   1.000  C
  C33      1.0000 0.44658  0.96655  0.35013  Biso   1.000  C
  C34      1.0000 0.69360  0.51313  0.02976  Biso   1.000  C
  C35      1.0000 0.50526  0.77765  0.47170  Biso   1.000  C
  C36      1.0000 0.95537  0.95932  0.20575  Biso   1.000  C
  C37      1.0000 0.69439  0.89064  0.52790  Biso   1.000  C
  C38      1.0000 0.52732  0.64105  0.97772  Biso   1.000  C
  C39      1.0000 0.95172  0.45050  0.69958  Biso   1.000  C
  C40      1.0000 0.19898  0.89932  0.02941  Biso   1.000  C
  C41      1.0000 0.00832  0.64382  0.60158  Biso   1.000  C
  C42      1.0000 0.45339  0.46412  0.84978  Biso   1.000  C
  C43      1.0000 0.82892  0.39696  0.51312  Biso   1.000  C
  C44      1.0000 0.02259  0.13178  0.95576  Biso   1.000  C
  C45      1.0000 0.57483  0.96930  0.70562  Biso   1.000  C
  C46      1.0000 0.33411  0.39487  0.03199  Biso   1.000  C
  C47      1.0000 0.52478  0.14621  0.58478  Biso   1.000  C
  C48      1.0000 0.07023  0.94266  0.84468  Biso   1.000  C
  C49      1.0000 0.02042  0.00337  0.83680  Biso   1.000  C
  C50      1.0000 0.83227  0.95356  0.07683  Biso   1.000  C
  C51      1.0000 0.06932  0.77533  0.04472  Biso   1.000  C
  C52      1.0000 0.51623  0.01342  0.70700  Biso   1.000  C
  C53      1.0000 0.32675  0.97797  0.47924  Biso   1.000  C
  C54      1.0000 0.55532  0.77714  0.53056  Biso   1.000  C
  C55      1.0000 0.50222  0.51799  0.84951  Biso   1.000  C
  C56      1.0000 0.69932  0.45150  0.07364  Biso   1.000  C
  C57      1.0000 0.46591  0.27530  0.02214  Biso   1.000  C
  C58      1.0000 0.00019  0.50632  0.70866  Biso   1.000  C
  C59      1.0000 0.19490  0.46127  0.47804  Biso   1.000  C
  C60      1.0000 0.96503  0.27888  0.50843  Biso   1.000  C
  C61      1.0000 0.01783  0.91126  0.21580  Biso   1.000  C
  C62      1.0000 0.19528  0.95327  0.97534  Biso   1.000  C
  C63      1.0000 0.96488  0.12799  0.00708  Biso   1.000  C
  C64      1.0000 0.50413  0.90920  0.34570  Biso   1.000  C
  C65      1.0000 0.69742  0.95203  0.57298  Biso   1.000  C
  C66      1.0000 0.46929  0.14966  0.52981  Biso   1.000  C
  C67      1.0000 0.51015  0.41007  0.20755  Biso   1.000  C
  C68      1.0000 0.33202  0.44924  0.98112  Biso   1.000  C
  C69      1.0000 0.56539  0.64382  0.04791  Biso   1.000  C
  C70      1.0000 0.01168  0.42087  0.33949  Biso   1.000  C
  C71      1.0000 0.82839  0.44970  0.57184  Biso   1.000  C
  C72      1.0000 0.06001  0.64940  0.53974  Biso   1.000  C
  C73      1.0000 0.01776  0.52998  0.35422  Biso   1.000  C
  C74      1.0000 0.33579  0.97473  0.58639  Biso   1.000  C
  C75      1.0000 0.57290  0.27453  0.03364  Biso   1.000  C
  C76      1.0000 0.53394  0.51890  0.20381  Biso   1.000  C
  C77      1.0000 0.83646  0.94608  0.96830  Biso   1.000  C
  C78      1.0000 0.07395  0.28416  0.50467  Biso   1.000  C
  C79      1.0000 0.50230  0.01665  0.34880  Biso   1.000  C
  C80      1.0000 0.19564  0.46802  0.58828  Biso   1.000  C
  C81      1.0000 0.96166  0.77432  0.03851  Biso   1.000  C
  C82      1.0000 0.99967  0.01886  0.19947  Biso   1.000  C
  C83      1.0000 0.68968  0.47011  0.96661  Biso   1.000  C
  C84      1.0000 0.44756  0.78300  0.52325  Biso   1.000  C
  C85      1.0000 0.00558  0.39455  0.69762  Biso   1.000  C
  C86      1.0000 0.68819  0.93479  0.46591  Biso   1.000  C
  C87      1.0000 0.46111  0.63805  0.01892  Biso   1.000  C
  C88      1.0000 0.51018  0.41034  0.84532  Biso   1.000  C
  C89      1.0000 0.19383  0.94834  0.08250  Biso   1.000  C
  C90      1.0000 0.95131  0.64576  0.55395  Biso   1.000  C
  C91      1.0000 0.52886  0.90631  0.70373  Biso   1.000  C
  C92      1.0000 0.83343  0.45699  0.46354  Biso   1.000  C
  C93      1.0000 0.07144  0.13340  0.00925  Biso   1.000  C
  C94      1.0000 0.01254  0.89533  0.85059  Biso   1.000  C
  C95      1.0000 0.33392  0.45131  0.08870  Biso   1.000  C
  C96      1.0000 0.57605  0.13765  0.52979  Biso   1.000  C
  C97      1.0000 0.69196  0.03230  0.50357  Biso   1.000  C
  C98      1.0000 0.49905  0.64422  0.11583  Biso   1.000  C
  C99      1.0000 0.09142  0.44718  0.70991  Biso   1.000  C
  C100     1.0000 0.19293  0.03715  0.03242  Biso   1.000  C
  C101     1.0000 0.00328  0.65457  0.45948  Biso   1.000  C
  C102     1.0000 0.59403  0.46720  0.84366  Biso   1.000  C
  C103     1.0000 0.83405  0.53815  0.53423  Biso   1.000  C
  C104     1.0000 0.01704  0.13918  0.09725  Biso   1.000  C
  C105     1.0000 0.43554  0.95179  0.70689  Biso   1.000  C
  C106     1.0000 0.33736  0.53720  0.02869  Biso   1.000  C
  C107     1.0000 0.51336  0.14280  0.44357  Biso   1.000  C
  C108     1.0000 0.93097  0.94564  0.83816  Biso   1.000  C
  C109     1.0000 0.32633  0.88936  0.52495  Biso   1.000  C
  C110     1.0000 0.53317  0.28263  0.94401  Biso   1.000  C
  C111     1.0000 0.92849  0.47237  0.34022  Biso   1.000  C
  C112     1.0000 0.83500  0.86716  0.03769  Biso   1.000  C
  C113     1.0000 0.02420  0.27232  0.59332  Biso   1.000  C
  C114     1.0000 0.43192  0.47932  0.21045  Biso   1.000  C
  C115     1.0000 0.19624  0.38248  0.52584  Biso   1.000  C
  C116     1.0000 0.01678  0.76771  0.95106  Biso   1.000  C
  C117     1.0000 0.59001  0.96280  0.34535  Biso   1.000  C
  C118     1.0000 0.69711  0.37363  0.01225  Biso   1.000  C
  C119     1.0000 0.50333  0.77649  0.61176  Biso   1.000  C
  C120     1.0000 0.09502  0.97232  0.20687  Biso   1.000  C
  C121     1.0000 0.83025  0.95141  0.10883  Biso   1.000  C
  C122     1.0000 0.10104  0.77304  0.04739  Biso   1.000  C
  C123     1.0000 0.02283  0.03475  0.83396  Biso   1.000  C
  C124     1.0000 0.32485  0.97276  0.44683  Biso   1.000  C
  C125     1.0000 0.58705  0.77421  0.53336  Biso   1.000  C
  C126     1.0000 0.51839  0.04638  0.70702  Biso   1.000  C
  C127     1.0000 0.70143  0.44951  0.10586  Biso   1.000  C
  C128     1.0000 0.43362  0.27375  0.01572  Biso   1.000  C
  C129     1.0000 0.49768  0.55058  0.84987  Biso   1.000  C
  C130     1.0000 0.19523  0.45794  0.44544  Biso   1.000  C
  C131     1.0000 0.93292  0.27724  0.50481  Biso   1.000  C
  C132     1.0000 0.99909  0.53867  0.71330  Biso   1.000  C
  C133     1.0000 0.19424  0.94808  0.94349  Biso   1.000  C
  C134     1.0000 0.93239  0.12859  0.00393  Biso   1.000  C
  C135     1.0000 0.02247  0.88040  0.21832  Biso   1.000  C
  C136     1.0000 0.69883  0.95187  0.60557  Biso   1.000  C
  C137     1.0000 0.43864  0.15012  0.52334  Biso   1.000  C
  C138     1.0000 0.50876  0.87678  0.34713  Biso   1.000  C
  C139     1.0000 0.32969  0.45498  0.95043  Biso   1.000  C
  C140     1.0000 0.59637  0.64380  0.05310  Biso   1.000  C
  C141     1.0000 0.50581  0.37728  0.20636  Biso   1.000  C
  C142     1.0000 0.82878  0.45865  0.60291  Biso   1.000  C
  C143     1.0000 0.09249  0.64968  0.53880  Biso   1.000  C
  C144     1.0000 0.00774  0.38933  0.33512  Biso   1.000  C
  C145     1.0000 0.33483  0.45739  0.12031  Biso   1.000  C
  C146     1.0000 0.10483  0.28721  0.50337  Biso   1.000  C
  C147     1.0000 0.50390  0.04808  0.34883  Biso   1.000  C
  C148     1.0000 0.83355  0.45165  0.43211  Biso   1.000  C
  C149     1.0000 0.60514  0.27571  0.03112  Biso   1.000  C
  C150     1.0000 0.99162  0.05089  0.19713  Biso   1.000  C
  C151     1.0000 0.19373  0.95619  0.11355  Biso   1.000  C
  C152     1.0000 0.41584  0.78671  0.52355  Biso   1.000  C
  C153     1.0000 0.02090  0.56132  0.35786  Biso   1.000  C
  C154     1.0000 0.68638  0.93796  0.43350  Biso   1.000  C
  C155     1.0000 0.92959  0.77334  0.04706  Biso   1.000  C
  C156     1.0000 0.53652  0.55159  0.20109  Biso   1.000  C
  C157     1.0000 0.68890  0.47950  0.93546  Biso   1.000  C
  C158     1.0000 0.91955  0.64171  0.55517  Biso   1.000  C
  C159     1.0000 0.52569  0.87504  0.70442  Biso   1.000  C
  C160     1.0000 0.19387  0.46249  0.62090  Biso   1.000  C
  C161     1.0000 0.42940  0.63457  0.01668  Biso   1.000  C
  C162     1.0000 0.00539  0.86215  0.85541  Biso   1.000  C
  C163     1.0000 0.83628  0.94373  0.93628  Biso   1.000  C
  C164     1.0000 0.60754  0.13454  0.52912  Biso   1.000  C
  C165     1.0000 0.00529  0.36260  0.69551  Biso   1.000  C
  C166     1.0000 0.33738  0.97190  0.61730  Biso   1.000  C
  C167     1.0000 0.10322  0.13175  0.00502  Biso   1.000  C
  C168     1.0000 0.51049  0.37800  0.84753  Biso   1.000  C
  C169     1.0000 0.00508  0.78105  0.12448  Biso   1.000  C
  C170     1.0000 0.10132  0.93596  0.84624  Biso   1.000  C
  C171     1.0000 0.83194  0.03924  0.01713  Biso   1.000  C
  C172     1.0000 0.50477  0.77864  0.43929  Biso   1.000  C
  C173     1.0000 0.60719  0.97205  0.70539  Biso   1.000  C
  C174     1.0000 0.33261  0.06719  0.53852  Biso   1.000  C
  C175     1.0000 0.50961  0.27403  0.11528  Biso   1.000  C
  C176     1.0000 0.42163  0.45682  0.85080  Biso   1.000  C
  C177     1.0000 0.69110  0.54541  0.03924  Biso   1.000  C
  C178     1.0000 0.01005  0.28719  0.41881  Biso   1.000  C
  C179     1.0000 0.91982  0.44792  0.69789  Biso   1.000  C
  C180     1.0000 0.19169  0.55665  0.52679  Biso   1.000  C
  C181     1.0000 0.02982  0.13361  0.92380  Biso   1.000  C
  C182     1.0000 0.92375  0.96209  0.20636  Biso   1.000  C
  C183     1.0000 0.19906  0.86728  0.03778  Biso   1.000  C
  C184     1.0000 0.53269  0.14433  0.61498  Biso   1.000  C
  C185     1.0000 0.41472  0.96969  0.35243  Biso   1.000  C
  C186     1.0000 0.69186  0.85809  0.52598  Biso   1.000  C
  C187     1.0000 0.52618  0.64102  0.94581  Biso   1.000  C
  C188     1.0000 0.60612  0.44513  0.19965  Biso   1.000  C
  C189     1.0000 0.33307  0.36282  0.02531  Biso   1.000  C
  C190     1.0000 0.00087  0.64298  0.63246  Biso   1.000  C
  C191     1.0000 0.10295  0.47761  0.35255  Biso   1.000  C
  C192     1.0000 0.83048  0.36469  0.50767  Biso   1.000  C
  C193     1.0000 0.86287  0.94554  0.91933  Biso   1.000  C
  C194     1.0000 0.91129  0.79954  0.04225  Biso   1.000  C
  C195     1.0000 0.01419  0.84755  0.88195  Biso   1.000  C
  C196     1.0000 0.36432  0.96957  0.63128  Biso   1.000  C
  C197     1.0000 0.40245  0.81560  0.52384  Biso   1.000  C
  C198     1.0000 0.52074  0.85874  0.67658  Biso   1.000  C
  C199     1.0000 0.66211  0.48073  0.92135  Biso   1.000  C
  C200     1.0000 0.62078  0.30291  0.02846  Biso   1.000  C
  C201     1.0000 0.51446  0.36347  0.87538  Biso   1.000  C
  C202     1.0000 0.16704  0.45235  0.63270  Biso   1.000  C
  C203     1.0000 0.11929  0.31518  0.51018  Biso   1.000  C
  C204     1.0000 0.00730  0.34670  0.66643  Biso   1.000  C
  C205     1.0000 0.16630  0.95851  0.12961  Biso   1.000  C
  C206     1.0000 0.12005  0.10618  0.01101  Biso   1.000  C
  C207     1.0000 0.99822  0.06646  0.16971  Biso   1.000  C
  C208     1.0000 0.65909  0.94106  0.41792  Biso   1.000  C
  C209     1.0000 0.62189  0.10666  0.52498  Biso   1.000  C
  C210     1.0000 0.50656  0.06504  0.37632  Biso   1.000  C
  C211     1.0000 0.36302  0.46545  0.13476  Biso   1.000  C
  C212     1.0000 0.41296  0.60667  0.01888  Biso   1.000  C
  C213     1.0000 0.52816  0.56661  0.17473  Biso   1.000  C
  C214     1.0000 0.86088  0.45625  0.41586  Biso   1.000  C
  C215     1.0000 0.90707  0.61254  0.55285  Biso   1.000  C
  C216     1.0000 0.02096  0.57726  0.38539  Biso   1.000  C
  C217     1.0000 0.11868  0.93724  0.87336  Biso   1.000  C
  C218     1.0000 0.85985  0.05315  0.01419  Biso   1.000  C
  C219     1.0000 0.00821  0.80979  0.13962  Biso   1.000  C
  C220     1.0000 0.62230  0.97036  0.67674  Biso   1.000  C
  C221     1.0000 0.36226  0.07972  0.53727  Biso   1.000  C
  C222     1.0000 0.50961  0.80647  0.42480  Biso   1.000  C
  C223     1.0000 0.40558  0.45597  0.87863  Biso   1.000  C
  C224     1.0000 0.66493  0.56214  0.03981  Biso   1.000  C
  C225     1.0000 0.50887  0.30264  0.12828  Biso   1.000  C
  C226     1.0000 0.90436  0.44839  0.67070  Biso   1.000  C
  C227     1.0000 0.16394  0.57185  0.52989  Biso   1.000  C
  C228     1.0000 0.00957  0.31449  0.40356  Biso   1.000  C
  C229     1.0000 0.90761  0.96132  0.17870  Biso   1.000  C
  C230     1.0000 0.17212  0.85202  0.04224  Biso   1.000  C
  C231     1.0000 0.02922  0.10564  0.90858  Biso   1.000  C
  C232     1.0000 0.40210  0.97166  0.37966  Biso   1.000  C
  C233     1.0000 0.66255  0.84546  0.52731  Biso   1.000  C
  C234     1.0000 0.52757  0.11620  0.63141  Biso   1.000  C
  C235     1.0000 0.62224  0.44457  0.17227  Biso   1.000  C
  C236     1.0000 0.36097  0.34970  0.01985  Biso   1.000  C
  C237     1.0000 0.51911  0.61384  0.92880  Biso   1.000  C
  C238     1.0000 0.11806  0.47310  0.37943  Biso   1.000  C
  C239     1.0000 0.85824  0.34930  0.50312  Biso   1.000  C
  C240     1.0000 0.00204  0.61483  0.64562  Biso   1.000  C
  C241     1.0000 0.60940  0.47215  0.87069  Biso   1.000  C
  C242     1.0000 0.85953  0.55617  0.53798  Biso   1.000  C
  C243     1.0000 0.50839  0.80456  0.62716  Biso   1.000  C
  C244     1.0000 0.11035  0.44801  0.68366  Biso   1.000  C
  C245     1.0000 0.36245  0.55530  0.02423  Biso   1.000  C
  C246     1.0000 0.01920  0.79506  0.93503  Biso   1.000  C
  C247     1.0000 0.91555  0.94929  0.86641  Biso   1.000  C
  C248     1.0000 0.66718  0.05046  0.51066  Biso   1.000  C
  C249     1.0000 0.01864  0.29788  0.61160  Biso   1.000  C
  C250     1.0000 0.41918  0.95747  0.68122  Biso   1.000  C
  C251     1.0000 0.16719  0.05371  0.02325  Biso   1.000  C
  C252     1.0000 0.52975  0.31074  0.92848  Biso   1.000  C
  C253     1.0000 0.41509  0.47421  0.18459  Biso   1.000  C
  C254     1.0000 0.16918  0.36722  0.52270  Biso   1.000  C
  C255     1.0000 0.51129  0.11592  0.42727  Biso   1.000  C
  C256     1.0000 0.91017  0.46771  0.36572  Biso   1.000  C
  C257     1.0000 0.67081  0.35761  0.01571  Biso   1.000  C
  C258     1.0000 0.01117  0.11442  0.11489  Biso   1.000  C
  C259     1.0000 0.11110  0.96554  0.18027  Biso   1.000  C
  C260     1.0000 0.35439  0.87246  0.52236  Biso   1.000  C
  C261     1.0000 0.01089  0.62713  0.44373  Biso   1.000  C
  C262     1.0000 0.60610  0.95959  0.37119  Biso   1.000  C
  C263     1.0000 0.86245  0.85086  0.04029  Biso   1.000  C
  C264     1.0000 0.50477  0.61697  0.12859  Biso   1.000  C
  C265     1.0000 0.02755  0.05161  0.86047  Biso   1.000  C
  C266     1.0000 0.85789  0.95419  0.12558  Biso   1.000  C
  C267     1.0000 0.11829  0.80082  0.04744  Biso   1.000  C
  C268     1.0000 0.51866  0.06211  0.67998  Biso   1.000  C
  C269     1.0000 0.35181  0.97096  0.43105  Biso   1.000  C
  C270     1.0000 0.60651  0.79933  0.53193  Biso   1.000  C
  C271     1.0000 0.50142  0.56552  0.87774  Biso   1.000  C
  C272     1.0000 0.67458  0.45002  0.12174  Biso   1.000  C
  C273     1.0000 0.41665  0.30088  0.01635  Biso   1.000  C
  C274     1.0000 0.00224  0.55833  0.68838  Biso   1.000  C
  C275     1.0000 0.16830  0.46114  0.42965  Biso   1.000  C
  C276     1.0000 0.91479  0.30286  0.50417  Biso   1.000  C
  C277     1.0000 0.01813  0.86370  0.19218  Biso   1.000  C
  C278     1.0000 0.16773  0.94456  0.92668  Biso   1.000  C
  C279     1.0000 0.91481  0.10207  0.00701  Biso   1.000  C
  C280     1.0000 0.51043  0.86081  0.37478  Biso   1.000  C
  C281     1.0000 0.67257  0.95906  0.62208  Biso   1.000  C
  C282     1.0000 0.41897  0.12479  0.52982  Biso   1.000  C
  C283     1.0000 0.50583  0.35958  0.18044  Biso   1.000  C
  C284     1.0000 0.35620  0.45296  0.93303  Biso   1.000  C
  C285     1.0000 0.61283  0.61633  0.04630  Biso   1.000  C
  C286     1.0000 0.00841  0.36940  0.35928  Biso   1.000  C
  C287     1.0000 0.85485  0.45709  0.61996  Biso   1.000  C
  C288     1.0000 0.11050  0.62385  0.53531  Biso   1.000  C
  C289     1.0000 0.35156  0.84057  0.52672  Biso   1.000  C
  C290     1.0000 0.52897  0.31091  0.89628  Biso   1.000  C
  C291     1.0000 0.88028  0.46130  0.36326  Biso   1.000  C
  C292     1.0000 0.86040  0.81912  0.04393  Biso   1.000  C
  C293     1.0000 0.01852  0.29464  0.64300  Biso   1.000  C
  C294     1.0000 0.38365  0.47750  0.18450  Biso   1.000  C
  C295     1.0000 0.17166  0.33542  0.51488  Biso   1.000  C
  C296     1.0000 0.00860  0.79468  0.90617  Biso   1.000  C
  C297     1.0000 0.63703  0.95711  0.36861  Biso   1.000  C
  C298     1.0000 0.67288  0.32539  0.01897  Biso   1.000  C
  C299     1.0000 0.51075  0.80586  0.65967  Biso   1.000  C
  C300     1.0000 0.14292  0.96240  0.18139  Biso   1.000  C
  C301     1.0000 0.67048  0.08219  0.51086  Biso   1.000  C
  C302     1.0000 0.51260  0.61839  0.15847  Biso   1.000  C
  C303     1.0000 0.14146  0.44935  0.68617  Biso   1.000  C
  C304     1.0000 0.16978  0.08557  0.01637  Biso   1.000  C
  C305     1.0000 0.01342  0.62880  0.41102  Biso   1.000  C
  C306     1.0000 0.64000  0.47473  0.86915  Biso   1.000  C
  C307     1.0000 0.85586  0.58715  0.54621  Biso   1.000  C
  C308     1.0000 0.00520  0.11672  0.14624  Biso   1.000  C
  C309     1.0000 0.38897  0.96195  0.68429  Biso   1.000  C
  C310     1.0000 0.36043  0.58568  0.02006  Biso   1.000  C
  C311     1.0000 0.51071  0.11742  0.39636  Biso   1.000  C
  C312     1.0000 0.88347  0.94659  0.86664  Biso   1.000  C
  C313     1.0000 0.17075  0.46637  0.39956  Biso   1.000  C
  C314     1.0000 0.38852  0.12909  0.52724  Biso   1.000  C
  C315     1.0000 0.50382  0.32781  0.18095  Biso   1.000  C
  C316     1.0000 0.67570  0.44699  0.15272  Biso   1.000  C
  C317     1.0000 0.88438  0.10467  0.00740  Biso   1.000  C
  C318     1.0000 0.00602  0.33900  0.35360  Biso   1.000  C
  C319     1.0000 0.34972  0.97095  0.39941  Biso   1.000  C
  C320     1.0000 0.14116  0.62432  0.53724  Biso   1.000  C
  C321     1.0000 0.01296  0.83192  0.19388  Biso   1.000  C
  C322     1.0000 0.85583  0.95307  0.15782  Biso   1.000  C
  C323     1.0000 0.64294  0.61485  0.05106  Biso   1.000  C
  C324     1.0000 0.51341  0.82954  0.37210  Biso   1.000  C
  C325     1.0000 0.85254  0.45662  0.65074  Biso   1.000  C
  C326     1.0000 0.63662  0.79592  0.53558  Biso   1.000  C
  C327     1.0000 0.50759  0.59645  0.87665  Biso   1.000  C
  C328     1.0000 0.35313  0.45334  0.90111  Biso   1.000  C
  C329     1.0000 0.14937  0.79943  0.04499  Biso   1.000  C
  C330     1.0000 0.99810  0.58921  0.69464  Biso   1.000  C
  C331     1.0000 0.67491  0.96158  0.65287  Biso   1.000  C
  C332     1.0000 0.88347  0.29777  0.50367  Biso   1.000  C
  C333     1.0000 0.02815  0.08320  0.85793  Biso   1.000  C
  C334     1.0000 0.17127  0.94134  0.89474  Biso   1.000  C
  C335     1.0000 0.38584  0.29867  0.01502  Biso   1.000  C
  C336     1.0000 0.52610  0.09206  0.68289  Biso   1.000  C
  C337     1.0000 0.66219  0.47835  0.88960  Biso   1.000  C
  C338     1.0000 0.87579  0.61057  0.55215  Biso   1.000  C
  C339     1.0000 0.51678  0.82737  0.67962  Biso   1.000  C
  C340     1.0000 0.16337  0.44987  0.66505  Biso   1.000  C
  C341     1.0000 0.38158  0.60780  0.01761  Biso   1.000  C
  C342     1.0000 0.00649  0.81572  0.88463  Biso   1.000  C
  C343     1.0000 0.86188  0.94505  0.88812  Biso   1.000  C
  C344     1.0000 0.65124  0.10570  0.51604  Biso   1.000  C
  C345     1.0000 0.01477  0.31532  0.66575  Biso   1.000  C
  C346     1.0000 0.36611  0.96673  0.66408  Biso   1.000  C
  C347     1.0000 0.15010  0.10721  0.01262  Biso   1.000  C
  C348     1.0000 0.52359  0.33130  0.87479  Biso   1.000  C
  C349     1.0000 0.36240  0.47346  0.16446  Biso   1.000  C
  C350     1.0000 0.15007  0.31437  0.51086  Biso   1.000  C
  C351     1.0000 0.50978  0.09593  0.37345  Biso   1.000  C
  C352     1.0000 0.85902  0.45660  0.38425  Biso   1.000  C
  C353     1.0000 0.65200  0.30250  0.02333  Biso   1.000  C
  C354     1.0000 0.99841  0.09838  0.16979  Biso   1.000  C
  C355     1.0000 0.16484  0.95955  0.16090  Biso   1.000  C
  C356     1.0000 0.37172  0.81787  0.52840  Biso   1.000  C
  C357     1.0000 0.01835  0.60899  0.38775  Biso   1.000  C
  C358     1.0000 0.65877  0.94921  0.38740  Biso   1.000  C
  C359     1.0000 0.88056  0.79781  0.04376  Biso   1.000  C
  C360     1.0000 0.52474  0.59716  0.17682  Biso   1.000  C
  C361     1.0000 0.03013  0.10658  0.87838  Biso   1.000  C
  C362     1.0000 0.87745  0.95783  0.17944  Biso   1.000  C
  C363     1.0000 0.17109  0.82039  0.04193  Biso   1.000  C
  C364     1.0000 0.53044  0.11475  0.66221  Biso   1.000  C
  C365     1.0000 0.37086  0.96992  0.37810  Biso   1.000  C
  C366     1.0000 0.66072  0.81435  0.53264  Biso   1.000  C
  C367     1.0000 0.51324  0.61654  0.89797  Biso   1.000  C
  C368     1.0000 0.65305  0.44637  0.17379  Biso   1.000  C
  C369     1.0000 0.36249  0.31852  0.01977  Biso   1.000  C
  C370     1.0000 0.99801  0.61369  0.67624  Biso   1.000  C
  C371     1.0000 0.14961  0.47290  0.37842  Biso   1.000  C
  C372     1.0000 0.86033  0.31725  0.50356  Biso   1.000  C
  C373     1.0000 0.01085  0.80920  0.17177  Biso   1.000  C
  C374     1.0000 0.14987  0.93769  0.87213  Biso   1.000  C
  C375     1.0000 0.86186  0.08388  0.01039  Biso   1.000  C
  C376     1.0000 0.51189  0.80721  0.39404  Biso   1.000  C
  C377     1.0000 0.65394  0.96660  0.67503  Biso   1.000  C
  C378     1.0000 0.36414  0.11113  0.53146  Biso   1.000  C
  C379     1.0000 0.50404  0.30454  0.16102  Biso   1.000  C
  C380     1.0000 0.37412  0.45422  0.87912  Biso   1.000  C
  C381     1.0000 0.66429  0.59302  0.04816  Biso   1.000  C
  C382     1.0000 0.00446  0.31539  0.37243  Biso   1.000  C
  C383     1.0000 0.87276  0.45291  0.67258  Biso   1.000  C
  C384     1.0000 0.16360  0.60384  0.53455  Biso   1.000  C
  C385     1.0000 0.19762  0.09984  0.01895  Biso   1.000  C
  C386     1.0000 0.00537  0.14500  0.16023  Biso   1.000  C
  C387     1.0000 0.15876  0.96780  0.20849  Biso   1.000  C
  C388     1.0000 0.69842  0.09668  0.50498  Biso   1.000  C
  C389     1.0000 0.51178  0.14461  0.38094  Biso   1.000  C
  C390     1.0000 0.65267  0.96307  0.34150  Biso   1.000  C
  C391     1.0000 0.33327  0.60191  0.02099  Biso   1.000  C
  C392     1.0000 0.51266  0.64617  0.17463  Biso   1.000  C
  C393     1.0000 0.36844  0.48111  0.21187  Biso   1.000  C
  C394     1.0000 0.82754  0.60012  0.54915  Biso   1.000  C
  C395     1.0000 0.00709  0.65642  0.39632  Biso   1.000  C
  C396     1.0000 0.86539  0.45899  0.33669  Biso   1.000  C
  C397     1.0000 0.83349  0.80409  0.04680  Biso   1.000  C
  C398     1.0000 0.99753  0.76878  0.89333  Biso   1.000  C
  C399     1.0000 0.86784  0.94698  0.83982  Biso   1.000  C
  C400     1.0000 0.32434  0.82650  0.53153  Biso   1.000  C
  C401     1.0000 0.50796  0.77838  0.67577  Biso   1.000  C
  C402     1.0000 0.37314  0.96051  0.71137  Biso   1.000  C
  C403     1.0000 0.69912  0.30984  0.01843  Biso   1.000  C
  C404     1.0000 0.53499  0.28451  0.88163  Biso   1.000  C
  C405     1.0000 0.65543  0.47498  0.84159  Biso   1.000  C
  C406     1.0000 0.19775  0.31996  0.51094  Biso   1.000  C
  C407     1.0000 0.02662  0.26788  0.65675  Biso   1.000  C
  C408     1.0000 0.15584  0.45107  0.71403  Biso   1.000  C
  C409     1.0000 0.16479  0.93523  0.84411  Biso   1.000  C
  C410     1.0000 0.83659  0.10170  0.00927  Biso   1.000  C
  C411     1.0000 0.00668  0.78203  0.18870  Biso   1.000  C
  C412     1.0000 0.66938  0.96353  0.70205  Biso   1.000  C
  C413     1.0000 0.34030  0.12982  0.52525  Biso   1.000  C
  C414     1.0000 0.51235  0.78128  0.37813  Biso   1.000  C
  C415     1.0000 0.35859  0.45313  0.85215  Biso   1.000  C
  C416     1.0000 0.69094  0.60783  0.05528  Biso   1.000  C
  C417     1.0000 0.50037  0.27847  0.17824  Biso   1.000  C
  C418     1.0000 0.85715  0.45632  0.69974  Biso   1.000  C
  C419     1.0000 0.19017  0.61997  0.53500  Biso   1.000  C
  C420     1.0000 0.00192  0.29069  0.35400  Biso   1.000  C
  C421     1.0000 0.86128  0.95779  0.20681  Biso   1.000  C
  C422     1.0000 0.19738  0.80389  0.03722  Biso   1.000  C
  C423     1.0000 0.03033  0.13151  0.86158  Biso   1.000  C
  C424     1.0000 0.35438  0.97158  0.35124  Biso   1.000  C
  C425     1.0000 0.68542  0.79651  0.53502  Biso   1.000  C
  C426     1.0000 0.53979  0.14111  0.67829  Biso   1.000  C
  C427     1.0000 0.66904  0.44626  0.20099  Biso   1.000  C
  C428     1.0000 0.33765  0.30057  0.02507  Biso   1.000  C
  C429     1.0000 0.51396  0.64394  0.88303  Biso   1.000  C
  C430     1.0000 0.16555  0.48002  0.35274  Biso   1.000  C
  C431     1.0000 0.83420  0.30074  0.50235  Biso   1.000  C
  C432     1.0000 0.99022  0.63820  0.69439  Biso   1.000  C
  C433     1.0000 0.02815  0.09706  0.83010  Biso   1.000  C
  C434     1.0000 0.82902  0.95186  0.17385  Biso   1.000  C
  C435     1.0000 0.16401  0.77201  0.04097  Biso   1.000  C
  C436     1.0000 0.53071  0.10740  0.71052  Biso   1.000  C
  C437     1.0000 0.32227  0.97230  0.38389  Biso   1.000  C
  C438     1.0000 0.64902  0.76730  0.54072  Biso   1.000  C
  C439     1.0000 0.50730  0.61279  0.85034  Biso   1.000  C
  C440     1.0000 0.70218  0.44552  0.16882  Biso   1.000  C
  C441     1.0000 0.37259  0.27082  0.01540  Biso   1.000  C
  C442     1.0000 0.99045  0.60059  0.72324  Biso   1.000  C
  C443     1.0000 0.19720  0.46614  0.38289  Biso   1.000  C
  C444     1.0000 0.86948  0.26963  0.50186  Biso   1.000  C
  C445     1.0000 0.01181  0.81715  0.22140  Biso   1.000  C
  C446     1.0000 0.19767  0.94209  0.87896  Biso   1.000  C
  C447     1.0000 0.86905  0.13291  0.00700  Biso   1.000  C
  C448     1.0000 0.51397  0.81346  0.34554  Biso   1.000  C
  C449     1.0000 0.70140  0.95599  0.66769  Biso   1.000  C
  C450     1.0000 0.37670  0.15832  0.52050  Biso   1.000  C
  C451     1.0000 0.49911  0.31452  0.20864  Biso   1.000  C
  C452     1.0000 0.32515  0.45317  0.88622  Biso   1.000  C
  C453     1.0000 0.65872  0.64185  0.05840  Biso   1.000  C
  C454     1.0000 0.00279  0.32763  0.32537  Biso   1.000  C
  C455     1.0000 0.82524  0.46289  0.66640  Biso   1.000  C
  C456     1.0000 0.15631  0.65116  0.54106  Biso   1.000  C
  C457     1.0000 0.01787  0.62623  0.36229  Biso   1.000  C
  C458     1.0000 0.33996  0.96624  0.68063  Biso   1.000  C
  C459     1.0000 0.66875  0.27612  0.02409  Biso   1.000  C
  C460     1.0000 0.53086  0.61445  0.20359  Biso   1.000  C
  C461     1.0000 0.83541  0.94373  0.87250  Biso   1.000  C
  C462     1.0000 0.16597  0.28762  0.50485  Biso   1.000  C
  C463     1.0000 0.50934  0.11155  0.34699  Biso   1.000  C
  C464     1.0000 0.19047  0.45500  0.68318  Biso   1.000  C
  C465     1.0000 0.86612  0.77101  0.04868  Biso   1.000  C
  C466     1.0000 0.99353  0.11616  0.19462  Biso   1.000  C
  C467     1.0000 0.68893  0.47926  0.87303  Biso   1.000  C
  C468     1.0000 0.35448  0.79166  0.53465  Biso   1.000  C
  C469     1.0000 0.01783  0.29939  0.69207  Biso   1.000  C
  C470     1.0000 0.68588  0.95283  0.37218  Biso   1.000  C
  C471     1.0000 0.36656  0.63384  0.01673  Biso   1.000  C
  C472     1.0000 0.52708  0.31550  0.84802  Biso   1.000  C
  C473     1.0000 0.19179  0.96085  0.17625  Biso   1.000  C
  C474     1.0000 0.85676  0.63671  0.55734  Biso   1.000  C
  C475     1.0000 0.51660  0.81309  0.70727  Biso   1.000  C
  C476     1.0000 0.83150  0.45315  0.36812  Biso   1.000  C
  C477     1.0000 0.16578  0.13388  0.01021  Biso   1.000  C
  C478     1.0000 0.99338  0.80035  0.86045  Biso   1.000  C
  C479     1.0000 0.33529  0.47797  0.17927  Biso   1.000  C
  C480     1.0000 0.66892  0.13121  0.51243  Biso   1.000  C
  C481     1.0000 0.36791  0.76270  0.53148  Biso   1.000  C
  C482     1.0000 0.51898  0.33092  0.82048  Biso   1.000  C
  C483     1.0000 0.80479  0.44559  0.38318  Biso   1.000  C
  C484     1.0000 0.88364  0.74483  0.05010  Biso   1.000  C
  C485     1.0000 0.01239  0.31255  0.72097  Biso   1.000  C
  C486     1.0000 0.30708  0.47230  0.16636  Biso   1.000  C
  C487     1.0000 0.15143  0.25978  0.49713  Biso   1.000  C
  C488     1.0000 0.98526  0.81586  0.83470  Biso   1.000  C
  C489     1.0000 0.71291  0.94775  0.38754  Biso   1.000  C
  C490     1.0000 0.65192  0.24988  0.02785  Biso   1.000  C
  C491     1.0000 0.52543  0.82755  0.73316  Biso   1.000  C
  C492     1.0000 0.21953  0.95832  0.16098  Biso   1.000  C
  C493     1.0000 0.65586  0.15966  0.51871  Biso   1.000  C
  C494     1.0000 0.54612  0.59936  0.22660  Biso   1.000  C
  C495     1.0000 0.21804  0.46165  0.67028  Biso   1.000  C
  C496     1.0000 0.15074  0.16065  0.00331  Biso   1.000  C
  C497     1.0000 0.01945  0.61104  0.33333  Biso   1.000  C
  C498     1.0000 0.71670  0.48350  0.88667  Biso   1.000  C
  C499     1.0000 0.86956  0.66567  0.55722  Biso   1.000  C
  C500     1.0000 0.98642  0.10092  0.22182  Biso   1.000  C
  C501     1.0000 0.31213  0.97040  0.66624  Biso   1.000  C
  C502     1.0000 0.38267  0.66124  0.01288  Biso   1.000  C
  C503     1.0000 0.50625  0.09571  0.31965  Biso   1.000  C
  C504     1.0000 0.80768  0.94262  0.89072  Biso   1.000  C
  C505     1.0000 0.63992  0.47143  0.81446  Biso   1.000  C
  C506     1.0000 0.80231  0.58127  0.54747  Biso   1.000  C
  C507     1.0000 0.50232  0.75157  0.65964  Biso   1.000  C
  C508     1.0000 0.13817  0.44716  0.73978  Biso   1.000  C
  C509     1.0000 0.30663  0.58466  0.02501  Biso   1.000  C
  C510     1.0000 0.99790  0.74105  0.90755  Biso   1.000  C
  C511     1.0000 0.88309  0.94413  0.81231  Biso   1.000  C
  C512     1.0000 0.72347  0.07705  0.49608  Biso   1.000  C
  C513     1.0000 0.03422  0.24295  0.63851  Biso   1.000  C
  C514     1.0000 0.38954  0.95379  0.73767  Biso   1.000  C
  C515     1.0000 0.22378  0.08276  0.02669  Biso   1.000  C
  C516     1.0000 0.54382  0.25759  0.89702  Biso   1.000  C
  C517     1.0000 0.38579  0.48400  0.23922  Biso   1.000  C
  C518     1.0000 0.22395  0.33526  0.51708  Biso   1.000  C
  C519     1.0000 0.51683  0.17145  0.39788  Biso   1.000  C
  C520     1.0000 0.88185  0.46170  0.31037  Biso   1.000  C
  C521     1.0000 0.72586  0.32597  0.01591  Biso   1.000  C
  C522     1.0000 0.01363  0.17145  0.14338  Biso   1.000  C
  C523     1.0000 0.14229  0.97810  0.23433  Biso   1.000  C
  C524     1.0000 0.29816  0.84397  0.53667  Biso   1.000  C
  C525     1.0000 0.99681  0.68356  0.41192  Biso   1.000  C
  C526     1.0000 0.63697  0.97170  0.31543  Biso   1.000  C
  C527     1.0000 0.80662  0.81894  0.04376  Biso   1.000  C
  C528     1.0000 0.49962  0.67255  0.16267  Biso   1.000  C
  C529     1.0000 0.80764  0.08773  0.01015  Biso   1.000  C
  C530     1.0000 0.99829  0.75515  0.17167  Biso   1.000  C
  C531     1.0000 0.14748  0.93372  0.81631  Biso   1.000  C
  C532     1.0000 0.31158  0.11576  0.52793  Biso   1.000  C
  C533     1.0000 0.51065  0.75209  0.39121  Biso   1.000  C
  C534     1.0000 0.65533  0.96521  0.73020  Biso   1.000  C
  C535     1.0000 0.71749  0.59043  0.05497  Biso   1.000  C
  C536     1.0000 0.50072  0.25064  0.16490  Biso   1.000  C
  C537     1.0000 0.37458  0.45553  0.82355  Biso   1.000  C
  C538     1.0000 0.21681  0.60668  0.52643  Biso   1.000  C
  C539     1.0000 0.00414  0.26269  0.37153  Biso   1.000  C
  C540     1.0000 0.87391  0.45357  0.72687  Biso   1.000  C
  C541     1.0000 0.22490  0.81916  0.03500  Biso   1.000  C
  C542     1.0000 0.03316  0.15847  0.87688  Biso   1.000  C
  C543     1.0000 0.87569  0.96232  0.23392  Biso   1.000  C
  C544     1.0000 0.71451  0.80956  0.53028  Biso   1.000  C
  C545     1.0000 0.54361  0.16840  0.66341  Biso   1.000  C
  C546     1.0000 0.36984  0.97082  0.32353  Biso   1.000  C
  C547     1.0000 0.30935  0.31436  0.03006  Biso   1.000  C
  C548     1.0000 0.52186  0.67064  0.89851  Biso   1.000  C
  C549     1.0000 0.65277  0.44755  0.22835  Biso   1.000  C
  C550     1.0000 0.80584  0.31589  0.50225  Biso   1.000  C
  C551     1.0000 0.99164  0.66746  0.68000  Biso   1.000  C
  C552     1.0000 0.14800  0.48734  0.32588  Biso   1.000  C
  C553     1.0000 0.02389  0.07978  0.80252  Biso   1.000  C
  C554     1.0000 0.80127  0.94773  0.15753  Biso   1.000  C
  C555     1.0000 0.14818  0.74324  0.04377  Biso   1.000  C
  C556     1.0000 0.53124  0.09034  0.73747  Biso   1.000  C
  C557     1.0000 0.29469  0.97570  0.40061  Biso   1.000  C
  C558     1.0000 0.62947  0.74096  0.54341  Biso   1.000  C
  C559     1.0000 0.49522  0.59820  0.82291  Biso   1.000  C
  C560     1.0000 0.72896  0.44228  0.15130  Biso   1.000  C
  C561     1.0000 0.38887  0.24253  0.01765  Biso   1.000  C
  C562     1.0000 0.98806  0.57975  0.74645  Biso   1.000  C
  C563     1.0000 0.22336  0.45911  0.39839  Biso   1.000  C
  C564     1.0000 0.88646  0.24382  0.50693  Biso   1.000  C
  C565     1.0000 0.01815  0.83446  0.24772  Biso   1.000  C
  C566     1.0000 0.22332  0.94405  0.89607  Biso   1.000  C
  C567     1.0000 0.88763  0.15978  0.00660  Biso   1.000  C
  C568     1.0000 0.51533  0.82856  0.31781  Biso   1.000  C
  C569     1.0000 0.72939  0.95010  0.65193  Biso   1.000  C
  C570     1.0000 0.39586  0.18145  0.51107  Biso   1.000  C
  C571     1.0000 0.49655  0.33204  0.23525  Biso   1.000  C
  C572     1.0000 0.29962  0.45414  0.90449  Biso   1.000  C
  C573     1.0000 0.64189  0.66926  0.06420  Biso   1.000  C
  C574     1.0000 0.00187  0.34623  0.29992  Biso   1.000  C
  C575     1.0000 0.79927  0.46659  0.64933  Biso   1.000  C
  C576     1.0000 0.13878  0.67895  0.54531  Biso   1.000  C
  C577     1.0000 0.30703  0.46119  0.13599  Biso   1.000  C
  C578     1.0000 0.12055  0.26009  0.49749  Biso   1.000  C
  C579     1.0000 0.50402  0.06333  0.31942  Biso   1.000  C
  C580     1.0000 0.80603  0.44669  0.41555  Biso   1.000  C
  C581     1.0000 0.62188  0.24881  0.03080  Biso   1.000  C
  C582     1.0000 0.98272  0.06846  0.22243  Biso   1.000  C
  C583     1.0000 0.22069  0.95580  0.13040  Biso   1.000  C
  C584     1.0000 0.39896  0.76149  0.52506  Biso   1.000  C
  C585     1.0000 0.02139  0.57926  0.33162  Biso   1.000  C
  C586     1.0000 0.71203  0.94114  0.41732  Biso   1.000  C
  C587     1.0000 0.91532  0.74651  0.05062  Biso   1.000  C
  C588     1.0000 0.54502  0.56787  0.22604  Biso   1.000  C
  C589     1.0000 0.71597  0.48334  0.91780  Biso   1.000  C
  C590     1.0000 0.90151  0.66704  0.55758  Biso   1.000  C
  C591     1.0000 0.52894  0.85982  0.73206  Biso   1.000  C
  C592     1.0000 0.21994  0.46691  0.63829  Biso   1.000  C
  C593     1.0000 0.41390  0.66155  0.01234  Biso   1.000  C
  C594     1.0000 0.99188  0.84645  0.83110  Biso   1.000  C
  C595     1.0000 0.80789  0.94012  0.92151  Biso   1.000  C
  C596     1.0000 0.62528  0.16220  0.52635  Biso   1.000  C
  C597     1.0000 0.00617  0.34431  0.72246  Biso   1.000  C
  C598     1.0000 0.31127  0.97321  0.63478  Biso   1.000  C
  C599     1.0000 0.11931  0.15973  0.00286  Biso   1.000  C
  C600     1.0000 0.51005  0.36088  0.82090  Biso   1.000  C
  C601     1.0000 0.22142  0.94755  0.92847  Biso   1.000  C
  C602     1.0000 0.91872  0.15663  0.00334  Biso   1.000  C
  C603     1.0000 0.02369  0.86549  0.24590  Biso   1.000  C
  C604     1.0000 0.72711  0.94737  0.62016  Biso   1.000  C
  C605     1.0000 0.42619  0.17802  0.51480  Biso   1.000  C
  C606     1.0000 0.51069  0.86023  0.31974  Biso   1.000  C
  C607     1.0000 0.30095  0.45703  0.93703  Biso   1.000  C
  C608     1.0000 0.60992  0.67001  0.06243  Biso   1.000  C
  C609     1.0000 0.50026  0.36288  0.23341  Biso   1.000  C
  C610     1.0000 0.80120  0.46435  0.61844  Biso   1.000  C
  C611     1.0000 0.10780  0.67658  0.54597  Biso   1.000  C
  C612     1.0000 0.00471  0.37805  0.30473  Biso   1.000  C
  C613     1.0000 0.80197  0.94849  0.12461  Biso   1.000  C
  C614     1.0000 0.11635  0.74451  0.04368  Biso   1.000  C
  C615     1.0000 0.02081  0.04763  0.80489  Biso   1.000  C
  C616     1.0000 0.29739  0.97653  0.43233  Biso   1.000  C
  C617     1.0000 0.59941  0.74479  0.53889  Biso   1.000  C
  C618     1.0000 0.52272  0.06031  0.73592  Biso   1.000  C
  C619     1.0000 0.72918  0.44563  0.12108  Biso   1.000  C
  C620     1.0000 0.41981  0.24540  0.01725  Biso   1.000  C
  C621     1.0000 0.49357  0.56636  0.82334  Biso   1.000  C
  C622     1.0000 0.22187  0.45374  0.43022  Biso   1.000  C
  C623     1.0000 0.91878  0.24744  0.50700  Biso   1.000  C
  C624     1.0000 0.99208  0.54864  0.74252  Biso   1.000  C
  C625     1.0000 0.03420  0.15999  0.90827  Biso   1.000  C
  C626     1.0000 0.90769  0.96511  0.23298  Biso   1.000  C
  C627     1.0000 0.22520  0.85069  0.03450  Biso   1.000  C
  C628     1.0000 0.54001  0.17060  0.63249  Biso   1.000  C
  C629     1.0000 0.40048  0.97121  0.32419  Biso   1.000  C
  C630     1.0000 0.71679  0.84024  0.52406  Biso   1.000  C
  C631     1.0000 0.52858  0.66740  0.93003  Biso   1.000  C
  C632     1.0000 0.62055  0.44533  0.22713  Biso   1.000  C
  C633     1.0000 0.30616  0.34594  0.02885  Biso   1.000  C
  C634     1.0000 0.99591  0.66901  0.64892  Biso   1.000  C
  C635     1.0000 0.11671  0.48536  0.32607  Biso   1.000  C
  C636     1.0000 0.80241  0.34703  0.50461  Biso   1.000  C
  C637     1.0000 0.99839  0.75530  0.14080  Biso   1.000  C
  C638     1.0000 0.11551  0.93499  0.81922  Biso   1.000  C
  C639     1.0000 0.80604  0.05674  0.01421  Biso   1.000  C
  C640     1.0000 0.50412  0.75181  0.42185  Biso   1.000  C
  C641     1.0000 0.62455  0.97109  0.73143  Biso   1.000  C
  C642     1.0000 0.30809  0.08544  0.53498  Biso   1.000  C
  C643     1.0000 0.50497  0.24918  0.13371  Biso   1.000  C
  C644     1.0000 0.40563  0.45675  0.82380  Biso   1.000  C
  C645     1.0000 0.71715  0.56023  0.04660  Biso   1.000  C
  C646     1.0000 0.00574  0.26095  0.40263  Biso   1.000  C
  C647     1.0000 0.90574  0.44797  0.72675  Biso   1.000  C
  C648     1.0000 0.21803  0.57475  0.52327  Biso   1.000  C
  C649     1.0000 0.99494  0.68208  0.44394  Biso   1.000  C
  C650     1.0000 0.42026  0.94963  0.73517  Biso   1.000  C
  C651     1.0000 0.72486  0.35774  0.01424  Biso   1.000  C
  C652     1.0000 0.49264  0.67159  0.13243  Biso   1.000  C
  C653     1.0000 0.91488  0.94238  0.81056  Biso   1.000  C
  C654     1.0000 0.22386  0.36737  0.52424  Biso   1.000  C
  C655     1.0000 0.51765  0.16982  0.42874  Biso   1.000  C
  C656     1.0000 0.10615  0.44672  0.73772  Biso   1.000  C
  C657     1.0000 0.80717  0.85017  0.04049  Biso   1.000  C
  C658     1.0000 0.01859  0.16774  0.11166  Biso   1.000  C
  C659     1.0000 0.61022  0.46417  0.81664  Biso   1.000  C
  C660     1.0000 0.29940  0.87475  0.53414  Biso   1.000  C
  C661     1.0000 0.03243  0.24565  0.60735  Biso   1.000  C
  C662     1.0000 0.60478  0.97039  0.31787  Biso   1.000  C
  C663     1.0000 0.30931  0.55258  0.02908  Biso   1.000  C
  C664     1.0000 0.54143  0.25579  0.92805  Biso   1.000  C
  C665     1.0000 0.11015  0.98033  0.23231  Biso   1.000  C
  C666     1.0000 0.80443  0.55003  0.54179  Biso   1.000  C
  C667     1.0000 0.49828  0.75079  0.62874  Biso   1.000  C
  C668     1.0000 0.91346  0.46889  0.31154  Biso   1.000  C
  C669     1.0000 0.22111  0.05271  0.03495  Biso   1.000  C
  C670     1.0000 0.00852  0.74041  0.93726  Biso   1.000  C
  C671     1.0000 0.41710  0.48448  0.23677  Biso   1.000  C
  C672     1.0000 0.71900  0.04568  0.49455  Biso   1.000  C
  C673     1.0000 0.21266  0.94157  0.83255  Biso   1.000  C
  C674     1.0000 0.82394  0.14895  0.01108  Biso   1.000  C
  C675     1.0000 0.00491  0.77102  0.23757  Biso   1.000  C
  C676     1.0000 0.71489  0.95948  0.71550  Biso   1.000  C
  C677     1.0000 0.33109  0.17420  0.51080  Biso   1.000  C
  C678     1.0000 0.51722  0.76671  0.33118  Biso   1.000  C
  C679     1.0000 0.31285  0.45333  0.83852  Biso   1.000  C
  C680     1.0000 0.70613  0.65547  0.06512  Biso   1.000  C
  C681     1.0000 0.49151  0.26985  0.22732  Biso   1.000  C
  C682     1.0000 0.81117  0.46476  0.71242  Biso   1.000  C
  C683     1.0000 0.20128  0.66837  0.53750  Biso   1.000  C
  C684     1.0000 0.99765  0.27959  0.30741  Biso   1.000  C
  C685     1.0000 0.81377  0.95769  0.22143  Biso   1.000  C
  C686     1.0000 0.21154  0.75776  0.03198  Biso   1.000  C
  C687     1.0000 0.02759  0.14540  0.81508  Biso   1.000  C
  C688     1.0000 0.30628  0.97289  0.33759  Biso   1.000  C
  C689     1.0000 0.69637  0.74944  0.54205  Biso   1.000  C
  C690     1.0000 0.54342  0.15287  0.72602  Biso   1.000  C
  C691     1.0000 0.71460  0.44307  0.21672  Biso   1.000  C
  C692     1.0000 0.32637  0.25325  0.01942  Biso   1.000  C
  C693     1.0000 0.50951  0.65977  0.83683  Biso   1.000  C
  C694     1.0000 0.21240  0.47973  0.33864  Biso   1.000  C
  C695     1.0000 0.82328  0.25287  0.50222  Biso   1.000  C
  C696     1.0000 0.98198  0.64570  0.74216  Biso   1.000  C
  C697     1.0000 0.70047  0.96506  0.32806  Biso   1.000  C
  C698     1.0000 0.32085  0.64914  0.01648  Biso   1.000  C
  C699     1.0000 0.02929  0.25313  0.70371  Biso   1.000  C
  C700     1.0000 0.20481  0.96800  0.22251  Biso   1.000  C
  C701     1.0000 0.80948  0.64539  0.55617  Biso   1.000  C
  C702     1.0000 0.53793  0.26887  0.83393  Biso   1.000  C
  C703     1.0000 0.81904  0.45334  0.32047  Biso   1.000  C
  C704     1.0000 0.21204  0.14690  0.01354  Biso   1.000  C
  C705     1.0000 0.51144  0.76621  0.72220  Biso   1.000  C
  C706     1.0000 0.32284  0.48317  0.22722  Biso   1.000  C
  C707     1.0000 0.71529  0.14160  0.50094  Biso   1.000  C
  C708     1.0000 0.98116  0.75323  0.84893  Biso   1.000  C
  C709     1.0000 0.32646  0.95759  0.72781  Biso   1.000  C
  C710     1.0000 0.71574  0.26238  0.01839  Biso   1.000  C
  C711     1.0000 0.00747  0.66945  0.34885  Biso   1.000  C
  C712     1.0000 0.82333  0.94786  0.82436  Biso   1.000  C
  C713     1.0000 0.21245  0.27358  0.50206  Biso   1.000  C
  C714     1.0000 0.52471  0.66178  0.21992  Biso   1.000  C
  C715     1.0000 0.20178  0.45149  0.72976  Biso   1.000  C
  C716     1.0000 0.81933  0.75788  0.05691  Biso   1.000  C
  C717     1.0000 0.50596  0.15985  0.33412  Biso   1.000  C
  C718     1.0000 0.70240  0.47253  0.82697  Biso   1.000  C
  C719     1.0000 0.30778  0.77955  0.53906  Biso   1.000  C
  C720     1.0000 0.99583  0.16252  0.20606  Biso   1.000  C
  C721     1.0000 0.53802  0.74379  0.33403  Biso   1.000  C
  C722     1.0000 0.28566  0.46974  0.84066  Biso   1.000  C
  C723     1.0000 0.79495  0.25290  0.51686  Biso   1.000  C
  C724     1.0000 0.99336  0.78045  0.26544  Biso   1.000  C
  C725     1.0000 0.78554  0.48157  0.71007  Biso   1.000  C
  C726     1.0000 0.30218  0.25244  0.04061  Biso   1.000  C
  C727     1.0000 0.98237  0.25196  0.31123  Biso   1.000  C
  C728     1.0000 0.23365  0.96531  0.83268  Biso   1.000  C
  C729     1.0000 0.72153  0.75477  0.55959  Biso   1.000  C
  C730     1.0000 0.47465  0.24295  0.22429  Biso   1.000  C
  C731     1.0000 0.73635  0.93575  0.71608  Biso   1.000  C
  C732     1.0000 0.24019  0.76081  0.04573  Biso   1.000  C
  C733     1.0000 0.52426  0.15253  0.75156  Biso   1.000  C
  C734     1.0000 0.71036  0.42711  0.24356  Biso   1.000  C
  C735     1.0000 0.22929  0.66446  0.54888  Biso   1.000  C
  C736     1.0000 0.01200  0.17437  0.81916  Biso   1.000  C
  C737     1.0000 0.23686  0.45880  0.33641  Biso   1.000  C
  C738     1.0000 0.73289  0.64828  0.08057  Biso   1.000  C
  C739     1.0000 0.99028  0.63715  0.77234  Biso   1.000  C
  C740     1.0000 0.81790  0.94738  0.25140  Biso   1.000  C
  C741     1.0000 0.30585  0.16768  0.49294  Biso   1.000  C
  C742     1.0000 0.49802  0.68958  0.84251  Biso   1.000  C
  C743     1.0000 0.27879  0.95570  0.34010  Biso   1.000  C
  C744     1.0000 0.79780  0.14561  0.02971  Biso   1.000  C
  C745     1.0000 0.02849  0.66968  0.32440  Biso   1.000  C
  C746     1.0000 0.29822  0.94287  0.71980  Biso   1.000  C
  C747     1.0000 0.73945  0.26303  0.99722  Biso   1.000  C
  C748     1.0000 0.52986  0.69274  0.21367  Biso   1.000  C
  C749     1.0000 0.79938  0.92715  0.82329  Biso   1.000  C
  C750     1.0000 0.21048  0.24284  0.51252  Biso   1.000  C
  C751     1.0000 0.51221  0.15779  0.30374  Biso   1.000  C
  C752     1.0000 0.22997  0.43652  0.72562  Biso   1.000  C
  C753     1.0000 0.79419  0.76263  0.07616  Biso   1.000  C
  C754     1.0000 0.98478  0.18948  0.19661  Biso   1.000  C
  C755     1.0000 0.72708  0.45370  0.82814  Biso   1.000  C
  C756     1.0000 0.28487  0.78120  0.51904  Biso   1.000  C
  C757     1.0000 0.01879  0.22277  0.69777  Biso   1.000  C
  C758     1.0000 0.72830  0.97836  0.33371  Biso   1.000  C
  C759     1.0000 0.32638  0.67614  0.03333  Biso   1.000  C
  C760     1.0000 0.54883  0.27393  0.80372  Biso   1.000  C
  C761     1.0000 0.23313  0.97860  0.22012  Biso   1.000  C
  C762     1.0000 0.80592  0.66861  0.57620  Biso   1.000  C
  C763     1.0000 0.52145  0.73734  0.71975  Biso   1.000  C
  C764     1.0000 0.82630  0.43382  0.29685  Biso   1.000  C
  C765     1.0000 0.20851  0.17630  0.02276  Biso   1.000  C
  C766     1.0000 0.98926  0.75719  0.81891  Biso   1.000  C
  C767     1.0000 0.29594  0.49877  0.22346  Biso   1.000  C
  C768     1.0000 0.71184  0.17106  0.48841  Biso   1.000  C
  C769     1.0000 0.52392  0.65401  0.80984  Biso   1.000  C
  C770     1.0000 0.81199  0.44530  0.73815  Biso   1.000  C
  C771     1.0000 0.69175  0.72064  0.52984  Biso   1.000  C
  C772     1.0000 0.96565  0.67356  0.73741  Biso   1.000  C
  C773     1.0000 0.31688  0.43511  0.81208  Biso   1.000  C
  C774     1.0000 0.20749  0.73083  0.01308  Biso   1.000  C
  C775     1.0000 0.03869  0.14061  0.78582  Biso   1.000  C
  C776     1.0000 0.71607  0.98347  0.73769  Biso   1.000  C
  C777     1.0000 0.82963  0.22693  0.48458  Biso   1.000  C
  C778     1.0000 0.56373  0.17816  0.72407  Biso   1.000  C
  C779     1.0000 0.21585  0.92121  0.80825  Biso   1.000  C
  C780     1.0000 0.32790  0.22825  0.99946  Biso   1.000  C
  C781     1.0000 0.50522  0.27472  0.25661  Biso   1.000  C
  C782     1.0000 0.21168  0.50157  0.31635  Biso   1.000  C
  C783     1.0000 0.33394  0.20342  0.52322  Biso   1.000  C
  C784     1.0000 0.01181  0.28351  0.27877  Biso   1.000  C
  C785     1.0000 0.74483  0.45378  0.21130  Biso   1.000  C
  C786     1.0000 0.82681  0.17645  0.99412  Biso   1.000  C
  C787     1.0000 0.01309  0.74112  0.23239  Biso   1.000  C
  C788     1.0000 0.30844  0.99099  0.31206  Biso   1.000  C
  C789     1.0000 0.19620  0.69858  0.52502  Biso   1.000  C
  C790     1.0000 0.50068  0.76869  0.30473  Biso   1.000  C
  C791     1.0000 0.78644  0.97197  0.21457  Biso   1.000  C
  C792     1.0000 0.70338  0.68661  0.05425  Biso   1.000  C
  C793     1.0000 0.49243  0.18781  0.34369  Biso   1.000  C
  C794     1.0000 0.32533  0.46990  0.25557  Biso   1.000  C
  C795     1.0000 0.24063  0.28281  0.49102  Biso   1.000  C
  C796     1.0000 0.00716  0.16082  0.23444  Biso   1.000  C
  C797     1.0000 0.78924  0.46665  0.32421  Biso   1.000  C
  C798     1.0000 0.71417  0.23762  0.03649  Biso   1.000  C
  C799     1.0000 0.98509  0.69252  0.34870  Biso   1.000  C
  C800     1.0000 0.19711  0.95621  0.25110  Biso   1.000  C
  C801     1.0000 0.30807  0.75730  0.56083  Biso   1.000  C
  C802     1.0000 0.52402  0.65468  0.25047  Biso   1.000  C
  C803     1.0000 0.69669  0.95576  0.29857  Biso   1.000  C
  C804     1.0000 0.82069  0.72903  0.04125  Biso   1.000  C
  C805     1.0000 0.50122  0.77430  0.75096  Biso   1.000  C
  C806     1.0000 0.70081  0.48951  0.80046  Biso   1.000  C
  C807     1.0000 0.78712  0.64076  0.53527  Biso   1.000  C
  C808     1.0000 0.96229  0.72912  0.85635  Biso   1.000  C
  C809     1.0000 0.19679  0.46496  0.75850  Biso   1.000  C
  C810     1.0000 0.29366  0.64696  0.00100  Biso   1.000  C
  C811     1.0000 0.04122  0.25913  0.73301  Biso   1.000  C
  C812     1.0000 0.82619  0.97007  0.80192  Biso   1.000  C
  C813     1.0000 0.74650  0.13532  0.50873  Biso   1.000  C
  C814     1.0000 0.53018  0.23809  0.83950  Biso   1.000  C
  C815     1.0000 0.32921  0.96861  0.75788  Biso   1.000  C
  C816     1.0000 0.24163  0.13885  0.00373  Biso   1.000  C
  C817     1.0000 0.01356  0.19562  0.79720  Biso   1.000  C
  C818     1.0000 0.79504  0.95151  0.27110  Biso   1.000  C
  C819     1.0000 0.26159  0.73997  0.04155  Biso   1.000  C
  C820     1.0000 0.52155  0.17667  0.76964  Biso   1.000  C
  C821     1.0000 0.25791  0.95721  0.31861  Biso   1.000  C
  C822     1.0000 0.74201  0.73344  0.56253  Biso   1.000  C
  C823     1.0000 0.49829  0.71187  0.82117  Biso   1.000  C
  C824     1.0000 0.73245  0.42283  0.26284  Biso   1.000  C
  C825     1.0000 0.28120  0.23143  0.03812  Biso   1.000  C
  C826     1.0000 0.98429  0.65691  0.79627  Biso   1.000  C
  C827     1.0000 0.25682  0.46077  0.31397  Biso   1.000  C
  C828     1.0000 0.77535  0.23095  0.51048  Biso   1.000  C
  C829     1.0000 0.99578  0.76036  0.28763  Biso   1.000  C
  C830     1.0000 0.25499  0.96866  0.81161  Biso   1.000  C
  C831     1.0000 0.77740  0.16659  0.03053  Biso   1.000  C
  C832     1.0000 0.54416  0.72389  0.31176  Biso   1.000  C
  C833     1.0000 0.75867  0.93796  0.73710  Biso   1.000  C
  C834     1.0000 0.28467  0.18898  0.49058  Biso   1.000  C
  C835     1.0000 0.47277  0.22335  0.24695  Biso   1.000  C
  C836     1.0000 0.26351  0.46590  0.82130  Biso   1.000  C
  C837     1.0000 0.75574  0.66872  0.07950  Biso   1.000  C
  C838     1.0000 0.97891  0.23152  0.28846  Biso   1.000  C
  C839     1.0000 0.76453  0.48417  0.73337  Biso   1.000  C
  C840     1.0000 0.25031  0.68523  0.54754  Biso   1.000  C
  C841     1.0000 0.23944  0.92343  0.78806  Biso   1.000  C
  C842     1.0000 0.80443  0.19557  0.99548  Biso   1.000  C
  C843     1.0000 0.01134  0.72101  0.25433  Biso   1.000  C
  C844     1.0000 0.73803  0.98129  0.75839  Biso   1.000  C
  C845     1.0000 0.31208  0.22357  0.51814  Biso   1.000  C
  C846     1.0000 0.50759  0.74812  0.28310  Biso   1.000  C
  C847     1.0000 0.29488  0.43463  0.79134  Biso   1.000  C
  C848     1.0000 0.72654  0.70570  0.05403  Biso   1.000  C
  C849     1.0000 0.50231  0.25453  0.27853  Biso   1.000  C
  C850     1.0000 0.79171  0.44824  0.75993  Biso   1.000  C
  C851     1.0000 0.21751  0.72000  0.52404  Biso   1.000  C
  C852     1.0000 0.00887  0.26187  0.25614  Biso   1.000  C
  C853     1.0000 0.76435  0.97506  0.23567  Biso   1.000  C
  C854     1.0000 0.22986  0.71107  0.01001  Biso   1.000  C
  C855     1.0000 0.03959  0.16250  0.76423  Biso   1.000  C
  C856     1.0000 0.28891  0.98955  0.28962  Biso   1.000  C
  C857     1.0000 0.71351  0.69887  0.53258  Biso   1.000  C
  C858     1.0000 0.56301  0.20012  0.74522  Biso   1.000  C
  C859     1.0000 0.76645  0.45143  0.23198  Biso   1.000  C
  C860     1.0000 0.30608  0.20767  0.99778  Biso   1.000  C
  C861     1.0000 0.52307  0.67750  0.78980  Biso   1.000  C
  C862     1.0000 0.23390  0.50456  0.29418  Biso   1.000  C
  C863     1.0000 0.81003  0.20332  0.48249  Biso   1.000  C
  C864     1.0000 0.95982  0.69048  0.76118  Biso   1.000  C
  C865     1.0000 0.74636  0.45145  0.80500  Biso   1.000  C
  C866     1.0000 0.78354  0.68783  0.57317  Biso   1.000  C
  C867     1.0000 0.52292  0.71843  0.74283  Biso   1.000  C
  C868     1.0000 0.25001  0.43587  0.74720  Biso   1.000  C
  C869     1.0000 0.30587  0.69946  0.03361  Biso   1.000  C
  C870     1.0000 0.98382  0.73473  0.79955  Biso   1.000  C
  C871     1.0000 0.77920  0.93166  0.80068  Biso   1.000  C
  C872     1.0000 0.73505  0.18881  0.48494  Biso   1.000  C
  C873     1.0000 0.01923  0.20297  0.72087  Biso   1.000  C
  C874     1.0000 0.27778  0.93738  0.74128  Biso   1.000  C
  C875     1.0000 0.23091  0.19717  0.02442  Biso   1.000  C
  C876     1.0000 0.54853  0.25153  0.78344  Biso   1.000  C
  C877     1.0000 0.27492  0.49929  0.24547  Biso   1.000  C
  C878     1.0000 0.23388  0.22391  0.51164  Biso   1.000  C
  C879     1.0000 0.50227  0.17876  0.28464  Biso   1.000  C
  C880     1.0000 0.80496  0.42634  0.27890  Biso   1.000  C
  C881     1.0000 0.76010  0.24056  0.99686  Biso   1.000  C
  C882     1.0000 0.98604  0.21449  0.21459  Biso   1.000  C
  C883     1.0000 0.25228  0.97956  0.24267  Biso   1.000  C
  C884     1.0000 0.26788  0.75791  0.51471  Biso   1.000  C
  C885     1.0000 0.02676  0.69072  0.30306  Biso   1.000  C
  C886     1.0000 0.75134  0.98031  0.31385  Biso   1.000  C
  C887     1.0000 0.77302  0.73957  0.08016  Biso   1.000  C
  C888     1.0000 0.53168  0.71335  0.23586  Biso   1.000  C
  C889     1.0000 0.72001  0.95771  0.27801  Biso   1.000  C
  C890     1.0000 0.27523  0.67119  0.00011  Biso   1.000  C
  C891     1.0000 0.04047  0.23854  0.75480  Biso   1.000  C
  C892     1.0000 0.21707  0.95666  0.27298  Biso   1.000  C
  C893     1.0000 0.76318  0.65982  0.53421  Biso   1.000  C
  C894     1.0000 0.53182  0.21570  0.81904  Biso   1.000  C
  C895     1.0000 0.76976  0.45907  0.30307  Biso   1.000  C
  C896     1.0000 0.26391  0.15992  0.00479  Biso   1.000  C
  C897     1.0000 0.50163  0.75457  0.77400  Biso   1.000  C
  C898     1.0000 0.30417  0.47039  0.27670  Biso   1.000  C
  C899     1.0000 0.76865  0.15436  0.50417  Biso   1.000  C
  C900     1.0000 0.95614  0.70724  0.83550  Biso   1.000  C
  C901     1.0000 0.30617  0.96393  0.77821  Biso   1.000  C
  C902     1.0000 0.73435  0.21354  0.03355  Biso   1.000  C
  C903     1.0000 0.98357  0.71194  0.32692  Biso   1.000  C
  C904     1.0000 0.80434  0.97349  0.78151  Biso   1.000  C
  C905     1.0000 0.26451  0.26439  0.49333  Biso   1.000  C
  C906     1.0000 0.52661  0.67521  0.27199  Biso   1.000  C
  C907     1.0000 0.21827  0.46212  0.77944  Biso   1.000  C
  C908     1.0000 0.79861  0.70939  0.04477  Biso   1.000  C
  C909     1.0000 0.48514  0.20922  0.32389  Biso   1.000  C
  C910     1.0000 0.72210  0.48751  0.77784  Biso   1.000  C
  C911     1.0000 0.28751  0.73523  0.55934  Biso   1.000  C
  C912     1.0000 0.00494  0.18461  0.25291  Biso   1.000  C
  C913     1.0000 0.76826  0.46758  0.75787  Biso   1.000  C
  C914     1.0000 0.73772  0.70431  0.55061  Biso   1.000  C
  C915     1.0000 0.50961  0.70474  0.79459  Biso   1.000  C
  C916     1.0000 0.26927  0.45176  0.79515  Biso   1.000  C
  C917     1.0000 0.25755  0.71537  0.02291  Biso   1.000  C
  C918     1.0000 0.96689  0.68305  0.78967  Biso   1.000  C
  C919     1.0000 0.75774  0.95861  0.76045  Biso   1.000  C
  C920     1.0000 0.78154  0.20654  0.49330  Biso   1.000  C
  C921     1.0000 0.02838  0.18997  0.77091  Biso   1.000  C
  C922     1.0000 0.25791  0.94791  0.78983  Biso   1.000  C
  C923     1.0000 0.28371  0.20865  0.01954  Biso   1.000  C
  C924     1.0000 0.54144  0.20025  0.76779  Biso   1.000  C
  C925     1.0000 0.25526  0.48347  0.29483  Biso   1.000  C
  C926     1.0000 0.28732  0.21567  0.50336  Biso   1.000  C
  C927     1.0000 0.48526  0.22910  0.27457  Biso   1.000  C
  C928     1.0000 0.75916  0.43661  0.25657  Biso   1.000  C
  C929     1.0000 0.77991  0.19120  0.01253  Biso   1.000  C
  C930     1.0000 0.99315  0.23660  0.26276  Biso   1.000  C
  C931     1.0000 0.26555  0.97037  0.29243  Biso   1.000  C
  C932     1.0000 0.24488  0.71219  0.53517  Biso   1.000  C
  C933     1.0000 0.00460  0.73177  0.28204  Biso   1.000  C
  C934     1.0000 0.76992  0.96684  0.26419  Biso   1.000  C
  C935     1.0000 0.75199  0.69578  0.06686  Biso   1.000  C
  C936     1.0000 0.52922  0.72761  0.28636  Biso   1.000  C
  C937     1.0000 0.76002  0.21697  0.01602  Biso   1.000  C
  C938     1.0000 0.00419  0.71068  0.30465  Biso   1.000  C
  C939     1.0000 0.28166  0.94941  0.76837  Biso   1.000  C
  C940     1.0000 0.26161  0.23509  0.50146  Biso   1.000  C
  C941     1.0000 0.53028  0.70476  0.26400  Biso   1.000  C
  C942     1.0000 0.77959  0.95561  0.78307  Biso   1.000  C
  C943     1.0000 0.77690  0.71381  0.06441  Biso   1.000  C
  C944     1.0000 0.48994  0.20433  0.29476  Biso   1.000  C
  C945     1.0000 0.24507  0.44731  0.77384  Biso   1.000  C
  C946     1.0000 0.26814  0.73526  0.53570  Biso   1.000  C
  C947     1.0000 0.99484  0.21018  0.24241  Biso   1.000  C
  C948     1.0000 0.74551  0.46884  0.78093  Biso   1.000  C
  C949     1.0000 0.28105  0.69473  0.01804  Biso   1.000  C
  C950     1.0000 0.02911  0.21115  0.74778  Biso   1.000  C
  C951     1.0000 0.74611  0.96909  0.28625  Biso   1.000  C
  C952     1.0000 0.76214  0.68463  0.55076  Biso   1.000  C
  C953     1.0000 0.54025  0.22307  0.79037  Biso   1.000  C
  C954     1.0000 0.24387  0.97023  0.26944  Biso   1.000  C
  C955     1.0000 0.25891  0.18788  0.01697  Biso   1.000  C
  C956     1.0000 0.51348  0.72700  0.77053  Biso   1.000  C
  C957     1.0000 0.77819  0.44009  0.28207  Biso   1.000  C
  C958     1.0000 0.76352  0.18143  0.49159  Biso   1.000  C
  C959     1.0000 0.96664  0.70984  0.80765  Biso   1.000  C
  C960     1.0000 0.27941  0.48478  0.27175  Biso   1.000  C
  Cu1      1.0000 0.00742  0.45405  0.67634  Biso   1.000  Cu
  Cu2      1.0000 0.66540  0.94530  0.52059  Biso   1.000  Cu
  Cu3      1.0000 0.51567  0.61608  0.03040  Biso   1.000  Cu
  Cu4      1.0000 0.50705  0.46482  0.87737  Biso   1.000  Cu
  Cu5      1.0000 0.16917  0.95053  0.02847  Biso   1.000  Cu
  Cu6      1.0000 0.00673  0.62103  0.54500  Biso   1.000  Cu
  Cu7      1.0000 0.52298  0.96121  0.67900  Biso   1.000  Cu
  Cu8      1.0000 0.85573  0.45022  0.51875  Biso   1.000  Cu
  Cu9      1.0000 0.01821  0.10468  0.00982  Biso   1.000  Cu
  Cu10     1.0000 0.01807  0.95207  0.86762  Biso   1.000  Cu
  Cu11     1.0000 0.36034  0.44920  0.03354  Biso   1.000  Cu
  Cu12     1.0000 0.52024  0.11563  0.53081  Biso   1.000  Cu
  Cu13     1.0000 0.01373  0.47211  0.37438  Biso   1.000  Cu
  Cu14     1.0000 0.35818  0.97723  0.53001  Biso   1.000  Cu
  Cu15     1.0000 0.51722  0.30173  0.03181  Biso   1.000  Cu
  Cu16     1.0000 0.51895  0.46221  0.18056  Biso   1.000  Cu
  Cu17     1.0000 0.86101  0.95199  0.02237  Biso   1.000  Cu
  Cu18     1.0000 0.01755  0.31184  0.50865  Biso   1.000  Cu
  Cu19     1.0000 0.50276  0.96397  0.37542  Biso   1.000  Cu
  Cu20     1.0000 0.16886  0.46713  0.53385  Biso   1.000  Cu
  Cu21     1.0000 0.01563  0.80021  0.03619  Biso   1.000  Cu
  Cu22     1.0000 0.00857  0.96197  0.17972  Biso   1.000  Cu
  Cu23     1.0000 0.66657  0.45989  0.02307  Biso   1.000  Cu
  Cu24     1.0000 0.50338  0.80650  0.52587  Biso   1.000  Cu
  Cu25     1.0000 0.22216  0.95083  0.02748  Biso   1.000  Cu
  Cu26     1.0000 0.01690  0.15874  0.00846  Biso   1.000  Cu
  Cu27     1.0000 0.00887  0.96835  0.23433  Biso   1.000  Cu
  Cu28     1.0000 0.72194  0.94392  0.51864  Biso   1.000  Cu
  Cu29     1.0000 0.52450  0.16929  0.52918  Biso   1.000  Cu
  Cu30     1.0000 0.50154  0.96392  0.32191  Biso   1.000  Cu
  Cu31     1.0000 0.30684  0.45121  0.03641  Biso   1.000  Cu
  Cu32     1.0000 0.51273  0.66997  0.03206  Biso   1.000  Cu
  Cu33     1.0000 0.52065  0.46590  0.23421  Biso   1.000  Cu
  Cu34     1.0000 0.80209  0.45163  0.51627  Biso   1.000  Cu
  Cu35     1.0000 0.00488  0.67513  0.54905  Biso   1.000  Cu
  Cu36     1.0000 0.01739  0.47873  0.32066  Biso   1.000  Cu
  Cu37     1.0000 0.80596  0.95057  0.02126  Biso   1.000  Cu
  Cu38     1.0000 0.01519  0.74579  0.04101  Biso   1.000  Cu
  Cu39     1.0000 0.01598  0.94472  0.81341  Biso   1.000  Cu
  Cu40     1.0000 0.30548  0.97855  0.53493  Biso   1.000  Cu
  Cu41     1.0000 0.49945  0.75203  0.52434  Biso   1.000  Cu
  Cu42     1.0000 0.52210  0.95879  0.73170  Biso   1.000  Cu
  Cu43     1.0000 0.71985  0.45918  0.01830  Biso   1.000  Cu
  Cu44     1.0000 0.52040  0.24726  0.02843  Biso   1.000  Cu
  Cu45     1.0000 0.50718  0.46524  0.82100  Biso   1.000  Cu
  Cu46     1.0000 0.22330  0.46883  0.53260  Biso   1.000  Cu
  Cu47     1.0000 0.02176  0.25470  0.50213  Biso   1.000  Cu
  Cu48     1.0000 0.00193  0.44809  0.72930  Biso   1.000  Cu
  H1       1.0000 0.25197  0.75869  0.49536  Biso   1.000  H
  H2       1.0000 0.55315  0.25887  0.76070  Biso   1.000  H
  H3       1.0000 0.80990  0.41119  0.26139  Biso   1.000  H
  H4       1.0000 0.75734  0.74210  0.09804  Biso   1.000  H
  H5       1.0000 0.00732  0.18142  0.71610  Biso   1.000  H
  H6       1.0000 0.25605  0.51241  0.24369  Biso   1.000  H
  H7       1.0000 0.22934  0.20131  0.51929  Biso   1.000  H
  H8       1.0000 0.99230  0.73514  0.77786  Biso   1.000  H
  H9       1.0000 0.77375  0.98584  0.31846  Biso   1.000  H
  H10      1.0000 0.77543  0.23995  0.98005  Biso   1.000  H
  H11      1.0000 0.53121  0.69637  0.73824  Biso   1.000  H
  H12      1.0000 0.27278  0.98992  0.23860  Biso   1.000  H
  H13      1.0000 0.73100  0.21016  0.47591  Biso   1.000  H
  H14      1.0000 0.53314  0.73613  0.22915  Biso   1.000  H
  H15      1.0000 0.26858  0.42275  0.74076  Biso   1.000  H
  H16      1.0000 0.22738  0.22036  0.03154  Biso   1.000  H
  H17      1.0000 0.04261  0.69024  0.28656  Biso   1.000  H
  H18      1.0000 0.76310  0.43632  0.80888  Biso   1.000  H
  H19      1.0000 0.78183  0.70464  0.58990  Biso   1.000  H
  H20      1.0000 0.97519  0.23371  0.20920  Biso   1.000  H
  H21      1.0000 0.25816  0.92999  0.73073  Biso   1.000  H
  H22      1.0000 0.31105  0.72051  0.04510  Biso   1.000  H
  H23      1.0000 0.50488  0.17796  0.26252  Biso   1.000  H
  H24      1.0000 0.75949  0.91998  0.79867  Biso   1.000  H
  H25      1.0000 0.27025  0.98692  0.81406  Biso   1.000  H
  H26      1.0000 0.75878  0.16312  0.04502  Biso   1.000  H
  H27      1.0000 0.99151  0.76658  0.30926  Biso   1.000  H
  H28      1.0000 0.77382  0.91932  0.73888  Biso   1.000  H
  H29      1.0000 0.26461  0.18356  0.47961  Biso   1.000  H
  H30      1.0000 0.55928  0.70599  0.31581  Biso   1.000  H
  H31      1.0000 0.24163  0.47578  0.82511  Biso   1.000  H
  H32      1.0000 0.77765  0.66282  0.08877  Biso   1.000  H
  H33      1.0000 0.46137  0.20420  0.24107  Biso   1.000  H
  H34      1.0000 0.74594  0.50031  0.72993  Biso   1.000  H
  H35      1.0000 0.27131  0.67939  0.55733  Biso   1.000  H
  H36      1.0000 0.96576  0.21183  0.29252  Biso   1.000  H
  H37      1.0000 0.79774  0.94480  0.29258  Biso   1.000  H
  H38      1.0000 0.28254  0.74436  0.05040  Biso   1.000  H
  H39      1.0000 0.00179  0.21607  0.79757  Biso   1.000  H
  H40      1.0000 0.23861  0.94356  0.31929  Biso   1.000  H
  H41      1.0000 0.76207  0.74065  0.57270  Biso   1.000  H
  H42      1.0000 0.50373  0.17622  0.78512  Biso   1.000  H
  H43      1.0000 0.72725  0.40840  0.28281  Biso   1.000  H
  H44      1.0000 0.26437  0.23039  0.05540  Biso   1.000  H
  H45      1.0000 0.49101  0.73339  0.82429  Biso   1.000  H
  H46      1.0000 0.27421  0.44480  0.31377  Biso   1.000  H
  H47      1.0000 0.75542  0.23335  0.52296  Biso   1.000  H
  H48      1.0000 0.99324  0.65307  0.81643  Biso   1.000  H
  H49      1.0000 0.23542  0.52501  0.28269  Biso   1.000  H
  H50      1.0000 0.31563  0.24438  0.52797  Biso   1.000  H
  H51      1.0000 0.51231  0.25924  0.29913  Biso   1.000  H
  H52      1.0000 0.78773  0.45854  0.22701  Biso   1.000  H
  H53      1.0000 0.80651  0.21269  0.97855  Biso   1.000  H
  H54      1.0000 0.02044  0.26404  0.23624  Biso   1.000  H
  H55      1.0000 0.29363  0.00077  0.26902  Biso   1.000  H
  H56      1.0000 0.21468  0.74145  0.51539  Biso   1.000  H
  H57      1.0000 0.01126  0.69794  0.25082  Biso   1.000  H
  H58      1.0000 0.74302  0.98532  0.22888  Biso   1.000  H
  H59      1.0000 0.72672  0.72695  0.04513  Biso   1.000  H
  H60      1.0000 0.49767  0.75125  0.26225  Biso   1.000  H
  H61      1.0000 0.79250  0.43155  0.77596  Biso   1.000  H
  H62      1.0000 0.70993  0.67756  0.52406  Biso   1.000  H
  H63      1.0000 0.53535  0.67018  0.77060  Biso   1.000  H
  H64      1.0000 0.29962  0.42421  0.77024  Biso   1.000  H
  H65      1.0000 0.22555  0.69254  0.99689  Biso   1.000  H
  H66      1.0000 0.94620  0.71099  0.75825  Biso   1.000  H
  H67      1.0000 0.73927  0.99807  0.77423  Biso   1.000  H
  H68      1.0000 0.81885  0.18513  0.46953  Biso   1.000  H
  H69      1.0000 0.05213  0.15753  0.74406  Biso   1.000  H
  H70      1.0000 0.24009  0.90780  0.77007  Biso   1.000  H
  H71      1.0000 0.30908  0.19196  0.98083  Biso   1.000  H
  H72      1.0000 0.57689  0.21886  0.74334  Biso   1.000  H
  H73      1.0000 0.72255  0.50162  0.75982  Biso   1.000  H
  H74      1.0000 0.74726  0.65659  0.51552  Biso   1.000  H
  H75      1.0000 0.49032  0.75940  0.79344  Biso   1.000  H
  H76      1.0000 0.21388  0.46714  0.80130  Biso   1.000  H
  H77      1.0000 0.25485  0.66950  0.98758  Biso   1.000  H
  H78      1.0000 0.94570  0.68690  0.83998  Biso   1.000  H
  H79      1.0000 0.80555  0.98946  0.76430  Biso   1.000  H
  H80      1.0000 0.78885  0.14842  0.51408  Biso   1.000  H
  H81      1.0000 0.05018  0.24531  0.77619  Biso   1.000  H
  H82      1.0000 0.30893  0.97038  0.80186  Biso   1.000  H
  H83      1.0000 0.28644  0.15482  0.00118  Biso   1.000  H
  H84      1.0000 0.52478  0.19437  0.82759  Biso   1.000  H
  H85      1.0000 0.30927  0.46083  0.29640  Biso   1.000  H
  H86      1.0000 0.28615  0.27279  0.48480  Biso   1.000  H
  H87      1.0000 0.47518  0.22900  0.33126  Biso   1.000  H
  H88      1.0000 0.74801  0.46895  0.30475  Biso   1.000  H
  H89      1.0000 0.73133  0.19495  0.04671  Biso   1.000  H
  H90      1.0000 0.01240  0.18496  0.27601  Biso   1.000  H
  H91      1.0000 0.20947  0.94681  0.29377  Biso   1.000  H
  H92      1.0000 0.28649  0.71860  0.57545  Biso   1.000  H
  H93      1.0000 0.96571  0.72860  0.32576  Biso   1.000  H
  H94      1.0000 0.71630  0.95093  0.25523  Biso   1.000  H
  H95      1.0000 0.79719  0.68889  0.03067  Biso   1.000  H
  H96      1.0000 0.52574  0.67115  0.29640  Biso   1.000  H
  H97      1.0000 0.88360  0.94988  0.92936  Biso   1.000  H
  H98      1.0000 0.92123  0.82080  0.04021  Biso   1.000  H
  H99      1.0000 0.02411  0.85926  0.90053  Biso   1.000  H
  H100     1.0000 0.38464  0.96859  0.61862  Biso   1.000  H
  H101     1.0000 0.41740  0.83446  0.52323  Biso   1.000  H
  H102     1.0000 0.51709  0.87005  0.65622  Biso   1.000  H
  H103     1.0000 0.64133  0.47806  0.93222  Biso   1.000  H
  H104     1.0000 0.61009  0.32307  0.03009  Biso   1.000  H
  H105     1.0000 0.51177  0.37658  0.89578  Biso   1.000  H
  H106     1.0000 0.14765  0.44866  0.62055  Biso   1.000  H
  H107     1.0000 0.10957  0.33678  0.51404  Biso   1.000  H
  H108     1.0000 0.00011  0.35798  0.64590  Biso   1.000  H
  H109     1.0000 0.14627  0.95945  0.11598  Biso   1.000  H
  H110     1.0000 0.10831  0.08404  0.01236  Biso   1.000  H
  H111     1.0000 0.00473  0.05200  0.15089  Biso   1.000  H
  H112     1.0000 0.63589  0.93757  0.42566  Biso   1.000  H
  H113     1.0000 0.60942  0.08606  0.52776  Biso   1.000  H
  H114     1.0000 0.50760  0.05361  0.39686  Biso   1.000  H
  H115     1.0000 0.38291  0.46045  0.12460  Biso   1.000  H
  H116     1.0000 0.42546  0.58540  0.02019  Biso   1.000  H
  H117     1.0000 0.52365  0.55376  0.15578  Biso   1.000  H
  H118     1.0000 0.88213  0.46013  0.42642  Biso   1.000  H
  H119     1.0000 0.91841  0.59245  0.55392  Biso   1.000  H
  H120     1.0000 0.02011  0.56409  0.40538  Biso   1.000  H
  H121     1.0000 0.10678  0.93896  0.89438  Biso   1.000  H
  H122     1.0000 0.87991  0.04125  0.01246  Biso   1.000  H
  H123     1.0000 0.00824  0.83037  0.12805  Biso   1.000  H
  H124     1.0000 0.61129  0.97118  0.65533  Biso   1.000  H
  H125     1.0000 0.38232  0.06603  0.53848  Biso   1.000  H
  H126     1.0000 0.50855  0.82628  0.43733  Biso   1.000  H
  H127     1.0000 0.41695  0.45581  0.89867  Biso   1.000  H
  H128     1.0000 0.64542  0.55042  0.03395  Biso   1.000  H
  H129     1.0000 0.51469  0.32098  0.11416  Biso   1.000  H
  H130     1.0000 0.91296  0.44910  0.64934  Biso   1.000  H
  H131     1.0000 0.14403  0.55936  0.52948  Biso   1.000  H
  H132     1.0000 0.01611  0.33579  0.41519  Biso   1.000  H
  H133     1.0000 0.91743  0.96355  0.15791  Biso   1.000  H
  H134     1.0000 0.15374  0.86342  0.05042  Biso   1.000  H
  H135     1.0000 0.02676  0.08630  0.92080  Biso   1.000  H
  H136     1.0000 0.41543  0.97435  0.39962  Biso   1.000  H
  H137     1.0000 0.64272  0.85895  0.52668  Biso   1.000  H
  H138     1.0000 0.52011  0.09696  0.61962  Biso   1.000  H
  H139     1.0000 0.61127  0.44610  0.15213  Biso   1.000  H
  H140     1.0000 0.38182  0.36098  0.01966  Biso   1.000  H
  H141     1.0000 0.52191  0.59254  0.93726  Biso   1.000  H
  H142     1.0000 0.10770  0.46793  0.39963  Biso   1.000  H
  H143     1.0000 0.87705  0.36316  0.50361  Biso   1.000  H
  H144     1.0000 0.00643  0.59475  0.63267  Biso   1.000  H
  H145     1.0000 0.59849  0.47218  0.89056  Biso   1.000  H
  H146     1.0000 0.87979  0.54503  0.53348  Biso   1.000  H
  H147     1.0000 0.51291  0.82279  0.61482  Biso   1.000  H
  H148     1.0000 0.10292  0.44796  0.66193  Biso   1.000  H
  H149     1.0000 0.38390  0.54481  0.02008  Biso   1.000  H
  H150     1.0000 0.02667  0.81549  0.94351  Biso   1.000  H
  H151     1.0000 0.92794  0.94965  0.88640  Biso   1.000  H
  H152     1.0000 0.64709  0.04039  0.51589  Biso   1.000  H
  H153     1.0000 0.01115  0.31899  0.60342  Biso   1.000  H
  H154     1.0000 0.42832  0.96150  0.65954  Biso   1.000  H
  H155     1.0000 0.14600  0.04396  0.02023  Biso   1.000  H
  H156     1.0000 0.52924  0.33018  0.94261  Biso   1.000  H
  H157     1.0000 0.42647  0.47186  0.16394  Biso   1.000  H
  H158     1.0000 0.14715  0.37501  0.52469  Biso   1.000  H
  H159     1.0000 0.50895  0.09464  0.43958  Biso   1.000  H
  H160     1.0000 0.92056  0.46767  0.38719  Biso   1.000  H
  H161     1.0000 0.64940  0.36758  0.01268  Biso   1.000  H
  H162     1.0000 0.01065  0.09419  0.10297  Biso   1.000  H
  H163     1.0000 0.09903  0.96311  0.16016  Biso   1.000  H
  H164     1.0000 0.37503  0.88243  0.52102  Biso   1.000  H
  H165     1.0000 0.01320  0.60750  0.45477  Biso   1.000  H
  H166     1.0000 0.59698  0.95573  0.39274  Biso   1.000  H
  H167     1.0000 0.88198  0.86196  0.03554  Biso   1.000  H
  H168     1.0000 0.50202  0.59646  0.11605  Biso   1.000  H
  H169     1.0000 0.02749  0.04347  0.88352  Biso   1.000  H
  H170     1.0000 0.87649  0.95921  0.11238  Biso   1.000  H
  H171     1.0000 0.10703  0.82152  0.05050  Biso   1.000  H
  H172     1.0000 0.51458  0.05244  0.65910  Biso   1.000  H
  H173     1.0000 0.37318  0.96868  0.44000  Biso   1.000  H
  H174     1.0000 0.59786  0.81967  0.52456  Biso   1.000  H
  H175     1.0000 0.50228  0.55463  0.89854  Biso   1.000  H
  H176     1.0000 0.65477  0.45379  0.11153  Biso   1.000  H
  H177     1.0000 0.42637  0.32463  0.01826  Biso   1.000  H
  H178     1.0000 0.00592  0.55225  0.66629  Biso   1.000  H
  H179     1.0000 0.14704  0.45967  0.44117  Biso   1.000  H
  H180     1.0000 0.92226  0.32529  0.50271  Biso   1.000  H
  H181     1.0000 0.01781  0.87161  0.16874  Biso   1.000  H
  H182     1.0000 0.14537  0.94885  0.93421  Biso   1.000  H
  H183     1.0000 0.92365  0.08089  0.01020  Biso   1.000  H
  H184     1.0000 0.50490  0.87277  0.39492  Biso   1.000  H
  H185     1.0000 0.65128  0.96189  0.61222  Biso   1.000  H
  H186     1.0000 0.42870  0.10496  0.53791  Biso   1.000  H
  H187     1.0000 0.50538  0.37151  0.15946  Biso   1.000  H
  H188     1.0000 0.37857  0.44855  0.93964  Biso   1.000  H
  H189     1.0000 0.60292  0.59772  0.03661  Biso   1.000  H
  H190     1.0000 0.00767  0.37934  0.38134  Biso   1.000  H
  H191     1.0000 0.87668  0.45636  0.60990  Biso   1.000  H
  H192     1.0000 0.10239  0.60272  0.52802  Biso   1.000  H
  H193     1.0000 0.27832  0.83362  0.54396  Biso   1.000  H
  H194     1.0000 0.55202  0.23804  0.88331  Biso   1.000  H
  H195     1.0000 0.87252  0.45907  0.28943  Biso   1.000  H
  H196     1.0000 0.78475  0.80841  0.04367  Biso   1.000  H
  H197     1.0000 0.04196  0.22270  0.64695  Biso   1.000  H
  H198     1.0000 0.37647  0.48894  0.26093  Biso   1.000  H
  H199     1.0000 0.24413  0.32354  0.52088  Biso   1.000  H
  H200     1.0000 0.98936  0.72172  0.89967  Biso   1.000  H
  H201     1.0000 0.64418  0.97915  0.29442  Biso   1.000  H
  H202     1.0000 0.74746  0.31498  0.02003  Biso   1.000  H
  H203     1.0000 0.49643  0.73322  0.67314  Biso   1.000  H
  H204     1.0000 0.15566  0.98199  0.25337  Biso   1.000  H
  H205     1.0000 0.74478  0.08398  0.49297  Biso   1.000  H
  H206     1.0000 0.49941  0.69252  0.17734  Biso   1.000  H
  H207     1.0000 0.14576  0.44755  0.76170  Biso   1.000  H
  H208     1.0000 0.24497  0.09345  0.02806  Biso   1.000  H
  H209     1.0000 0.99288  0.70393  0.40243  Biso   1.000  H
  H210     1.0000 0.64975  0.47168  0.79242  Biso   1.000  H
  H211     1.0000 0.78157  0.59176  0.55239  Biso   1.000  H
  H212     1.0000 0.01623  0.19319  0.15498  Biso   1.000  H
  H213     1.0000 0.38063  0.95065  0.76056  Biso   1.000  H
  H214     1.0000 0.28459  0.59499  0.02332  Biso   1.000  H
  H215     1.0000 0.52153  0.19300  0.38636  Biso   1.000  H
  H216     1.0000 0.87325  0.94196  0.79137  Biso   1.000  H
  H217     1.0000 0.24339  0.45748  0.38860  Biso   1.000  H
  H218     1.0000 0.38759  0.20182  0.50313  Biso   1.000  H
  H219     1.0000 0.49101  0.32482  0.25649  Biso   1.000  H
  H220     1.0000 0.74948  0.43824  0.16039  Biso   1.000  H
  H221     1.0000 0.87766  0.18116  0.00829  Biso   1.000  H
  H222     1.0000 0.99657  0.33667  0.27948  Biso   1.000  H
  H223     1.0000 0.27451  0.97715  0.38831  Biso   1.000  H
  H224     1.0000 0.14834  0.69955  0.54951  Biso   1.000  H
  H225     1.0000 0.02035  0.82475  0.26906  Biso   1.000  H
  H226     1.0000 0.78064  0.94554  0.16880  Biso   1.000  H
  H227     1.0000 0.65098  0.68846  0.07430  Biso   1.000  H
  H228     1.0000 0.51591  0.81777  0.29756  Biso   1.000  H
  H229     1.0000 0.77827  0.47062  0.65974  Biso   1.000  H
  H230     1.0000 0.64009  0.71945  0.54734  Biso   1.000  H
  H231     1.0000 0.48508  0.61161  0.80569  Biso   1.000  H
  H232     1.0000 0.27910  0.45008  0.89431  Biso   1.000  H
  H233     1.0000 0.16117  0.72314  0.04544  Biso   1.000  H
  H234     1.0000 0.97963  0.58757  0.76719  Biso   1.000  H
  H235     1.0000 0.74994  0.94766  0.66196  Biso   1.000  H
  H236     1.0000 0.87788  0.22171  0.50875  Biso   1.000  H
  H237     1.0000 0.01886  0.08845  0.78204  Biso   1.000  H
  H238     1.0000 0.24514  0.93980  0.88635  Biso   1.000  H
  H239     1.0000 0.38022  0.22038  0.02254  Biso   1.000  H
  H240     1.0000 0.53401  0.09866  0.75899  Biso   1.000  H
  H241     1.0000 0.73460  0.48729  0.87230  Biso   1.000  H
  H242     1.0000 0.85698  0.68646  0.55631  Biso   1.000  H
  H243     1.0000 0.52682  0.81696  0.75437  Biso   1.000  H
  H244     1.0000 0.23799  0.46620  0.68088  Biso   1.000  H
  H245     1.0000 0.37410  0.68362  0.01078  Biso   1.000  H
  H246     1.0000 0.97522  0.80270  0.81876  Biso   1.000  H
  H247     1.0000 0.78712  0.94145  0.88016  Biso   1.000  H
  H248     1.0000 0.66838  0.18096  0.51928  Biso   1.000  H
  H249     1.0000 0.01349  0.30172  0.74202  Biso   1.000  H
  H250     1.0000 0.29393  0.97656  0.67862  Biso   1.000  H
  H251     1.0000 0.15958  0.18122  0.99532  Biso   1.000  H
  H252     1.0000 0.51862  0.31980  0.80030  Biso   1.000  H
  H253     1.0000 0.28986  0.47299  0.18181  Biso   1.000  H
  H254     1.0000 0.16092  0.23983  0.49014  Biso   1.000  H
  H255     1.0000 0.50268  0.10819  0.29883  Biso   1.000  H
  H256     1.0000 0.78468  0.44150  0.37110  Biso   1.000  H
  H257     1.0000 0.66497  0.23014  0.02693  Biso   1.000  H
  H258     1.0000 0.98100  0.11319  0.24123  Biso   1.000  H
  H259     1.0000 0.23876  0.96124  0.17301  Biso   1.000  H
  H260     1.0000 0.35587  0.74225  0.53199  Biso   1.000  H
  H261     1.0000 0.01896  0.62402  0.31316  Biso   1.000  H
  H262     1.0000 0.73333  0.94964  0.37682  Biso   1.000  H
  H263     1.0000 0.87386  0.72288  0.05358  Biso   1.000  H
  H264     1.0000 0.55659  0.60936  0.24580  Biso   1.000  H
  H265     1.0000 0.03931  0.17643  0.86374  Biso   1.000  H
  H266     1.0000 0.86509  0.96137  0.25487  Biso   1.000  H
  H267     1.0000 0.24649  0.80740  0.03377  Biso   1.000  H
  H268     1.0000 0.54715  0.18614  0.67788  Biso   1.000  H
  H269     1.0000 0.35792  0.97093  0.30348  Biso   1.000  H
  H270     1.0000 0.73302  0.79469  0.53170  Biso   1.000  H
  H271     1.0000 0.52672  0.69159  0.88832  Biso   1.000  H
  H272     1.0000 0.66392  0.44983  0.24924  Biso   1.000  H
  H273     1.0000 0.29022  0.30190  0.03406  Biso   1.000  H
  H274     1.0000 0.98910  0.68695  0.69340  Biso   1.000  H
  H275     1.0000 0.16027  0.49258  0.30627  Biso   1.000  H
  H276     1.0000 0.78564  0.30514  0.49779  Biso   1.000  H
  H277     1.0000 0.99026  0.73716  0.18446  Biso   1.000  H
  H278     1.0000 0.15603  0.93236  0.79523  Biso   1.000  H
  H279     1.0000 0.78897  0.09942  0.00947  Biso   1.000  H
  H280     1.0000 0.50895  0.73403  0.37608  Biso   1.000  H
  H281     1.0000 0.66598  0.96378  0.74996  Biso   1.000  H
  H282     1.0000 0.29254  0.12901  0.52678  Biso   1.000  H
  H283     1.0000 0.49801  0.23067  0.17728  Biso   1.000  H
  H284     1.0000 0.36332  0.45724  0.80274  Biso   1.000  H
  H285     1.0000 0.73855  0.60015  0.05773  Biso   1.000  H
  H286     1.0000 0.00532  0.24118  0.36160  Biso   1.000  H
  H287     1.0000 0.86496  0.45791  0.74761  Biso   1.000  H
  H288     1.0000 0.23724  0.61825  0.52034  Biso   1.000  H
  H289     1.0000 0.10533  0.17812  0.99673  Biso   1.000  H
  H290     1.0000 0.97571  0.05724  0.24220  Biso   1.000  H
  H291     1.0000 0.24139  0.95414  0.11929  Biso   1.000  H
  H292     1.0000 0.61710  0.18453  0.52732  Biso   1.000  H
  H293     1.0000 0.50150  0.05274  0.29836  Biso   1.000  H
  H294     1.0000 0.73287  0.94014  0.42588  Biso   1.000  H
  H295     1.0000 0.42342  0.68372  0.01028  Biso   1.000  H
  H296     1.0000 0.55212  0.55769  0.24623  Biso   1.000  H
  H297     1.0000 0.28817  0.45283  0.12366  Biso   1.000  H
  H298     1.0000 0.91214  0.68700  0.55984  Biso   1.000  H
  H299     1.0000 0.02152  0.57055  0.30919  Biso   1.000  H
  H300     1.0000 0.78738  0.44173  0.42823  Biso   1.000  H
  H301     1.0000 0.93005  0.72772  0.05263  Biso   1.000  H
  H302     1.0000 0.99023  0.85603  0.81059  Biso   1.000  H
  H303     1.0000 0.78726  0.94125  0.93278  Biso   1.000  H
  H304     1.0000 0.40751  0.73919  0.52091  Biso   1.000  H
  H305     1.0000 0.53104  0.87297  0.75196  Biso   1.000  H
  H306     1.0000 0.29149  0.97490  0.62447  Biso   1.000  H
  H307     1.0000 0.61297  0.22627  0.03625  Biso   1.000  H
  H308     1.0000 0.50433  0.37237  0.80125  Biso   1.000  H
  H309     1.0000 0.73826  0.48563  0.92628  Biso   1.000  H
  H310     1.0000 0.10924  0.23999  0.49319  Biso   1.000  H
  H311     1.0000 0.00395  0.35450  0.74349  Biso   1.000  H
  H312     1.0000 0.24111  0.47108  0.63050  Biso   1.000  H
  H313     1.0000 0.24225  0.94428  0.93917  Biso   1.000  H
  H314     1.0000 0.93231  0.17633  0.99909  Biso   1.000  H
  H315     1.0000 0.02674  0.87783  0.26583  Biso   1.000  H
  H316     1.0000 0.74662  0.94570  0.60640  Biso   1.000  H
  H317     1.0000 0.43943  0.19476  0.50760  Biso   1.000  H
  H318     1.0000 0.51059  0.87281  0.29929  Biso   1.000  H
  H319     1.0000 0.28060  0.46122  0.95036  Biso   1.000  H
  H320     1.0000 0.59774  0.68947  0.06916  Biso   1.000  H
  H321     1.0000 0.49754  0.37286  0.25413  Biso   1.000  H
  H322     1.0000 0.78085  0.46719  0.60691  Biso   1.000  H
  H323     1.0000 0.09754  0.69707  0.55284  Biso   1.000  H
  H324     1.0000 0.99969  0.39245  0.28746  Biso   1.000  H
  H325     1.0000 0.78279  0.94441  0.11274  Biso   1.000  H
  H326     1.0000 0.10665  0.72257  0.04188  Biso   1.000  H
  H327     1.0000 0.01186  0.03377  0.78569  Biso   1.000  H
  H328     1.0000 0.27724  0.97736  0.44364  Biso   1.000  H
  H329     1.0000 0.58424  0.72621  0.53998  Biso   1.000  H
  H330     1.0000 0.52012  0.04932  0.75653  Biso   1.000  H
  H331     1.0000 0.75013  0.44279  0.11130  Biso   1.000  H
  H332     1.0000 0.43174  0.22503  0.01860  Biso   1.000  H
  H333     1.0000 0.48721  0.55402  0.80410  Biso   1.000  H
  H334     1.0000 0.24114  0.44767  0.44285  Biso   1.000  H
  H335     1.0000 0.93229  0.22646  0.50400  Biso   1.000  H
  H336     1.0000 0.98841  0.53411  0.76199  Biso   1.000  H
  H337     1.0000 0.03588  0.18218  0.91884  Biso   1.000  H
  H338     1.0000 0.91635  0.96742  0.25611  Biso   1.000  H
  H339     1.0000 0.24756  0.86155  0.03398  Biso   1.000  H
  H340     1.0000 0.54236  0.19254  0.62129  Biso   1.000  H
  H341     1.0000 0.41156  0.97120  0.30191  Biso   1.000  H
  H342     1.0000 0.73783  0.84892  0.52176  Biso   1.000  H
  H343     1.0000 0.53463  0.68645  0.94211  Biso   1.000  H
  H344     1.0000 0.61164  0.44289  0.24966  Biso   1.000  H
  H345     1.0000 0.28501  0.35651  0.03258  Biso   1.000  H
  H346     1.0000 0.99776  0.69064  0.63730  Biso   1.000  H
  H347     1.0000 0.10598  0.49146  0.30498  Biso   1.000  H
  H348     1.0000 0.78055  0.35735  0.50174  Biso   1.000  H
  H349     1.0000 0.99343  0.73583  0.12877  Biso   1.000  H
  H350     1.0000 0.10352  0.93410  0.79908  Biso   1.000  H
  H351     1.0000 0.78494  0.04543  0.01461  Biso   1.000  H
  H352     1.0000 0.50024  0.73052  0.42936  Biso   1.000  H
  H353     1.0000 0.61334  0.97358  0.75285  Biso   1.000  H
  H354     1.0000 0.28680  0.07661  0.53883  Biso   1.000  H
  H355     1.0000 0.50267  0.22737  0.12332  Biso   1.000  H
  H356     1.0000 0.41454  0.45915  0.80289  Biso   1.000  H
  H357     1.0000 0.73756  0.54930  0.04557  Biso   1.000  H
  H358     1.0000 0.01042  0.24144  0.41501  Biso   1.000  H
  H359     1.0000 0.91695  0.44334  0.74678  Biso   1.000  H
  H360     1.0000 0.23807  0.56468  0.51795  Biso   1.000  H
  H361     1.0000 0.98483  0.70085  0.45656  Biso   1.000  H
  H362     1.0000 0.43334  0.94657  0.75507  Biso   1.000  H
  H363     1.0000 0.74467  0.36958  0.01552  Biso   1.000  H
  H364     1.0000 0.48302  0.69080  0.12308  Biso   1.000  H
  H365     1.0000 0.92690  0.93641  0.79090  Biso   1.000  H
  H366     1.0000 0.24349  0.37981  0.52793  Biso   1.000  H
  H367     1.0000 0.52118  0.18957  0.44105  Biso   1.000  H
  H368     1.0000 0.09364  0.44466  0.75753  Biso   1.000  H
  H369     1.0000 0.78712  0.86173  0.03707  Biso   1.000  H
  H370     1.0000 0.02420  0.18675  0.09854  Biso   1.000  H
  H371     1.0000 0.60066  0.46216  0.79656  Biso   1.000  H
  H372     1.0000 0.27905  0.88805  0.53746  Biso   1.000  H
  H373     1.0000 0.04012  0.22685  0.59401  Biso   1.000  H
  H374     1.0000 0.59174  0.97653  0.30016  Biso   1.000  H
  H375     1.0000 0.29015  0.53916  0.03500  Biso   1.000  H
  H376     1.0000 0.54374  0.23493  0.93981  Biso   1.000  H
  H377     1.0000 0.09984  0.98821  0.25308  Biso   1.000  H
  H378     1.0000 0.78608  0.53415  0.54016  Biso   1.000  H
  H379     1.0000 0.49172  0.73079  0.61699  Biso   1.000  H
  H380     1.0000 0.92736  0.47130  0.29315  Biso   1.000  H
  H381     1.0000 0.24011  0.04001  0.04424  Biso   1.000  H
  H382     1.0000 0.00914  0.71966  0.94806  Biso   1.000  H
  H383     1.0000 0.42947  0.48677  0.25633  Biso   1.000  H
  H384     1.0000 0.73801  0.03265  0.49163  Biso   1.000  H
  H385     1.0000 0.23816  0.43902  0.35026  Biso   1.000  H
  H386     1.0000 0.30212  0.14579  0.48385  Biso   1.000  H
  H387     1.0000 0.46324  0.23929  0.20474  Biso   1.000  H
  H388     1.0000 0.69050  0.41582  0.24995  Biso   1.000  H
  H389     1.0000 0.79655  0.12697  0.04226  Biso   1.000  H
  H390     1.0000 0.97147  0.24930  0.33253  Biso   1.000  H
  H391     1.0000 0.27451  0.94167  0.35784  Biso   1.000  H
  H392     1.0000 0.23539  0.64489  0.56244  Biso   1.000  H
  H393     1.0000 0.98376  0.80190  0.26925  Biso   1.000  H
  H394     1.0000 0.83501  0.93153  0.25518  Biso   1.000  H
  H395     1.0000 0.73621  0.62784  0.09210  Biso   1.000  H
  H396     1.0000 0.55103  0.73970  0.35297  Biso   1.000  H
  H397     1.0000 0.78174  0.49367  0.69173  Biso   1.000  H
  H398     1.0000 0.72593  0.77420  0.57032  Biso   1.000  H
  H399     1.0000 0.48987  0.69620  0.86372  Biso   1.000  H
  H400     1.0000 0.28390  0.48382  0.85999  Biso   1.000  H
  H401     1.0000 0.24440  0.77949  0.06028  Biso   1.000  H
  H402     1.0000 0.00252  0.61861  0.77807  Biso   1.000  H
  H403     1.0000 0.73436  0.91562  0.70293  Biso   1.000  H
  H404     1.0000 0.78849  0.27011  0.53360  Biso   1.000  H
  H405     1.0000 0.00347  0.18071  0.84082  Biso   1.000  H
  H406     1.0000 0.23093  0.98315  0.84921  Biso   1.000  H
  H407     1.0000 0.30036  0.26874  0.05807  Biso   1.000  H
  H408     1.0000 0.50853  0.13621  0.75378  Biso   1.000  H
  H409     1.0000 0.34567  0.45709  0.26084  Biso   1.000  H
  H410     1.0000 0.24238  0.30363  0.48185  Biso   1.000  H
  H411     1.0000 0.48270  0.19022  0.36492  Biso   1.000  H
  H412     1.0000 0.78325  0.48271  0.34013  Biso   1.000  H
  H413     1.0000 0.69857  0.23410  0.05368  Biso   1.000  H
  H414     1.0000 0.01524  0.13976  0.24067  Biso   1.000  H
  H415     1.0000 0.17791  0.94481  0.25801  Biso   1.000  H
  H416     1.0000 0.32472  0.75461  0.57807  Biso   1.000  H
  H417     1.0000 0.96764  0.69380  0.36338  Biso   1.000  H
  H418     1.0000 0.67528  0.94548  0.29171  Biso   1.000  H
  H419     1.0000 0.83768  0.72512  0.02472  Biso   1.000  H
  H420     1.0000 0.51902  0.63330  0.25935  Biso   1.000  H
  H421     1.0000 0.68326  0.50584  0.79826  Biso   1.000  H
  H422     1.0000 0.78617  0.62213  0.52011  Biso   1.000  H
  H423     1.0000 0.49105  0.79574  0.75606  Biso   1.000  H
  H424     1.0000 0.17705  0.47640  0.76101  Biso   1.000  H
  H425     1.0000 0.28819  0.62743  0.98884  Biso   1.000  H
  H426     1.0000 0.95438  0.72378  0.87872  Biso   1.000  H
  H427     1.0000 0.84433  0.98591  0.80376  Biso   1.000  H
  H428     1.0000 0.75030  0.11728  0.52341  Biso   1.000  H
  H429     1.0000 0.05064  0.28104  0.73786  Biso   1.000  H
  H430     1.0000 0.34635  0.98240  0.76400  Biso   1.000  H
  H431     1.0000 0.24719  0.11874  0.99218  Biso   1.000  H
  H432     1.0000 0.52253  0.23415  0.86142  Biso   1.000  H
  H433     1.0000 0.29457  0.93403  0.69800  Biso   1.000  H
  H434     1.0000 0.73766  0.27965  0.98199  Biso   1.000  H
  H435     1.0000 0.04952  0.65534  0.32528  Biso   1.000  H
  H436     1.0000 0.79711  0.90778  0.83690  Biso   1.000  H
  H437     1.0000 0.19048  0.23547  0.52359  Biso   1.000  H
  H438     1.0000 0.53329  0.69877  0.19189  Biso   1.000  H
  H439     1.0000 0.23636  0.42620  0.70482  Biso   1.000  H
  H440     1.0000 0.79030  0.78289  0.08735  Biso   1.000  H
  H441     1.0000 0.52770  0.14144  0.29701  Biso   1.000  H
  H442     1.0000 0.73056  0.43873  0.84621  Biso   1.000  H
  H443     1.0000 0.28623  0.79954  0.50392  Biso   1.000  H
  H444     1.0000 0.97298  0.18981  0.17733  Biso   1.000  H
  H445     1.0000 0.73166  0.98663  0.35495  Biso   1.000  H
  H446     1.0000 0.34643  0.67839  0.04518  Biso   1.000  H
  H447     1.0000 0.00841  0.21651  0.67820  Biso   1.000  H
  H448     1.0000 0.24014  0.99055  0.20128  Biso   1.000  H
  H449     1.0000 0.82092  0.67397  0.59561  Biso   1.000  H
  H450     1.0000 0.55669  0.29645  0.79849  Biso   1.000  H
  H451     1.0000 0.84627  0.42123  0.29604  Biso   1.000  H
  H452     1.0000 0.18772  0.18298  0.03036  Biso   1.000  H
  H453     1.0000 0.53030  0.73107  0.69859  Biso   1.000  H
  H454     1.0000 0.28966  0.50982  0.20306  Biso   1.000  H
  H455     1.0000 0.69121  0.18097  0.48240  Biso   1.000  H
  H456     1.0000 0.00106  0.77655  0.81052  Biso   1.000  H
  H457     1.0000 0.67122  0.71473  0.51544  Biso   1.000  H
  H458     1.0000 0.53613  0.63498  0.80587  Biso   1.000  H
  H459     1.0000 0.82992  0.43083  0.74277  Biso   1.000  H
  H460     1.0000 0.18737  0.72613  0.99992  Biso   1.000  H
  H461     1.0000 0.95508  0.67942  0.71754  Biso   1.000  H
  H462     1.0000 0.33515  0.42070  0.81032  Biso   1.000  H
  H463     1.0000 0.84980  0.22529  0.47208  Biso   1.000  H
  H464     1.0000 0.04878  0.12072  0.77944  Biso   1.000  H
  H465     1.0000 0.69927  0.00209  0.73791  Biso   1.000  H
  H466     1.0000 0.34663  0.22788  0.98522  Biso   1.000  H
  H467     1.0000 0.57995  0.18136  0.70684  Biso   1.000  H
  H468     1.0000 0.20005  0.90403  0.80443  Biso   1.000  H
  H469     1.0000 0.35125  0.21178  0.53842  Biso   1.000  H
  H470     1.0000 0.51885  0.29175  0.25936  Biso   1.000  H
  H471     1.0000 0.19471  0.51712  0.31911  Biso   1.000  H
  H472     1.0000 0.84621  0.18387  0.98372  Biso   1.000  H
  H473     1.0000 0.02605  0.30232  0.27479  Biso   1.000  H
  H474     1.0000 0.74982  0.46510  0.19070  Biso   1.000  H
  H475     1.0000 0.17634  0.70321  0.51511  Biso   1.000  H
  H476     1.0000 0.02073  0.73282  0.21035  Biso   1.000  H
  H477     1.0000 0.32664  0.00589  0.31052  Biso   1.000  H
  H478     1.0000 0.68567  0.69444  0.03986  Biso   1.000  H
  H479     1.0000 0.48172  0.78407  0.30257  Biso   1.000  H
  H480     1.0000 0.78451  0.98322  0.19433  Biso   1.000  H
  N1       1.0000 0.69454  0.12438  0.50573  Biso   1.000  N
  N2       1.0000 0.52298  0.64136  0.19997  Biso   1.000  N
  N3       1.0000 0.18339  0.45378  0.70965  Biso   1.000  N
  N4       1.0000 0.19242  0.12709  0.01406  Biso   1.000  N
  N5       1.0000 0.01053  0.65164  0.36923  Biso   1.000  N
  N6       1.0000 0.68315  0.47564  0.84610  Biso   1.000  N
  N7       1.0000 0.83049  0.62778  0.55533  Biso   1.000  N
  N8       1.0000 0.99791  0.14250  0.18701  Biso   1.000  N
  N9       1.0000 0.34534  0.96241  0.70759  Biso   1.000  N
  N10      1.0000 0.33934  0.62870  0.01807  Biso   1.000  N
  N11      1.0000 0.50993  0.13919  0.35272  Biso   1.000  N
  N12      1.0000 0.84126  0.94659  0.84530  Biso   1.000  N
  N13      1.0000 0.32792  0.79883  0.53709  Biso   1.000  N
  N14      1.0000 0.53482  0.28900  0.85407  Biso   1.000  N
  N15      1.0000 0.83766  0.45607  0.34048  Biso   1.000  N
  N16      1.0000 0.83921  0.77686  0.05209  Biso   1.000  N
  N17      1.0000 0.02525  0.27292  0.68521  Biso   1.000  N
  N18      1.0000 0.34099  0.48098  0.20659  Biso   1.000  N
  N19      1.0000 0.19314  0.29286  0.50455  Biso   1.000  N
  N20      1.0000 0.98967  0.77318  0.86691  Biso   1.000  N
  N21      1.0000 0.67986  0.96117  0.34624  Biso   1.000  N
  N22      1.0000 0.69623  0.28267  0.02050  Biso   1.000  N
  N23      1.0000 0.51272  0.78538  0.70285  Biso   1.000  N
  N24      1.0000 0.18643  0.96493  0.20316  Biso   1.000  N
  N25      1.0000 0.83015  0.46064  0.69356  Biso   1.000  N
  N26      1.0000 0.67771  0.76957  0.53960  Biso   1.000  N
  N27      1.0000 0.50971  0.63990  0.85564  Biso   1.000  N
  N28      1.0000 0.33157  0.45346  0.85847  Biso   1.000  N
  N29      1.0000 0.19093  0.77742  0.03598  Biso   1.000  N
  N30      1.0000 0.98631  0.62825  0.72119  Biso   1.000  N
  N31      1.0000 0.69624  0.95959  0.69493  Biso   1.000  N
  N32      1.0000 0.84112  0.27320  0.50145  Biso   1.000  N
  N33      1.0000 0.02908  0.12535  0.83465  Biso   1.000  N
  N34      1.0000 0.19168  0.93896  0.85108  Biso   1.000  N
  N35      1.0000 0.34520  0.27401  0.02010  Biso   1.000  N
  N36      1.0000 0.54006  0.13411  0.70584  Biso   1.000  N
  N37      1.0000 0.19277  0.47538  0.35676  Biso   1.000  N
  N38      1.0000 0.34905  0.15590  0.52016  Biso   1.000  N
  N39      1.0000 0.49773  0.28665  0.20592  Biso   1.000  N
  N40      1.0000 0.69585  0.44505  0.19634  Biso   1.000  N
  N41      1.0000 0.84276  0.12892  0.00970  Biso   1.000  N
  N42      1.0000 0.99990  0.29878  0.32732  Biso   1.000  N
  N43      1.0000 0.32675  0.97247  0.35605  Biso   1.000  N
  N44      1.0000 0.18309  0.64735  0.53821  Biso   1.000  N
  N45      1.0000 0.00781  0.78890  0.21686  Biso   1.000  N
  N46      1.0000 0.83433  0.95525  0.20202  Biso   1.000  N
  N47      1.0000 0.68631  0.63531  0.05980  Biso   1.000  N
  N48      1.0000 0.51460  0.78589  0.35145  Biso   1.000  N
  O1       1.0000 0.36069  0.49189  0.03378  Biso   1.000  O
  O2       1.0000 0.01995  0.30165  0.55029  Biso   1.000  O
  O3       1.0000 0.54602  0.96381  0.37134  Biso   1.000  O
  O4       1.0000 0.85828  0.49385  0.52465  Biso   1.000  O
  O5       1.0000 0.52388  0.30318  0.99031  Biso   1.000  O
  O6       1.0000 0.04998  0.96935  0.18208  Biso   1.000  O
  O7       1.0000 0.17038  0.99297  0.03278  Biso   1.000  O
  O8       1.0000 0.50055  0.80261  0.56822  Biso   1.000  O
  O9       1.0000 0.97099  0.47762  0.36782  Biso   1.000  O
  O10      1.0000 0.66685  0.98695  0.51027  Biso   1.000  O
  O11      1.0000 0.01758  0.79313  0.99310  Biso   1.000  O
  O12      1.0000 0.47785  0.47279  0.18661  Biso   1.000  O
  O13      1.0000 0.67116  0.41643  0.01392  Biso   1.000  O
  O14      1.0000 0.99930  0.62674  0.50245  Biso   1.000  O
  O15      1.0000 0.48078  0.95667  0.68107  Biso   1.000  O
  O16      1.0000 0.17358  0.42510  0.53908  Biso   1.000  O
  O17      1.0000 0.50307  0.61907  0.07205  Biso   1.000  O
  O18      1.0000 0.97583  0.94794  0.86166  Biso   1.000  O
  O19      1.0000 0.85869  0.91218  0.02825  Biso   1.000  O
  O20      1.0000 0.51626  0.11817  0.48794  Biso   1.000  O
  O21      1.0000 0.04788  0.45311  0.68306  Biso   1.000  O
  O22      1.0000 0.35220  0.93382  0.52791  Biso   1.000  O
  O23      1.0000 0.01788  0.11240  0.05396  Biso   1.000  O
  O24      1.0000 0.54976  0.46625  0.86855  Biso   1.000  O
  O25      1.0000 0.96792  0.95383  0.18178  Biso   1.000  O
  O26      1.0000 0.17403  0.91078  0.02680  Biso   1.000  O
  O27      1.0000 0.02193  0.10730  0.96791  Biso   1.000  O
  O28      1.0000 0.45883  0.96470  0.37350  Biso   1.000  O
  O29      1.0000 0.66992  0.90369  0.53202  Biso   1.000  O
  O30      1.0000 0.52028  0.12191  0.57375  Biso   1.000  O
  O31      1.0000 0.56070  0.45282  0.17585  Biso   1.000  O
  O32      1.0000 0.35744  0.40816  0.03135  Biso   1.000  O
  O33      1.0000 0.52730  0.61695  0.99001  Biso   1.000  O
  O34      1.0000 0.05637  0.47219  0.37555  Biso   1.000  O
  O35      1.0000 0.85240  0.40946  0.51226  Biso   1.000  O
  O36      1.0000 0.01332  0.61970  0.58845  Biso   1.000  O
  O37      1.0000 0.05875  0.94977  0.86820  Biso   1.000  O
  O38      1.0000 0.85595  0.99501  0.01603  Biso   1.000  O
  O39      1.0000 0.01296  0.80073  0.08055  Biso   1.000  O
  O40      1.0000 0.56385  0.96544  0.68106  Biso   1.000  O
  O41      1.0000 0.35488  0.01937  0.53326  Biso   1.000  O
  O42      1.0000 0.50658  0.80190  0.48479  Biso   1.000  O
  O43      1.0000 0.46674  0.46556  0.87388  Biso   1.000  O
  O44      1.0000 0.66971  0.50104  0.02773  Biso   1.000  O
  O45      1.0000 0.51074  0.29899  0.07115  Biso   1.000  O
  O46      1.0000 0.96601  0.45161  0.67652  Biso   1.000  O
  O47      1.0000 0.16889  0.50908  0.52948  Biso   1.000  O
  O48      1.0000 0.01213  0.30802  0.46610  Biso   1.000  O
  O49      1.0000 0.01672  0.92027  0.18985  Biso   1.000  O
  O50      1.0000 0.17083  0.95689  0.98819  Biso   1.000  O
  O51      1.0000 0.97734  0.10347  0.00875  Biso   1.000  O
  O52      1.0000 0.50556  0.92150  0.37046  Biso   1.000  O
  O53      1.0000 0.67317  0.95435  0.56125  Biso   1.000  O
  O54      1.0000 0.47794  0.12412  0.53298  Biso   1.000  O
  O55      1.0000 0.51028  0.42174  0.18229  Biso   1.000  O
  O56      1.0000 0.35724  0.44891  0.99143  Biso   1.000  O
  O57      1.0000 0.55518  0.61903  0.04194  Biso   1.000  O
  O58      1.0000 0.01370  0.42952  0.36562  Biso   1.000  O
  O59      1.0000 0.85286  0.44542  0.56114  Biso   1.000  O
  O60      1.0000 0.04941  0.62453  0.53905  Biso   1.000  O
  O61      1.0000 0.01715  0.99318  0.86184  Biso   1.000  O
  O62      1.0000 0.85658  0.95419  0.06465  Biso   1.000  O
  O63      1.0000 0.05728  0.80092  0.04515  Biso   1.000  O
  O64      1.0000 0.51772  0.00159  0.68265  Biso   1.000  O
  O65      1.0000 0.35105  0.97658  0.48892  Biso   1.000  O
  O66      1.0000 0.54584  0.80368  0.53070  Biso   1.000  O
  O67      1.0000 0.50775  0.50545  0.87281  Biso   1.000  O
  O68      1.0000 0.67495  0.45038  0.06215  Biso   1.000  O
  O69      1.0000 0.47779  0.30013  0.02628  Biso   1.000  O
  O70      1.0000 0.00245  0.49736  0.68289  Biso   1.000  O
  O71      1.0000 0.17084  0.46185  0.49157  Biso   1.000  O
  O72      1.0000 0.97592  0.30469  0.51253  Biso   1.000  O
  O73      1.0000 0.01162  0.41050  0.67543  Biso   1.000  O
  O74      1.0000 0.66512  0.93274  0.48036  Biso   1.000  O
  O75      1.0000 0.47487  0.61446  0.02040  Biso   1.000  O
  O76      1.0000 0.51232  0.42446  0.86984  Biso   1.000  O
  O77      1.0000 0.17025  0.94417  0.07022  Biso   1.000  O
  O78      1.0000 0.96515  0.62235  0.54999  Biso   1.000  O
  O79      1.0000 0.52982  0.91890  0.68002  Biso   1.000  O
  O80      1.0000 0.85725  0.45740  0.47730  Biso   1.000  O
  O81      1.0000 0.05873  0.10905  0.01282  Biso   1.000  O
  O82      1.0000 0.01989  0.90964  0.87269  Biso   1.000  O
  O83      1.0000 0.35715  0.44531  0.07503  Biso   1.000  O
  O84      1.0000 0.56087  0.11414  0.53278  Biso   1.000  O
  O85      1.0000 0.01458  0.51487  0.37685  Biso   1.000  O
  O86      1.0000 0.35916  0.97682  0.57177  Biso   1.000  O
  O87      1.0000 0.55913  0.29851  0.03393  Biso   1.000  O
  O88      1.0000 0.53033  0.50435  0.18138  Biso   1.000  O
  O89      1.0000 0.86018  0.94910  0.97973  Biso   1.000  O
  O90      1.0000 0.05981  0.30826  0.50654  Biso   1.000  O
  O91      1.0000 0.50155  0.00495  0.37337  Biso   1.000  O
  O92      1.0000 0.17194  0.47127  0.57556  Biso   1.000  O
  O93      1.0000 0.97352  0.79859  0.03832  Biso   1.000  O
  O94      1.0000 0.00332  0.00428  0.17673  Biso   1.000  O
  O95      1.0000 0.66684  0.46612  0.98185  Biso   1.000  O
  O96      1.0000 0.46205  0.80594  0.52410  Biso   1.000  O
  O97      1.0000 0.48341  0.17300  0.52936  Biso   1.000  O
  O98      1.0000 0.51274  0.42375  0.23166  Biso   1.000  O
  O99      1.0000 0.21873  0.46357  0.49069  Biso   1.000  O
  O100     1.0000 0.97699  0.15242  0.00930  Biso   1.000  O
  O101     1.0000 0.01425  0.43632  0.31728  Biso   1.000  O
  O102     1.0000 0.72325  0.45424  0.06015  Biso   1.000  O
  O103     1.0000 0.04640  0.67259  0.53910  Biso   1.000  O
  O104     1.0000 0.01579  0.92592  0.23847  Biso   1.000  O
  O105     1.0000 0.30426  0.98228  0.49422  Biso   1.000  O
  O106     1.0000 0.55250  0.66838  0.04758  Biso   1.000  O
  O107     1.0000 0.50280  0.92098  0.32110  Biso   1.000  O
  O108     1.0000 0.80786  0.95426  0.06401  Biso   1.000  O
  O109     1.0000 0.54026  0.75374  0.52964  Biso   1.000  O
  O110     1.0000 0.50143  0.50641  0.82466  Biso   1.000  O
  O111     1.0000 0.80474  0.45184  0.55785  Biso   1.000  O
  O112     1.0000 0.05565  0.75156  0.04141  Biso   1.000  O
  O113     1.0000 0.99820  0.49074  0.73160  Biso   1.000  O
  O114     1.0000 0.30837  0.44875  0.99480  Biso   1.000  O
  O115     1.0000 0.97882  0.25485  0.50520  Biso   1.000  O
  O116     1.0000 0.02154  0.98876  0.81271  Biso   1.000  O
  O117     1.0000 0.72079  0.95072  0.55922  Biso   1.000  O
  O118     1.0000 0.47897  0.25040  0.02244  Biso   1.000  O
  O119     1.0000 0.51340  0.00130  0.73170  Biso   1.000  O
  O120     1.0000 0.21963  0.95104  0.98666  Biso   1.000  O
  O121     1.0000 0.04579  0.44695  0.73161  Biso   1.000  O
  O122     1.0000 0.71547  0.98567  0.51039  Biso   1.000  O
  O123     1.0000 0.50135  0.66878  0.07146  Biso   1.000  O
  O124     1.0000 0.54918  0.46854  0.82038  Biso   1.000  O
  O125     1.0000 0.21889  0.99281  0.02927  Biso   1.000  O
  O126     1.0000 0.99517  0.67606  0.50836  Biso   1.000  O
  O127     1.0000 0.48045  0.95144  0.73031  Biso   1.000  O
  O128     1.0000 0.80888  0.49499  0.51714  Biso   1.000  O
  O129     1.0000 0.01319  0.16196  0.05176  Biso   1.000  O
  O130     1.0000 0.97447  0.94869  0.81352  Biso   1.000  O
  O131     1.0000 0.31224  0.49269  0.03351  Biso   1.000  O
  O132     1.0000 0.51618  0.16755  0.48892  Biso   1.000  O
  O133     1.0000 0.97447  0.48059  0.32012  Biso   1.000  O
  O134     1.0000 0.30482  0.93488  0.53306  Biso   1.000  O
  O135     1.0000 0.52782  0.25399  0.98609  Biso   1.000  O
  O136     1.0000 0.47875  0.47690  0.23424  Biso   1.000  O
  O137     1.0000 0.81073  0.90711  0.02389  Biso   1.000  O
  O138     1.0000 0.02568  0.25254  0.54651  Biso   1.000  O
  O139     1.0000 0.54340  0.96468  0.32271  Biso   1.000  O
  O140     1.0000 0.22162  0.42669  0.53031  Biso   1.000  O
  O141     1.0000 0.01682  0.74393  0.99699  Biso   1.000  O
  O142     1.0000 0.05044  0.97449  0.23150  Biso   1.000  O
  O143     1.0000 0.71916  0.41887  0.01067  Biso   1.000  O
  O144     1.0000 0.49657  0.75321  0.56636  Biso   1.000  O
  O145     1.0000 0.56159  0.45535  0.22369  Biso   1.000  O
  O146     1.0000 0.21700  0.51113  0.52807  Biso   1.000  O
  O147     1.0000 0.52669  0.17123  0.57168  Biso   1.000  O
  O148     1.0000 0.05931  0.47690  0.32777  Biso   1.000  O
  O149     1.0000 0.71746  0.50215  0.02447  Biso   1.000  O
  O150     1.0000 0.01828  0.15631  0.96688  Biso   1.000  O
  O151     1.0000 0.96874  0.96371  0.22948  Biso   1.000  O
  O152     1.0000 0.30749  0.02237  0.54175  Biso   1.000  O
  O153     1.0000 0.00778  0.66901  0.58916  Biso   1.000  O
  O154     1.0000 0.45831  0.96824  0.32574  Biso   1.000  O
  O155     1.0000 0.80649  0.99402  0.01975  Biso   1.000  O
  O156     1.0000 0.52480  0.66468  0.99055  Biso   1.000  O
  O157     1.0000 0.46575  0.46413  0.82474  Biso   1.000  O
  O158     1.0000 0.80444  0.40997  0.51539  Biso   1.000  O
  O159     1.0000 0.50349  0.75292  0.48376  Biso   1.000  O
  O160     1.0000 0.96247  0.44884  0.72443  Biso   1.000  O
  O161     1.0000 0.30982  0.40733  0.03615  Biso   1.000  O
  O162     1.0000 0.01453  0.75234  0.08146  Biso   1.000  O
  O163     1.0000 0.05855  0.94375  0.82039  Biso   1.000  O
  O164     1.0000 0.71827  0.90194  0.52427  Biso   1.000  O
  O165     1.0000 0.01794  0.26005  0.46100  Biso   1.000  O
  O166     1.0000 0.56317  0.96635  0.73094  Biso   1.000  O
  O167     1.0000 0.22359  0.91030  0.02877  Biso   1.000  O
  O168     1.0000 0.51473  0.25033  0.06891  Biso   1.000  O
  O169     1.0000 0.00139  0.00974  0.22624  Biso   1.000  O
  O170     1.0000 0.21807  0.95035  0.07010  Biso   1.000  O
  O171     1.0000 0.05799  0.15808  0.01079  Biso   1.000  O
  O172     1.0000 0.50210  0.00536  0.32378  Biso   1.000  O
  O173     1.0000 0.71438  0.93565  0.47545  Biso   1.000  O
  O174     1.0000 0.56734  0.16357  0.52818  Biso   1.000  O
  O175     1.0000 0.53194  0.50793  0.22943  Biso   1.000  O
  O176     1.0000 0.30976  0.45430  0.07736  Biso   1.000  O
  O177     1.0000 0.47228  0.66364  0.01891  Biso   1.000  O
  O178     1.0000 0.02086  0.51955  0.32880  Biso   1.000  O
  O179     1.0000 0.80805  0.45522  0.47307  Biso   1.000  O
  O180     1.0000 0.96207  0.67039  0.55673  Biso   1.000  O
  O181     1.0000 0.01025  0.90441  0.82499  Biso   1.000  O
  O182     1.0000 0.81196  0.94255  0.98058  Biso   1.000  O
  O183     1.0000 0.97235  0.74930  0.03676  Biso   1.000  O
  O184     1.0000 0.53035  0.91983  0.72727  Biso   1.000  O
  O185     1.0000 0.31021  0.97508  0.57625  Biso   1.000  O
  O186     1.0000 0.45927  0.75805  0.52094  Biso   1.000  O
  O187     1.0000 0.50972  0.42202  0.82070  Biso   1.000  O
  O188     1.0000 0.71472  0.46818  0.97625  Biso   1.000  O
  O189     1.0000 0.56220  0.24993  0.03188  Biso   1.000  O
  O190     1.0000 0.00182  0.40522  0.72333  Biso   1.000  O
  O191     1.0000 0.22116  0.46797  0.57586  Biso   1.000  O
  O192     1.0000 0.06238  0.25928  0.50154  Biso   1.000  O
