data_image0
_cell_length_a       46.7069
_cell_length_b       46.5755
_cell_length_c       46.4781
_cell_angle_alpha    90
_cell_angle_beta     90
_cell_angle_gamma    90

_symmetry_space_group_name_H-M    "P 1"
_symmetry_int_tables_number       1

loop_
  _symmetry_equiv_pos_as_xyz
  'x, y, z'

loop_
  _atom_site_label
  _atom_site_occupancy
  _atom_site_fract_x
  _atom_site_fract_y
  _atom_site_fract_z
  _atom_site_thermal_displace_type
  _atom_site_B_iso_or_equiv
  _atom_site_type_symbol
  C1       1.0000 0.54752  0.98232  0.34162  Biso   1.000  C
  C2       1.0000 0.30099  0.53726  0.01235  Biso   1.000  C
  C3       1.0000 0.98921  0.30966  0.58011  Biso   1.000  C
  C4       1.0000 0.04657  0.98756  0.20438  Biso   1.000  C
  C5       1.0000 0.80181  0.54358  0.53692  Biso   1.000  C
  C6       1.0000 0.48439  0.30693  0.97105  Biso   1.000  C
  C7       1.0000 0.91175  0.47756  0.34486  Biso   1.000  C
  C8       1.0000 0.16598  0.03817  0.01428  Biso   1.000  C
  C9       1.0000 0.48499  0.80451  0.58620  Biso   1.000  C
  C10      1.0000 0.40994  0.49092  0.20284  Biso   1.000  C
  C11      1.0000 0.66248  0.04089  0.52482  Biso   1.000  C
  C12      1.0000 0.97022  0.81681  0.96896  Biso   1.000  C
  C13      1.0000 0.42444  0.98094  0.70745  Biso   1.000  C
  C14      1.0000 0.66216  0.42817  0.04224  Biso   1.000  C
  C15      1.0000 0.98294  0.66504  0.46990  Biso   1.000  C
  C16      1.0000 0.92956  0.99338  0.84294  Biso   1.000  C
  C17      1.0000 0.15898  0.43120  0.50627  Biso   1.000  C
  C18      1.0000 0.47025  0.66317  0.08067  Biso   1.000  C
  C19      1.0000 0.04952  0.49220  0.70259  Biso   1.000  C
  C20      1.0000 0.79512  0.93229  0.02621  Biso   1.000  C
  C21      1.0000 0.49483  0.16931  0.46757  Biso   1.000  C
  C22      1.0000 0.54793  0.48689  0.84595  Biso   1.000  C
  C23      1.0000 0.30710  0.93121  0.51204  Biso   1.000  C
  C24      1.0000 0.99149  0.16458  0.08174  Biso   1.000  C
  C25      1.0000 0.30653  0.04120  0.52038  Biso   1.000  C
  C26      1.0000 0.50288  0.30262  0.07883  Biso   1.000  C
  C27      1.0000 0.01789  0.48267  0.33758  Biso   1.000  C
  C28      1.0000 0.80882  0.04064  0.03436  Biso   1.000  C
  C29      1.0000 0.97521  0.30709  0.47332  Biso   1.000  C
  C30      1.0000 0.51894  0.48366  0.20994  Biso   1.000  C
  C31      1.0000 0.15926  0.53885  0.52366  Biso   1.000  C
  C32      1.0000 0.97659  0.80326  0.07526  Biso   1.000  C
  C33      1.0000 0.44120  0.98693  0.33879  Biso   1.000  C
  C34      1.0000 0.65808  0.53616  0.03162  Biso   1.000  C
  C35      1.0000 0.48312  0.80586  0.47648  Biso   1.000  C
  C36      1.0000 0.94010  0.98180  0.21030  Biso   1.000  C
  C37      1.0000 0.66327  0.93222  0.53532  Biso   1.000  C
  C38      1.0000 0.47401  0.66282  0.97015  Biso   1.000  C
  C39      1.0000 0.94027  0.48950  0.70763  Biso   1.000  C
  C40      1.0000 0.16313  0.92941  0.01568  Biso   1.000  C
  C41      1.0000 0.97583  0.66945  0.57937  Biso   1.000  C
  C42      1.0000 0.43920  0.48739  0.83868  Biso   1.000  C
  C43      1.0000 0.80155  0.43402  0.52558  Biso   1.000  C
  C44      1.0000 0.99688  0.17081  0.97538  Biso   1.000  C
  C45      1.0000 0.53363  0.99221  0.70896  Biso   1.000  C
  C46      1.0000 0.30603  0.42922  0.01627  Biso   1.000  C
  C47      1.0000 0.47315  0.17234  0.57521  Biso   1.000  C
  C48      1.0000 0.03649  0.00442  0.83771  Biso   1.000  C
  C49      1.0000 0.97606  0.05235  0.84200  Biso   1.000  C
  C50      1.0000 0.80743  0.98357  0.08381  Biso   1.000  C
  C51      1.0000 0.02816  0.81111  0.01738  Biso   1.000  C
  C52      1.0000 0.47438  0.03990  0.70306  Biso   1.000  C
  C53      1.0000 0.31003  0.99061  0.46215  Biso   1.000  C
  C54      1.0000 0.53637  0.80443  0.52773  Biso   1.000  C
  C55      1.0000 0.49431  0.54158  0.84103  Biso   1.000  C
  C56      1.0000 0.65687  0.48396  0.09311  Biso   1.000  C
  C57      1.0000 0.43865  0.30746  0.03586  Biso   1.000  C
  C58      1.0000 0.98923  0.54557  0.71109  Biso   1.000  C
  C59      1.0000 0.15011  0.49016  0.45736  Biso   1.000  C
  C60      1.0000 0.92776  0.30775  0.53648  Biso   1.000  C
  C61      1.0000 0.99610  0.92598  0.20782  Biso   1.000  C
  C62      1.0000 0.16478  0.98369  0.96005  Biso   1.000  C
  C63      1.0000 0.94026  0.16600  0.02504  Biso   1.000  C
  C64      1.0000 0.48810  0.93278  0.34341  Biso   1.000  C
  C65      1.0000 0.66194  0.99360  0.58584  Biso   1.000  C
  C66      1.0000 0.43057  0.17002  0.51415  Biso   1.000  C
  C67      1.0000 0.46154  0.43481  0.19983  Biso   1.000  C
  C68      1.0000 0.30801  0.48534  0.95814  Biso   1.000  C
  C69      1.0000 0.52664  0.66219  0.03218  Biso   1.000  C
  C70      1.0000 0.96825  0.42599  0.34280  Biso   1.000  C
  C71      1.0000 0.81071  0.48478  0.58490  Biso   1.000  C
  C72      1.0000 0.03495  0.66589  0.52912  Biso   1.000  C
  C73      1.0000 0.96234  0.53583  0.33829  Biso   1.000  C
  C74      1.0000 0.30440  0.97740  0.56934  Biso   1.000  C
  C75      1.0000 0.54619  0.30339  0.01959  Biso   1.000  C
  C76      1.0000 0.47097  0.54262  0.21163  Biso   1.000  C
  C77      1.0000 0.80190  0.99454  0.97218  Biso   1.000  C
  C78      1.0000 0.03273  0.30391  0.52369  Biso   1.000  C
  C79      1.0000 0.49642  0.04219  0.34337  Biso   1.000  C
  C80      1.0000 0.16774  0.48232  0.56616  Biso   1.000  C
  C81      1.0000 0.91968  0.80990  0.02668  Biso   1.000  C
  C82      1.0000 0.99117  0.03740  0.20741  Biso   1.000  C
  C83      1.0000 0.66462  0.47988  0.98154  Biso   1.000  C
  C84      1.0000 0.42823  0.80800  0.53424  Biso   1.000  C
  C85      1.0000 0.99695  0.43637  0.70323  Biso   1.000  C
  C86      1.0000 0.66384  0.97676  0.47655  Biso   1.000  C
  C87      1.0000 0.41832  0.66617  0.02108  Biso   1.000  C
  C88      1.0000 0.48987  0.43268  0.84792  Biso   1.000  C
  C89      1.0000 0.16546  0.98141  0.06902  Biso   1.000  C
  C90      1.0000 0.92566  0.66949  0.52375  Biso   1.000  C
  C91      1.0000 0.48083  0.93409  0.71379  Biso   1.000  C
  C92      1.0000 0.79506  0.49477  0.47800  Biso   1.000  C
  C93      1.0000 0.04805  0.16518  0.03107  Biso   1.000  C
  C94      1.0000 0.98669  0.94466  0.84029  Biso   1.000  C
  C95      1.0000 0.29843  0.48222  0.06842  Biso   1.000  C
  C96      1.0000 0.53577  0.16991  0.53493  Biso   1.000  C
  C97      1.0000 0.66258  0.07280  0.52541  Biso   1.000  C
  C98      1.0000 0.46799  0.66585  0.11269  Biso   1.000  C
  C99      1.0000 0.08135  0.48775  0.69947  Biso   1.000  C
  C100     1.0000 0.16927  0.07005  0.01654  Biso   1.000  C
  C101     1.0000 0.97804  0.66485  0.43855  Biso   1.000  C
  C102     1.0000 0.58055  0.48206  0.84707  Biso   1.000  C
  C103     1.0000 0.80105  0.57491  0.53642  Biso   1.000  C
  C104     1.0000 0.99215  0.16278  0.11261  Biso   1.000  C
  C105     1.0000 0.39213  0.98074  0.70512  Biso   1.000  C
  C106     1.0000 0.29937  0.56725  0.00351  Biso   1.000  C
  C107     1.0000 0.49382  0.16977  0.43443  Biso   1.000  C
  C108     1.0000 0.89853  0.99638  0.84339  Biso   1.000  C
  C109     1.0000 0.30474  0.89899  0.51362  Biso   1.000  C
  C110     1.0000 0.48116  0.30641  0.93805  Biso   1.000  C
  C111     1.0000 0.87923  0.47139  0.34743  Biso   1.000  C
  C112     1.0000 0.79387  0.90035  0.02388  Biso   1.000  C
  C113     1.0000 0.99818  0.30958  0.61116  Biso   1.000  C
  C114     1.0000 0.37835  0.49115  0.20081  Biso   1.000  C
  C115     1.0000 0.15961  0.39971  0.51004  Biso   1.000  C
  C116     1.0000 0.97036  0.81786  0.93502  Biso   1.000  C
  C117     1.0000 0.57874  0.97522  0.34277  Biso   1.000  C
  C118     1.0000 0.66337  0.39732  0.04949  Biso   1.000  C
  C119     1.0000 0.48694  0.80496  0.61845  Biso   1.000  C
  C120     1.0000 0.07848  0.99085  0.20383  Biso   1.000  C
  C121     1.0000 0.81131  0.98011  0.11662  Biso   1.000  C
  C122     1.0000 0.06008  0.80789  0.01781  Biso   1.000  C
  C123     1.0000 0.97489  0.08559  0.84599  Biso   1.000  C
  C124     1.0000 0.31103  0.98724  0.42912  Biso   1.000  C
  C125     1.0000 0.56786  0.80359  0.52768  Biso   1.000  C
  C126     1.0000 0.47306  0.07298  0.70032  Biso   1.000  C
  C127     1.0000 0.65443  0.48215  0.12593  Biso   1.000  C
  C128     1.0000 0.40553  0.30842  0.03681  Biso   1.000  C
  C129     1.0000 0.49649  0.57319  0.84133  Biso   1.000  C
  C130     1.0000 0.14857  0.48963  0.42540  Biso   1.000  C
  C131     1.0000 0.89676  0.30808  0.54152  Biso   1.000  C
  C132     1.0000 0.97818  0.57556  0.71137  Biso   1.000  C
  C133     1.0000 0.16476  0.98803  0.92764  Biso   1.000  C
  C134     1.0000 0.90734  0.16715  0.02731  Biso   1.000  C
  C135     1.0000 0.99759  0.89433  0.20734  Biso   1.000  C
  C136     1.0000 0.65944  0.99572  0.61887  Biso   1.000  C
  C137     1.0000 0.39854  0.17038  0.51521  Biso   1.000  C
  C138     1.0000 0.48397  0.90203  0.34616  Biso   1.000  C
  C139     1.0000 0.30824  0.48366  0.92600  Biso   1.000  C
  C140     1.0000 0.55881  0.66187  0.03773  Biso   1.000  C
  C141     1.0000 0.46447  0.40358  0.19736  Biso   1.000  C
  C142     1.0000 0.81139  0.48652  0.61755  Biso   1.000  C
  C143     1.0000 0.06734  0.66658  0.53480  Biso   1.000  C
  C144     1.0000 0.96855  0.39345  0.34356  Biso   1.000  C
  C145     1.0000 0.29446  0.47767  0.09938  Biso   1.000  C
  C146     1.0000 0.06459  0.30442  0.52215  Biso   1.000  C
  C147     1.0000 0.49599  0.07320  0.33883  Biso   1.000  C
  C148     1.0000 0.79299  0.49653  0.44615  Biso   1.000  C
  C149     1.0000 0.57813  0.30131  0.02051  Biso   1.000  C
  C150     1.0000 0.98674  0.06906  0.20583  Biso   1.000  C
  C151     1.0000 0.16592  0.98417  0.10095  Biso   1.000  C
  C152     1.0000 0.39529  0.80624  0.52806  Biso   1.000  C
  C153     1.0000 0.96500  0.56799  0.33898  Biso   1.000  C
  C154     1.0000 0.66685  0.97152  0.44477  Biso   1.000  C
  C155     1.0000 0.88750  0.80818  0.02755  Biso   1.000  C
  C156     1.0000 0.48182  0.57425  0.21122  Biso   1.000  C
  C157     1.0000 0.66814  0.47640  0.94771  Biso   1.000  C
  C158     1.0000 0.89302  0.66908  0.53193  Biso   1.000  C
  C159     1.0000 0.48059  0.90110  0.71210  Biso   1.000  C
  C160     1.0000 0.17029  0.48656  0.59725  Biso   1.000  C
  C161     1.0000 0.38644  0.66832  0.02012  Biso   1.000  C
  C162     1.0000 0.98936  0.91243  0.83985  Biso   1.000  C
  C163     1.0000 0.80194  0.99412  0.93974  Biso   1.000  C
  C164     1.0000 0.56752  0.16865  0.53689  Biso   1.000  C
  C165     1.0000 0.99874  0.40490  0.70566  Biso   1.000  C
  C166     1.0000 0.30265  0.97399  0.60214  Biso   1.000  C
  C167     1.0000 0.07911  0.16421  0.03217  Biso   1.000  C
  C168     1.0000 0.48517  0.40160  0.84620  Biso   1.000  C
  C169     1.0000 0.97734  0.80137  0.10787  Biso   1.000  C
  C170     1.0000 0.06828  0.00382  0.83658  Biso   1.000  C
  C171     1.0000 0.80958  0.07227  0.03652  Biso   1.000  C
  C172     1.0000 0.48731  0.80622  0.44388  Biso   1.000  C
  C173     1.0000 0.56618  0.98976  0.71167  Biso   1.000  C
  C174     1.0000 0.30549  0.07336  0.51998  Biso   1.000  C
  C175     1.0000 0.50278  0.30513  0.10956  Biso   1.000  C
  C176     1.0000 0.40574  0.48388  0.83749  Biso   1.000  C
  C177     1.0000 0.65670  0.56755  0.03204  Biso   1.000  C
  C178     1.0000 0.97213  0.30410  0.44059  Biso   1.000  C
  C179     1.0000 0.90814  0.48981  0.70810  Biso   1.000  C
  C180     1.0000 0.16108  0.56993  0.52974  Biso   1.000  C
  C181     1.0000 0.99706  0.17554  0.94371  Biso   1.000  C
  C182     1.0000 0.90784  0.98542  0.21175  Biso   1.000  C
  C183     1.0000 0.16162  0.89689  0.01672  Biso   1.000  C
  C184     1.0000 0.47072  0.17396  0.60767  Biso   1.000  C
  C185     1.0000 0.40997  0.99076  0.33957  Biso   1.000  C
  C186     1.0000 0.66490  0.90040  0.53512  Biso   1.000  C
  C187     1.0000 0.47766  0.66235  0.93784  Biso   1.000  C
  C188     1.0000 0.55017  0.48343  0.21227  Biso   1.000  C
  C189     1.0000 0.30826  0.39700  0.01900  Biso   1.000  C
  C190     1.0000 0.97463  0.66972  0.61221  Biso   1.000  C
  C191     1.0000 0.04890  0.48209  0.33570  Biso   1.000  C
  C192     1.0000 0.80215  0.40162  0.52698  Biso   1.000  C
  C193     1.0000 0.82946  0.99606  0.92425  Biso   1.000  C
  C194     1.0000 0.87067  0.83434  0.02920  Biso   1.000  C
  C195     1.0000 0.98379  0.89680  0.86575  Biso   1.000  C
  C196     1.0000 0.32898  0.97536  0.61922  Biso   1.000  C
  C197     1.0000 0.37774  0.83245  0.52468  Biso   1.000  C
  C198     1.0000 0.48307  0.88605  0.68527  Biso   1.000  C
  C199     1.0000 0.64322  0.47675  0.92940  Biso   1.000  C
  C200     1.0000 0.59340  0.32836  0.02215  Biso   1.000  C
  C201     1.0000 0.48260  0.38450  0.87275  Biso   1.000  C
  C202     1.0000 0.14394  0.48672  0.61525  Biso   1.000  C
  C203     1.0000 0.08208  0.32998  0.51777  Biso   1.000  C
  C204     1.0000 0.00073  0.38799  0.67940  Biso   1.000  C
  C205     1.0000 0.13957  0.98431  0.11906  Biso   1.000  C
  C206     1.0000 0.09455  0.13759  0.02923  Biso   1.000  C
  C207     1.0000 0.98566  0.08385  0.17776  Biso   1.000  C
  C208     1.0000 0.64095  0.97210  0.42688  Biso   1.000  C
  C209     1.0000 0.58245  0.14130  0.53072  Biso   1.000  C
  C210     1.0000 0.49724  0.09068  0.36583  Biso   1.000  C
  C211     1.0000 0.31973  0.47901  0.11784  Biso   1.000  C
  C212     1.0000 0.37138  0.63969  0.01815  Biso   1.000  C
  C213     1.0000 0.48221  0.58883  0.18333  Biso   1.000  C
  C214     1.0000 0.81829  0.49064  0.42929  Biso   1.000  C
  C215     1.0000 0.87862  0.64158  0.53508  Biso   1.000  C
  C216     1.0000 0.96656  0.58361  0.36668  Biso   1.000  C
  C217     1.0000 0.08520  0.99937  0.86369  Biso   1.000  C
  C218     1.0000 0.83615  0.08781  0.03130  Biso   1.000  C
  C219     1.0000 0.98217  0.82861  0.12438  Biso   1.000  C
  C220     1.0000 0.58088  0.99086  0.68439  Biso   1.000  C
  C221     1.0000 0.33205  0.09057  0.51672  Biso   1.000  C
  C222     1.0000 0.48589  0.83352  0.42769  Biso   1.000  C
  C223     1.0000 0.38948  0.48446  0.86414  Biso   1.000  C
  C224     1.0000 0.63019  0.58444  0.03596  Biso   1.000  C
  C225     1.0000 0.49609  0.33302  0.12370  Biso   1.000  C
  C226     1.0000 0.88945  0.48831  0.68280  Biso   1.000  C
  C227     1.0000 0.13422  0.58620  0.53209  Biso   1.000  C
  C228     1.0000 0.97295  0.33007  0.42459  Biso   1.000  C
  C229     1.0000 0.89127  0.98568  0.18393  Biso   1.000  C
  C230     1.0000 0.13285  0.88311  0.01652  Biso   1.000  C
  C231     1.0000 0.99129  0.15053  0.92521  Biso   1.000  C
  C232     1.0000 0.39286  0.99206  0.36654  Biso   1.000  C
  C233     1.0000 0.63811  0.88305  0.53285  Biso   1.000  C
  C234     1.0000 0.47015  0.14552  0.62212  Biso   1.000  C
  C235     1.0000 0.56756  0.48302  0.18606  Biso   1.000  C
  C236     1.0000 0.33687  0.38321  0.02035  Biso   1.000  C
  C237     1.0000 0.48553  0.63729  0.92107  Biso   1.000  C
  C238     1.0000 0.06673  0.48004  0.36182  Biso   1.000  C
  C239     1.0000 0.82891  0.38564  0.52745  Biso   1.000  C
  C240     1.0000 0.97450  0.64141  0.62774  Biso   1.000  C
  C241     1.0000 0.59526  0.48089  0.87455  Biso   1.000  C
  C242     1.0000 0.82765  0.59139  0.53885  Biso   1.000  C
  C243     1.0000 0.48606  0.83321  0.63391  Biso   1.000  C
  C244     1.0000 0.09492  0.48758  0.67009  Biso   1.000  C
  C245     1.0000 0.32506  0.58602  0.00794  Biso   1.000  C
  C246     1.0000 0.97548  0.84581  0.91984  Biso   1.000  C
  C247     1.0000 0.88253  0.99755  0.87070  Biso   1.000  C
  C248     1.0000 0.63489  0.08851  0.52752  Biso   1.000  C
  C249     1.0000 0.99616  0.33651  0.62858  Biso   1.000  C
  C250     1.0000 0.37875  0.97967  0.67578  Biso   1.000  C
  C251     1.0000 0.14299  0.08782  0.01865  Biso   1.000  C
  C252     1.0000 0.47933  0.33385  0.92249  Biso   1.000  C
  C253     1.0000 0.36422  0.48638  0.17297  Biso   1.000  C
  C254     1.0000 0.13296  0.38288  0.50942  Biso   1.000  C
  C255     1.0000 0.49351  0.14165  0.41790  Biso   1.000  C
  C256     1.0000 0.86600  0.47278  0.37645  Biso   1.000  C
  C257     1.0000 0.63934  0.37900  0.03902  Biso   1.000  C
  C258     1.0000 0.98789  0.13562  0.12677  Biso   1.000  C
  C259     1.0000 0.09100  0.98076  0.17642  Biso   1.000  C
  C260     1.0000 0.32922  0.88133  0.51703  Biso   1.000  C
  C261     1.0000 0.97589  0.63647  0.42259  Biso   1.000  C
  C262     1.0000 0.59144  0.97336  0.37090  Biso   1.000  C
  C263     1.0000 0.81995  0.88404  0.02241  Biso   1.000  C
  C264     1.0000 0.47486  0.64129  0.12954  Biso   1.000  C
  C265     1.0000 0.98099  0.10024  0.87420  Biso   1.000  C
  C266     1.0000 0.83792  0.98403  0.13282  Biso   1.000  C
  C267     1.0000 0.07812  0.83369  0.01995  Biso   1.000  C
  C268     1.0000 0.47040  0.08998  0.67417  Biso   1.000  C
  C269     1.0000 0.33864  0.98813  0.41455  Biso   1.000  C
  C270     1.0000 0.58520  0.83048  0.52872  Biso   1.000  C
  C271     1.0000 0.49516  0.58877  0.86931  Biso   1.000  C
  C272     1.0000 0.62457  0.48298  0.13770  Biso   1.000  C
  C273     1.0000 0.38922  0.33503  0.03242  Biso   1.000  C
  C274     1.0000 0.97780  0.58861  0.68300  Biso   1.000  C
  C275     1.0000 0.12118  0.48538  0.41158  Biso   1.000  C
  C276     1.0000 0.87917  0.33392  0.53671  Biso   1.000  C
  C277     1.0000 0.99794  0.87922  0.17895  Biso   1.000  C
  C278     1.0000 0.13740  0.99314  0.91379  Biso   1.000  C
  C279     1.0000 0.89023  0.13981  0.02880  Biso   1.000  C
  C280     1.0000 0.48514  0.88761  0.37315  Biso   1.000  C
  C281     1.0000 0.63242  0.99485  0.63277  Biso   1.000  C
  C282     1.0000 0.38323  0.14207  0.51306  Biso   1.000  C
  C283     1.0000 0.47115  0.38817  0.17183  Biso   1.000  C
  C284     1.0000 0.33596  0.48229  0.91068  Biso   1.000  C
  C285     1.0000 0.57408  0.63427  0.03552  Biso   1.000  C
  C286     1.0000 0.97085  0.38028  0.37108  Biso   1.000  C
  C287     1.0000 0.83886  0.48955  0.63235  Biso   1.000  C
  C288     1.0000 0.08320  0.63976  0.53360  Biso   1.000  C
  C289     1.0000 0.32664  0.85160  0.52223  Biso   1.000  C
  C290     1.0000 0.47830  0.33268  0.89145  Biso   1.000  C
  C291     1.0000 0.83525  0.47719  0.37680  Biso   1.000  C
  C292     1.0000 0.81802  0.85273  0.02657  Biso   1.000  C
  C293     1.0000 0.99796  0.33553  0.66024  Biso   1.000  C
  C294     1.0000 0.33276  0.48247  0.17227  Biso   1.000  C
  C295     1.0000 0.13373  0.35095  0.51227  Biso   1.000  C
  C296     1.0000 0.97666  0.84383  0.88802  Biso   1.000  C
  C297     1.0000 0.62327  0.97166  0.37322  Biso   1.000  C
  C298     1.0000 0.64393  0.34847  0.03807  Biso   1.000  C
  C299     1.0000 0.48825  0.83272  0.66521  Biso   1.000  C
  C300     1.0000 0.12279  0.98257  0.17317  Biso   1.000  C
  C301     1.0000 0.63500  0.12055  0.52768  Biso   1.000  C
  C302     1.0000 0.47359  0.64144  0.16240  Biso   1.000  C
  C303     1.0000 0.12550  0.48859  0.66989  Biso   1.000  C
  C304     1.0000 0.14752  0.11808  0.02609  Biso   1.000  C
  C305     1.0000 0.97360  0.63689  0.39084  Biso   1.000  C
  C306     1.0000 0.62774  0.47905  0.87457  Biso   1.000  C
  C307     1.0000 0.82494  0.62214  0.53789  Biso   1.000  C
  C308     1.0000 0.98712  0.13606  0.15744  Biso   1.000  C
  C309     1.0000 0.34767  0.97944  0.67349  Biso   1.000  C
  C310     1.0000 0.32099  0.61740  0.01266  Biso   1.000  C
  C311     1.0000 0.49358  0.14294  0.38752  Biso   1.000  C
  C312     1.0000 0.85175  0.99945  0.87058  Biso   1.000  C
  C313     1.0000 0.12099  0.48200  0.38016  Biso   1.000  C
  C314     1.0000 0.35162  0.14315  0.51325  Biso   1.000  C
  C315     1.0000 0.47837  0.35641  0.17222  Biso   1.000  C
  C316     1.0000 0.62142  0.48234  0.16923  Biso   1.000  C
  C317     1.0000 0.85955  0.13958  0.03433  Biso   1.000  C
  C318     1.0000 0.97474  0.34919  0.36991  Biso   1.000  C
  C319     1.0000 0.33881  0.99044  0.38329  Biso   1.000  C
  C320     1.0000 0.11458  0.63928  0.53552  Biso   1.000  C
  C321     1.0000 0.99344  0.84808  0.17841  Biso   1.000  C
  C322     1.0000 0.83781  0.98227  0.16407  Biso   1.000  C
  C323     1.0000 0.60577  0.63560  0.03175  Biso   1.000  C
  C324     1.0000 0.48460  0.85495  0.37373  Biso   1.000  C
  C325     1.0000 0.83753  0.48780  0.66393  Biso   1.000  C
  C326     1.0000 0.61670  0.82980  0.52894  Biso   1.000  C
  C327     1.0000 0.49472  0.61972  0.86932  Biso   1.000  C
  C328     1.0000 0.33573  0.48462  0.87924  Biso   1.000  C
  C329     1.0000 0.10923  0.83117  0.01697  Biso   1.000  C
  C330     1.0000 0.97676  0.62143  0.68254  Biso   1.000  C
  C331     1.0000 0.63275  0.99020  0.66512  Biso   1.000  C
  C332     1.0000 0.84875  0.33239  0.53573  Biso   1.000  C
  C333     1.0000 0.98643  0.13145  0.87277  Biso   1.000  C
  C334     1.0000 0.13681  0.99481  0.88226  Biso   1.000  C
  C335     1.0000 0.35854  0.33279  0.03031  Biso   1.000  C
  C336     1.0000 0.46975  0.12104  0.67461  Biso   1.000  C
  C337     1.0000 0.64671  0.47643  0.89756  Biso   1.000  C
  C338     1.0000 0.84688  0.64400  0.53626  Biso   1.000  C
  C339     1.0000 0.48716  0.85478  0.68697  Biso   1.000  C
  C340     1.0000 0.14643  0.48979  0.64722  Biso   1.000  C
  C341     1.0000 0.34083  0.63936  0.01610  Biso   1.000  C
  C342     1.0000 0.98193  0.86473  0.86613  Biso   1.000  C
  C343     1.0000 0.82924  0.99756  0.89115  Biso   1.000  C
  C344     1.0000 0.61395  0.14222  0.52865  Biso   1.000  C
  C345     1.0000 0.99839  0.35744  0.68197  Biso   1.000  C
  C346     1.0000 0.32721  0.97747  0.65003  Biso   1.000  C
  C347     1.0000 0.12602  0.13879  0.02940  Biso   1.000  C
  C348     1.0000 0.47982  0.35358  0.86994  Biso   1.000  C
  C349     1.0000 0.31487  0.47834  0.14807  Biso   1.000  C
  C350     1.0000 0.11375  0.32877  0.51642  Biso   1.000  C
  C351     1.0000 0.49572  0.12099  0.36648  Biso   1.000  C
  C352     1.0000 0.81495  0.48532  0.39860  Biso   1.000  C
  C353     1.0000 0.62368  0.32670  0.03082  Biso   1.000  C
  C354     1.0000 0.98542  0.11475  0.17913  Biso   1.000  C
  C355     1.0000 0.14274  0.98248  0.15117  Biso   1.000  C
  C356     1.0000 0.34645  0.83015  0.52474  Biso   1.000  C
  C357     1.0000 0.97113  0.61540  0.36895  Biso   1.000  C
  C358     1.0000 0.64317  0.96979  0.39536  Biso   1.000  C
  C359     1.0000 0.83961  0.83157  0.02904  Biso   1.000  C
  C360     1.0000 0.47753  0.62002  0.18362  Biso   1.000  C
  C361     1.0000 0.99144  0.15289  0.89397  Biso   1.000  C
  C362     1.0000 0.85891  0.98512  0.18540  Biso   1.000  C
  C363     1.0000 0.13142  0.85222  0.01529  Biso   1.000  C
  C364     1.0000 0.46870  0.14380  0.65330  Biso   1.000  C
  C365     1.0000 0.36081  0.99300  0.36341  Biso   1.000  C
  C366     1.0000 0.63823  0.85169  0.53161  Biso   1.000  C
  C367     1.0000 0.49065  0.64124  0.89049  Biso   1.000  C
  C368     1.0000 0.59813  0.48309  0.18951  Biso   1.000  C
  C369     1.0000 0.33553  0.35224  0.02622  Biso   1.000  C
  C370     1.0000 0.97490  0.64257  0.65956  Biso   1.000  C
  C371     1.0000 0.09770  0.48015  0.36014  Biso   1.000  C
  C372     1.0000 0.82749  0.35377  0.53266  Biso   1.000  C
  C373     1.0000 0.98500  0.82863  0.15649  Biso   1.000  C
  C374     1.0000 0.11524  0.99846  0.86052  Biso   1.000  C
  C375     1.0000 0.83762  0.11861  0.03647  Biso   1.000  C
  C376     1.0000 0.48687  0.83335  0.39595  Biso   1.000  C
  C377     1.0000 0.61153  0.98779  0.68636  Biso   1.000  C
  C378     1.0000 0.32963  0.12184  0.51416  Biso   1.000  C
  C379     1.0000 0.48828  0.33445  0.15405  Biso   1.000  C
  C380     1.0000 0.35876  0.48497  0.86062  Biso   1.000  C
  C381     1.0000 0.62823  0.61478  0.03127  Biso   1.000  C
  C382     1.0000 0.97443  0.32836  0.39345  Biso   1.000  C
  C383     1.0000 0.85892  0.48894  0.68463  Biso   1.000  C
  C384     1.0000 0.13578  0.61750  0.53534  Biso   1.000  C
  C385     1.0000 0.17461  0.13116  0.03120  Biso   1.000  C
  C386     1.0000 0.98822  0.16238  0.17369  Biso   1.000  C
  C387     1.0000 0.13971  0.98801  0.19939  Biso   1.000  C
  C388     1.0000 0.66234  0.13528  0.53000  Biso   1.000  C
  C389     1.0000 0.49059  0.17105  0.37256  Biso   1.000  C
  C390     1.0000 0.64086  0.97091  0.34699  Biso   1.000  C
  C391     1.0000 0.29191  0.63028  0.01046  Biso   1.000  C
  C392     1.0000 0.46747  0.66866  0.17782  Biso   1.000  C
  C393     1.0000 0.31551  0.48297  0.19827  Biso   1.000  C
  C394     1.0000 0.79766  0.63677  0.53520  Biso   1.000  C
  C395     1.0000 0.97636  0.66358  0.37499  Biso   1.000  C
  C396     1.0000 0.81682  0.47430  0.35135  Biso   1.000  C
  C397     1.0000 0.79071  0.83761  0.02708  Biso   1.000  C
  C398     1.0000 0.97506  0.81742  0.87136  Biso   1.000  C
  C399     1.0000 0.83613  0.99992  0.84210  Biso   1.000  C
  C400     1.0000 0.29828  0.83901  0.52222  Biso   1.000  C
  C401     1.0000 0.49001  0.80607  0.68074  Biso   1.000  C
  C402     1.0000 0.33045  0.98229  0.69888  Biso   1.000  C
  C403     1.0000 0.66926  0.33488  0.04701  Biso   1.000  C
  C404     1.0000 0.47435  0.30560  0.87592  Biso   1.000  C
  C405     1.0000 0.64342  0.47677  0.84919  Biso   1.000  C
  C406     1.0000 0.16093  0.33600  0.51443  Biso   1.000  C
  C407     1.0000 0.00307  0.30938  0.67636  Biso   1.000  C
  C408     1.0000 0.14325  0.49315  0.69559  Biso   1.000  C
  C409     1.0000 0.12918  0.99809  0.83259  Biso   1.000  C
  C410     1.0000 0.81227  0.13449  0.04417  Biso   1.000  C
  C411     1.0000 0.98115  0.80066  0.16988  Biso   1.000  C
  C412     1.0000 0.62746  0.98449  0.71345  Biso   1.000  C
  C413     1.0000 0.30305  0.13723  0.51783  Biso   1.000  C
  C414     1.0000 0.48693  0.80623  0.37955  Biso   1.000  C
  C415     1.0000 0.34454  0.48697  0.83333  Biso   1.000  C
  C416     1.0000 0.65444  0.63106  0.02501  Biso   1.000  C
  C417     1.0000 0.49053  0.30915  0.17116  Biso   1.000  C
  C418     1.0000 0.84564  0.48647  0.71315  Biso   1.000  C
  C419     1.0000 0.16295  0.63240  0.53571  Biso   1.000  C
  C420     1.0000 0.97384  0.30085  0.37825  Biso   1.000  C
  C421     1.0000 0.84371  0.98505  0.21219  Biso   1.000  C
  C422     1.0000 0.15681  0.83481  0.01308  Biso   1.000  C
  C423     1.0000 0.99631  0.17935  0.88110  Biso   1.000  C
  C424     1.0000 0.34604  0.99377  0.33572  Biso   1.000  C
  C425     1.0000 0.66467  0.83653  0.53595  Biso   1.000  C
  C426     1.0000 0.46736  0.17028  0.67070  Biso   1.000  C
  C427     1.0000 0.61336  0.48207  0.21744  Biso   1.000  C
  C428     1.0000 0.30933  0.33548  0.02939  Biso   1.000  C
  C429     1.0000 0.48902  0.66862  0.87589  Biso   1.000  C
  C430     1.0000 0.11192  0.47959  0.33162  Biso   1.000  C
  C431     1.0000 0.80018  0.33859  0.53246  Biso   1.000  C
  C432     1.0000 0.97793  0.67026  0.67459  Biso   1.000  C
  C433     1.0000 0.98533  0.14786  0.84635  Biso   1.000  C
  C434     1.0000 0.81121  0.98024  0.18121  Biso   1.000  C
  C435     1.0000 0.12290  0.80356  0.01214  Biso   1.000  C
  C436     1.0000 0.46813  0.13675  0.70228  Biso   1.000  C
  C437     1.0000 0.31315  0.98945  0.36603  Biso   1.000  C
  C438     1.0000 0.63162  0.80290  0.52899  Biso   1.000  C
  C439     1.0000 0.49821  0.63455  0.84224  Biso   1.000  C
  C440     1.0000 0.64684  0.48214  0.18737  Biso   1.000  C
  C441     1.0000 0.34300  0.30565  0.03453  Biso   1.000  C
  C442     1.0000 0.97729  0.63892  0.70855  Biso   1.000  C
  C443     1.0000 0.14656  0.48225  0.36205  Biso   1.000  C
  C444     1.0000 0.83419  0.30575  0.53734  Biso   1.000  C
  C445     1.0000 0.99285  0.83162  0.20415  Biso   1.000  C
  C446     1.0000 0.16190  0.98889  0.86426  Biso   1.000  C
  C447     1.0000 0.84507  0.16673  0.03892  Biso   1.000  C
  C448     1.0000 0.48424  0.83812  0.34573  Biso   1.000  C
  C449     1.0000 0.65991  0.98703  0.68091  Biso   1.000  C
  C450     1.0000 0.33548  0.17049  0.51439  Biso   1.000  C
  C451     1.0000 0.47590  0.34186  0.20052  Biso   1.000  C
  C452     1.0000 0.30993  0.48655  0.86413  Biso   1.000  C
  C453     1.0000 0.62154  0.66338  0.02882  Biso   1.000  C
  C454     1.0000 0.97522  0.33177  0.34362  Biso   1.000  C
  C455     1.0000 0.81187  0.48460  0.68103  Biso   1.000  C
  C456     1.0000 0.13067  0.66623  0.53794  Biso   1.000  C
  C457     1.0000 0.97381  0.63129  0.34189  Biso   1.000  C
  C458     1.0000 0.30024  0.98101  0.66354  Biso   1.000  C
  C459     1.0000 0.64043  0.30138  0.03381  Biso   1.000  C
  C460     1.0000 0.47536  0.63625  0.21035  Biso   1.000  C
  C461     1.0000 0.80287  0.99570  0.87481  Biso   1.000  C
  C462     1.0000 0.12865  0.30154  0.51937  Biso   1.000  C
  C463     1.0000 0.49408  0.13692  0.33968  Biso   1.000  C
  C464     1.0000 0.17330  0.49468  0.66164  Biso   1.000  C
  C465     1.0000 0.82443  0.80415  0.02967  Biso   1.000  C
  C466     1.0000 0.98510  0.13065  0.20722  Biso   1.000  C
  C467     1.0000 0.67428  0.47242  0.88416  Biso   1.000  C
  C468     1.0000 0.32907  0.80371  0.52636  Biso   1.000  C
  C469     1.0000 0.99936  0.34172  0.70930  Biso   1.000  C
  C470     1.0000 0.67222  0.96711  0.38235  Biso   1.000  C
  C471     1.0000 0.32333  0.66553  0.01322  Biso   1.000  C
  C472     1.0000 0.47700  0.33858  0.84343  Biso   1.000  C
  C473     1.0000 0.16997  0.98374  0.16472  Biso   1.000  C
  C474     1.0000 0.83089  0.67071  0.53623  Biso   1.000  C
  C475     1.0000 0.48728  0.83865  0.71345  Biso   1.000  C
  C476     1.0000 0.78602  0.48617  0.38535  Biso   1.000  C
  C477     1.0000 0.14266  0.16548  0.03760  Biso   1.000  C
  C478     1.0000 0.98158  0.84972  0.83861  Biso   1.000  C
  C479     1.0000 0.28623  0.47870  0.16173  Biso   1.000  C
  C480     1.0000 0.62980  0.16949  0.53142  Biso   1.000  C
  C481     1.0000 0.34623  0.77695  0.53030  Biso   1.000  C
  C482     1.0000 0.47758  0.35569  0.81722  Biso   1.000  C
  C483     1.0000 0.76114  0.49698  0.40185  Biso   1.000  C
  C484     1.0000 0.84105  0.77901  0.02750  Biso   1.000  C
  C485     1.0000 0.99739  0.35917  0.73581  Biso   1.000  C
  C486     1.0000 0.26167  0.47520  0.14259  Biso   1.000  C
  C487     1.0000 0.11128  0.27483  0.52646  Biso   1.000  C
  C488     1.0000 0.99165  0.86506  0.81156  Biso   1.000  C
  C489     1.0000 0.69850  0.96485  0.39988  Biso   1.000  C
  C490     1.0000 0.62488  0.27312  0.03341  Biso   1.000  C
  C491     1.0000 0.48266  0.85331  0.74053  Biso   1.000  C
  C492     1.0000 0.19663  0.98160  0.14721  Biso   1.000  C
  C493     1.0000 0.61403  0.19564  0.53980  Biso   1.000  C
  C494     1.0000 0.48118  0.62223  0.23802  Biso   1.000  C
  C495     1.0000 0.19831  0.49952  0.64402  Biso   1.000  C
  C496     1.0000 0.12555  0.19082  0.04369  Biso   1.000  C
  C497     1.0000 0.97383  0.61578  0.31493  Biso   1.000  C
  C498     1.0000 0.69917  0.46935  0.90429  Biso   1.000  C
  C499     1.0000 0.84714  0.69790  0.53820  Biso   1.000  C
  C500     1.0000 0.98252  0.11465  0.23411  Biso   1.000  C
  C501     1.0000 0.27321  0.98234  0.64623  Biso   1.000  C
  C502     1.0000 0.33797  0.69372  0.01898  Biso   1.000  C
  C503     1.0000 0.49531  0.11838  0.31234  Biso   1.000  C
  C504     1.0000 0.77592  0.99094  0.88982  Biso   1.000  C
  C505     1.0000 0.62888  0.48057  0.82086  Biso   1.000  C
  C506     1.0000 0.77073  0.61901  0.53292  Biso   1.000  C
  C507     1.0000 0.49201  0.77842  0.66600  Biso   1.000  C
  C508     1.0000 0.13022  0.49236  0.72469  Biso   1.000  C
  C509     1.0000 0.26739  0.61126  0.00193  Biso   1.000  C
  C510     1.0000 0.96837  0.79192  0.88604  Biso   1.000  C
  C511     1.0000 0.85241  0.00148  0.81413  Biso   1.000  C
  C512     1.0000 0.68936  0.12085  0.52608  Biso   1.000  C
  C513     1.0000 0.00677  0.28192  0.65858  Biso   1.000  C
  C514     1.0000 0.34366  0.98333  0.72822  Biso   1.000  C
  C515     1.0000 0.20017  0.11424  0.02775  Biso   1.000  C
  C516     1.0000 0.47560  0.27816  0.89185  Biso   1.000  C
  C517     1.0000 0.32988  0.48383  0.22657  Biso   1.000  C
  C518     1.0000 0.18846  0.35302  0.51316  Biso   1.000  C
  C519     1.0000 0.49005  0.19887  0.38857  Biso   1.000  C
  C520     1.0000 0.83069  0.47114  0.32455  Biso   1.000  C
  C521     1.0000 0.69288  0.35400  0.05854  Biso   1.000  C
  C522     1.0000 0.99605  0.18991  0.15872  Biso   1.000  C
  C523     1.0000 0.12713  0.99334  0.22803  Biso   1.000  C
  C524     1.0000 0.27178  0.85650  0.51824  Biso   1.000  C
  C525     1.0000 0.97683  0.69195  0.39109  Biso   1.000  C
  C526     1.0000 0.62736  0.96842  0.31905  Biso   1.000  C
  C527     1.0000 0.76354  0.85363  0.02803  Biso   1.000  C
  C528     1.0000 0.46145  0.69470  0.16159  Biso   1.000  C
  C529     1.0000 0.78533  0.11866  0.04666  Biso   1.000  C
  C530     1.0000 0.97667  0.77386  0.15363  Biso   1.000  C
  C531     1.0000 0.11274  0.00440  0.80567  Biso   1.000  C
  C532     1.0000 0.27627  0.11930  0.52006  Biso   1.000  C
  C533     1.0000 0.48643  0.77933  0.39582  Biso   1.000  C
  C534     1.0000 0.61055  0.98059  0.73969  Biso   1.000  C
  C535     1.0000 0.68138  0.61663  0.01876  Biso   1.000  C
  C536     1.0000 0.50026  0.28051  0.15862  Biso   1.000  C
  C537     1.0000 0.36138  0.48120  0.80664  Biso   1.000  C
  C538     1.0000 0.18989  0.61542  0.53419  Biso   1.000  C
  C539     1.0000 0.97654  0.27523  0.39514  Biso   1.000  C
  C540     1.0000 0.86272  0.48731  0.74002  Biso   1.000  C
  C541     1.0000 0.18429  0.84841  0.01481  Biso   1.000  C
  C542     1.0000 0.00337  0.20508  0.89895  Biso   1.000  C
  C543     1.0000 0.86056  0.98763  0.23888  Biso   1.000  C
  C544     1.0000 0.69266  0.85218  0.53641  Biso   1.000  C
  C545     1.0000 0.46487  0.19854  0.65538  Biso   1.000  C
  C546     1.0000 0.36200  0.99513  0.30978  Biso   1.000  C
  C547     1.0000 0.28184  0.35005  0.02966  Biso   1.000  C
  C548     1.0000 0.48195  0.69391  0.89347  Biso   1.000  C
  C549     1.0000 0.59452  0.48246  0.24337  Biso   1.000  C
  C550     1.0000 0.77476  0.35563  0.53084  Biso   1.000  C
  C551     1.0000 0.97936  0.69829  0.65928  Biso   1.000  C
  C552     1.0000 0.09243  0.48211  0.30567  Biso   1.000  C
  C553     1.0000 0.97661  0.13388  0.81860  Biso   1.000  C
  C554     1.0000 0.78393  0.97697  0.16555  Biso   1.000  C
  C555     1.0000 0.10411  0.77802  0.00848  Biso   1.000  C
  C556     1.0000 0.46914  0.12131  0.72950  Biso   1.000  C
  C557     1.0000 0.28528  0.98442  0.38017  Biso   1.000  C
  C558     1.0000 0.61434  0.77656  0.52765  Biso   1.000  C
  C559     1.0000 0.50152  0.61998  0.81477  Biso   1.000  C
  C560     1.0000 0.67635  0.48013  0.17597  Biso   1.000  C
  C561     1.0000 0.35954  0.27825  0.04048  Biso   1.000  C
  C562     1.0000 0.97581  0.62545  0.73707  Biso   1.000  C
  C563     1.0000 0.17456  0.48546  0.37765  Biso   1.000  C
  C564     1.0000 0.85027  0.27881  0.54401  Biso   1.000  C
  C565     1.0000 0.99845  0.84586  0.23308  Biso   1.000  C
  C566     1.0000 0.18880  0.98199  0.87879  Biso   1.000  C
  C567     1.0000 0.86157  0.19387  0.03469  Biso   1.000  C
  C568     1.0000 0.47883  0.85408  0.31925  Biso   1.000  C
  C569     1.0000 0.68724  0.99099  0.66429  Biso   1.000  C
  C570     1.0000 0.35115  0.19730  0.51438  Biso   1.000  C
  C571     1.0000 0.46715  0.35777  0.22670  Biso   1.000  C
  C572     1.0000 0.28073  0.48825  0.87852  Biso   1.000  C
  C573     1.0000 0.60636  0.68914  0.03389  Biso   1.000  C
  C574     1.0000 0.97317  0.34579  0.31488  Biso   1.000  C
  C575     1.0000 0.78384  0.47997  0.66538  Biso   1.000  C
  C576     1.0000 0.11470  0.69323  0.54158  Biso   1.000  C
  C577     1.0000 0.26650  0.47655  0.11253  Biso   1.000  C
  C578     1.0000 0.07863  0.27607  0.52764  Biso   1.000  C
  C579     1.0000 0.49547  0.08779  0.31188  Biso   1.000  C
  C580     1.0000 0.76401  0.50135  0.43257  Biso   1.000  C
  C581     1.0000 0.59437  0.27508  0.02540  Biso   1.000  C
  C582     1.0000 0.98422  0.08370  0.23284  Biso   1.000  C
  C583     1.0000 0.19479  0.98162  0.11524  Biso   1.000  C
  C584     1.0000 0.37887  0.77826  0.52915  Biso   1.000  C
  C585     1.0000 0.96901  0.58476  0.31267  Biso   1.000  C
  C586     1.0000 0.69502  0.96838  0.43116  Biso   1.000  C
  C587     1.0000 0.87313  0.78109  0.02718  Biso   1.000  C
  C588     1.0000 0.48390  0.59158  0.23905  Biso   1.000  C
  C589     1.0000 0.69500  0.47192  0.93545  Biso   1.000  C
  C590     1.0000 0.87817  0.69595  0.53357  Biso   1.000  C
  C591     1.0000 0.47939  0.88490  0.73965  Biso   1.000  C
  C592     1.0000 0.19667  0.49392  0.61217  Biso   1.000  C
  C593     1.0000 0.36948  0.69571  0.02127  Biso   1.000  C
  C594     1.0000 0.99594  0.89670  0.81250  Biso   1.000  C
  C595     1.0000 0.77553  0.99184  0.92264  Biso   1.000  C
  C596     1.0000 0.58284  0.19599  0.54180  Biso   1.000  C
  C597     1.0000 0.99651  0.39109  0.73346  Biso   1.000  C
  C598     1.0000 0.27454  0.97739  0.61513  Biso   1.000  C
  C599     1.0000 0.09422  0.19052  0.03894  Biso   1.000  C
  C600     1.0000 0.48002  0.38695  0.81786  Biso   1.000  C
  C601     1.0000 0.19085  0.98141  0.91004  Biso   1.000  C
  C602     1.0000 0.89329  0.19431  0.03158  Biso   1.000  C
  C603     1.0000 0.99990  0.87762  0.23363  Biso   1.000  C
  C604     1.0000 0.68742  0.99408  0.63289  Biso   1.000  C
  C605     1.0000 0.38253  0.19774  0.51571  Biso   1.000  C
  C606     1.0000 0.47990  0.88552  0.31850  Biso   1.000  C
  C607     1.0000 0.28066  0.48824  0.90992  Biso   1.000  C
  C608     1.0000 0.57523  0.68939  0.03758  Biso   1.000  C
  C609     1.0000 0.46143  0.38859  0.22513  Biso   1.000  C
  C610     1.0000 0.78303  0.48105  0.63342  Biso   1.000  C
  C611     1.0000 0.08337  0.69350  0.54233  Biso   1.000  C
  C612     1.0000 0.97059  0.37754  0.31603  Biso   1.000  C
  C613     1.0000 0.78503  0.97798  0.13396  Biso   1.000  C
  C614     1.0000 0.07354  0.78115  0.00984  Biso   1.000  C
  C615     1.0000 0.97003  0.10276  0.81940  Biso   1.000  C
  C616     1.0000 0.28423  0.98319  0.41181  Biso   1.000  C
  C617     1.0000 0.58193  0.77620  0.52833  Biso   1.000  C
  C618     1.0000 0.47499  0.09007  0.72793  Biso   1.000  C
  C619     1.0000 0.68028  0.48001  0.14420  Biso   1.000  C
  C620     1.0000 0.39181  0.28101  0.04057  Biso   1.000  C
  C621     1.0000 0.50093  0.58836  0.81402  Biso   1.000  C
  C622     1.0000 0.17558  0.49123  0.40832  Biso   1.000  C
  C623     1.0000 0.88206  0.27985  0.54602  Biso   1.000  C
  C624     1.0000 0.97768  0.59330  0.73737  Biso   1.000  C
  C625     1.0000 0.00444  0.20356  0.93025  Biso   1.000  C
  C626     1.0000 0.89187  0.98596  0.23907  Biso   1.000  C
  C627     1.0000 0.18691  0.87944  0.01496  Biso   1.000  C
  C628     1.0000 0.46467  0.20057  0.62398  Biso   1.000  C
  C629     1.0000 0.39397  0.99314  0.31014  Biso   1.000  C
  C630     1.0000 0.69291  0.88397  0.53615  Biso   1.000  C
  C631     1.0000 0.47529  0.69102  0.92440  Biso   1.000  C
  C632     1.0000 0.56359  0.48190  0.24100  Biso   1.000  C
  C633     1.0000 0.28319  0.38014  0.02466  Biso   1.000  C
  C634     1.0000 0.97699  0.69776  0.62754  Biso   1.000  C
  C635     1.0000 0.06219  0.48383  0.30801  Biso   1.000  C
  C636     1.0000 0.77532  0.38588  0.52936  Biso   1.000  C
  C637     1.0000 0.97276  0.77461  0.12216  Biso   1.000  C
  C638     1.0000 0.08164  0.00704  0.80802  Biso   1.000  C
  C639     1.0000 0.78435  0.08696  0.04544  Biso   1.000  C
  C640     1.0000 0.48576  0.77918  0.42759  Biso   1.000  C
  C641     1.0000 0.58031  0.98360  0.73913  Biso   1.000  C
  C642     1.0000 0.27867  0.08782  0.52304  Biso   1.000  C
  C643     1.0000 0.50514  0.27883  0.12724  Biso   1.000  C
  C644     1.0000 0.39183  0.48018  0.81004  Biso   1.000  C
  C645     1.0000 0.68108  0.58517  0.02264  Biso   1.000  C
  C646     1.0000 0.97571  0.27614  0.42679  Biso   1.000  C
  C647     1.0000 0.89373  0.49310  0.73676  Biso   1.000  C
  C648     1.0000 0.18890  0.58438  0.53006  Biso   1.000  C
  C649     1.0000 0.97888  0.69286  0.42227  Biso   1.000  C
  C650     1.0000 0.37589  0.98384  0.73113  Biso   1.000  C
  C651     1.0000 0.68944  0.38437  0.06152  Biso   1.000  C
  C652     1.0000 0.45953  0.69190  0.12923  Biso   1.000  C
  C653     1.0000 0.88388  0.00189  0.81556  Biso   1.000  C
  C654     1.0000 0.18662  0.38406  0.51039  Biso   1.000  C
  C655     1.0000 0.49147  0.19780  0.41929  Biso   1.000  C
  C656     1.0000 0.09866  0.48945  0.72694  Biso   1.000  C
  C657     1.0000 0.76560  0.88448  0.02631  Biso   1.000  C
  C658     1.0000 0.99719  0.18990  0.12794  Biso   1.000  C
  C659     1.0000 0.59758  0.48228  0.81957  Biso   1.000  C
  C660     1.0000 0.27567  0.88695  0.51457  Biso   1.000  C
  C661     1.0000 0.00466  0.28156  0.62726  Biso   1.000  C
  C662     1.0000 0.59657  0.96996  0.31686  Biso   1.000  C
  C663     1.0000 0.27066  0.58094  0.99834  Biso   1.000  C
  C664     1.0000 0.48047  0.27758  0.92359  Biso   1.000  C
  C665     1.0000 0.09604  0.99605  0.22979  Biso   1.000  C
  C666     1.0000 0.77169  0.58807  0.53437  Biso   1.000  C
  C667     1.0000 0.48830  0.77758  0.63455  Biso   1.000  C
  C668     1.0000 0.86095  0.47114  0.32155  Biso   1.000  C
  C669     1.0000 0.19759  0.08334  0.02015  Biso   1.000  C
  C670     1.0000 0.96640  0.79221  0.91827  Biso   1.000  C
  C671     1.0000 0.36114  0.48984  0.22747  Biso   1.000  C
  C672     1.0000 0.69045  0.09043  0.52273  Biso   1.000  C
  C673     1.0000 0.17411  0.99372  0.81763  Biso   1.000  C
  C674     1.0000 0.79906  0.18103  0.04332  Biso   1.000  C
  C675     1.0000 0.98421  0.78650  0.21681  Biso   1.000  C
  C676     1.0000 0.67444  0.98147  0.72751  Biso   1.000  C
  C677     1.0000 0.28969  0.18435  0.51818  Biso   1.000  C
  C678     1.0000 0.47991  0.79056  0.33395  Biso   1.000  C
  C679     1.0000 0.29921  0.48796  0.81480  Biso   1.000  C
  C680     1.0000 0.66710  0.67920  0.02406  Biso   1.000  C
  C681     1.0000 0.48486  0.29619  0.21759  Biso   1.000  C
  C682     1.0000 0.79875  0.48175  0.72885  Biso   1.000  C
  C683     1.0000 0.17637  0.67963  0.53601  Biso   1.000  C
  C684     1.0000 0.97538  0.28510  0.33070  Biso   1.000  C
  C685     1.0000 0.79714  0.98297  0.22948  Biso   1.000  C
  C686     1.0000 0.16949  0.78838  0.00519  Biso   1.000  C
  C687     1.0000 0.99462  0.19407  0.83488  Biso   1.000  C
  C688     1.0000 0.29996  0.99438  0.31927  Biso   1.000  C
  C689     1.0000 0.67756  0.78974  0.53216  Biso   1.000  C
  C690     1.0000 0.46682  0.18483  0.71517  Biso   1.000  C
  C691     1.0000 0.65957  0.48432  0.23511  Biso   1.000  C
  C692     1.0000 0.29654  0.29012  0.03597  Biso   1.000  C
  C693     1.0000 0.49601  0.68352  0.83140  Biso   1.000  C
  C694     1.0000 0.15802  0.48235  0.31458  Biso   1.000  C
  C695     1.0000 0.78580  0.29242  0.53705  Biso   1.000  C
  C696     1.0000 0.97721  0.68743  0.71865  Biso   1.000  C
  C697     1.0000 0.68620  0.97364  0.33608  Biso   1.000  C
  C698     1.0000 0.27728  0.67738  0.00961  Biso   1.000  C
  C699     1.0000 0.00310  0.29451  0.72249  Biso   1.000  C
  C700     1.0000 0.18901  0.98672  0.21017  Biso   1.000  C
  C701     1.0000 0.78491  0.68236  0.53490  Biso   1.000  C
  C702     1.0000 0.47171  0.29269  0.82869  Biso   1.000  C
  C703     1.0000 0.76920  0.47997  0.34084  Biso   1.000  C
  C704     1.0000 0.18826  0.17754  0.03738  Biso   1.000  C
  C705     1.0000 0.49219  0.79322  0.72866  Biso   1.000  C
  C706     1.0000 0.26779  0.48021  0.20701  Biso   1.000  C
  C707     1.0000 0.67685  0.18312  0.53210  Biso   1.000  C
  C708     1.0000 0.97549  0.80340  0.82375  Biso   1.000  C
  C709     1.0000 0.28104  0.98579  0.70763  Biso   1.000  C
  C710     1.0000 0.68611  0.28835  0.04531  Biso   1.000  C
  C711     1.0000 0.97458  0.67785  0.32681  Biso   1.000  C
  C712     1.0000 0.78898  0.99572  0.82809  Biso   1.000  C
  C713     1.0000 0.17684  0.29135  0.51889  Biso   1.000  C
  C714     1.0000 0.46620  0.68310  0.22367  Biso   1.000  C
  C715     1.0000 0.19102  0.49345  0.70787  Biso   1.000  C
  C716     1.0000 0.77765  0.79115  0.02615  Biso   1.000  C
  C717     1.0000 0.48601  0.18365  0.32615  Biso   1.000  C
  C718     1.0000 0.69013  0.47390  0.83761  Biso   1.000  C
  C719     1.0000 0.28362  0.79160  0.52545  Biso   1.000  C
  C720     1.0000 0.98257  0.17801  0.21965  Biso   1.000  C
  C721     1.0000 0.49314  0.79316  0.30593  Biso   1.000  C
  C722     1.0000 0.30349  0.51051  0.79242  Biso   1.000  C
  C723     1.0000 0.76027  0.29460  0.55531  Biso   1.000  C
  C724     1.0000 0.96035  0.76660  0.21781  Biso   1.000  C
  C725     1.0000 0.76915  0.49251  0.72527  Biso   1.000  C
  C726     1.0000 0.27183  0.28972  0.01582  Biso   1.000  C
  C727     1.0000 0.95813  0.25810  0.33298  Biso   1.000  C
  C728     1.0000 0.20326  0.00356  0.82308  Biso   1.000  C
  C729     1.0000 0.70284  0.79290  0.55231  Biso   1.000  C
  C730     1.0000 0.45985  0.29273  0.23815  Biso   1.000  C
  C731     1.0000 0.70173  0.96762  0.72156  Biso   1.000  C
  C732     1.0000 0.19625  0.79230  0.98930  Biso   1.000  C
  C733     1.0000 0.45171  0.18244  0.74186  Biso   1.000  C
  C734     1.0000 0.66004  0.46240  0.25742  Biso   1.000  C
  C735     1.0000 0.17146  0.70739  0.52002  Biso   1.000  C
  C736     1.0000 0.98775  0.22507  0.84154  Biso   1.000  C
  C737     1.0000 0.18646  0.46689  0.31797  Biso   1.000  C
  C738     1.0000 0.69628  0.67601  0.03564  Biso   1.000  C
  C739     1.0000 0.99722  0.69017  0.74418  Biso   1.000  C
  C740     1.0000 0.80187  0.96980  0.25835  Biso   1.000  C
  C741     1.0000 0.26252  0.18055  0.50216  Biso   1.000  C
  C742     1.0000 0.48317  0.67809  0.80187  Biso   1.000  C
  C743     1.0000 0.30466  0.97932  0.29176  Biso   1.000  C
  C744     1.0000 0.80190  0.20890  0.05963  Biso   1.000  C
  C745     1.0000 0.99113  0.70615  0.33206  Biso   1.000  C
  C746     1.0000 0.25511  0.96703  0.70742  Biso   1.000  C
  C747     1.0000 0.71067  0.28936  0.06663  Biso   1.000  C
  C748     1.0000 0.47787  0.71191  0.21783  Biso   1.000  C
  C749     1.0000 0.79319  0.97891  0.80198  Biso   1.000  C
  C750     1.0000 0.20473  0.29726  0.53280  Biso   1.000  C
  C751     1.0000 0.49957  0.18164  0.29828  Biso   1.000  C
  C752     1.0000 0.21506  0.47553  0.70342  Biso   1.000  C
  C753     1.0000 0.75077  0.79577  0.01141  Biso   1.000  C
  C754     1.0000 0.99668  0.17767  0.24835  Biso   1.000  C
  C755     1.0000 0.68666  0.45893  0.80954  Biso   1.000  C
  C756     1.0000 0.25694  0.79969  0.53815  Biso   1.000  C
  C757     1.0000 0.98799  0.26739  0.71851  Biso   1.000  C
  C758     1.0000 0.68324  0.99357  0.31153  Biso   1.000  C
  C759     1.0000 0.24759  0.67093  0.01847  Biso   1.000  C
  C760     1.0000 0.49072  0.29567  0.80327  Biso   1.000  C
  C761     1.0000 0.21717  0.99971  0.20416  Biso   1.000  C
  C762     1.0000 0.79061  0.71091  0.52238  Biso   1.000  C
  C763     1.0000 0.51267  0.79486  0.75402  Biso   1.000  C
  C764     1.0000 0.75052  0.50562  0.33662  Biso   1.000  C
  C765     1.0000 0.21771  0.17366  0.04843  Biso   1.000  C
  C766     1.0000 0.96455  0.80833  0.79354  Biso   1.000  C
  C767     1.0000 0.26969  0.49736  0.23397  Biso   1.000  C
  C768     1.0000 0.67594  0.20879  0.51454  Biso   1.000  C
  C769     1.0000 0.50744  0.71278  0.84014  Biso   1.000  C
  C770     1.0000 0.80216  0.46398  0.75643  Biso   1.000  C
  C771     1.0000 0.67504  0.76277  0.51372  Biso   1.000  C
  C772     1.0000 0.95867  0.71085  0.71254  Biso   1.000  C
  C773     1.0000 0.27604  0.46869  0.81159  Biso   1.000  C
  C774     1.0000 0.16318  0.75970  0.01665  Biso   1.000  C
  C775     1.0000 0.00800  0.18721  0.80695  Biso   1.000  C
  C776     1.0000 0.66947  0.99527  0.75497  Biso   1.000  C
  C777     1.0000 0.79017  0.26558  0.52072  Biso   1.000  C
  C778     1.0000 0.48154  0.21360  0.71160  Biso   1.000  C
  C779     1.0000 0.16829  0.98125  0.78959  Biso   1.000  C
  C780     1.0000 0.29741  0.26558  0.05760  Biso   1.000  C
  C781     1.0000 0.50736  0.27408  0.22006  Biso   1.000  C
  C782     1.0000 0.15207  0.49621  0.28634  Biso   1.000  C
  C783     1.0000 0.29378  0.21176  0.53487  Biso   1.000  C
  C784     1.0000 0.99325  0.28782  0.30450  Biso   1.000  C
  C785     1.0000 0.68335  0.50621  0.23373  Biso   1.000  C
  C786     1.0000 0.77143  0.17699  0.02765  Biso   1.000  C
  C787     1.0000 0.00654  0.78333  0.24025  Biso   1.000  C
  C788     1.0000 0.27291  0.00848  0.32425  Biso   1.000  C
  C789     1.0000 0.20319  0.67975  0.55299  Biso   1.000  C
  C790     1.0000 0.46084  0.76531  0.33881  Biso   1.000  C
  C791     1.0000 0.77004  0.99625  0.22386  Biso   1.000  C
  C792     1.0000 0.66135  0.70785  0.01122  Biso   1.000  C
  C793     1.0000 0.46768  0.20940  0.32910  Biso   1.000  C
  C794     1.0000 0.24141  0.46345  0.20327  Biso   1.000  C
  C795     1.0000 0.17266  0.26284  0.50562  Biso   1.000  C
  C796     1.0000 0.96526  0.20372  0.21257  Biso   1.000  C
  C797     1.0000 0.76685  0.45723  0.31739  Biso   1.000  C
  C798     1.0000 0.68564  0.26181  0.02799  Biso   1.000  C
  C799     1.0000 0.96028  0.67500  0.29865  Biso   1.000  C
  C800     1.0000 0.18692  0.97436  0.23898  Biso   1.000  C
  C801     1.0000 0.28704  0.76067  0.51787  Biso   1.000  C
  C802     1.0000 0.45389  0.67804  0.25243  Biso   1.000  C
  C803     1.0000 0.70967  0.95406  0.33531  Biso   1.000  C
  C804     1.0000 0.77802  0.76639  0.04498  Biso   1.000  C
  C805     1.0000 0.47017  0.76980  0.72856  Biso   1.000  C
  C806     1.0000 0.71848  0.48676  0.84313  Biso   1.000  C
  C807     1.0000 0.75599  0.67736  0.54884  Biso   1.000  C
  C808     1.0000 0.98431  0.77379  0.82798  Biso   1.000  C
  C809     1.0000 0.19298  0.51205  0.73425  Biso   1.000  C
  C810     1.0000 0.28306  0.70663  0.99652  Biso   1.000  C
  C811     1.0000 0.01884  0.30077  0.74967  Biso   1.000  C
  C812     1.0000 0.76306  0.01293  0.83036  Biso   1.000  C
  C813     1.0000 0.70378  0.17798  0.54873  Biso   1.000  C
  C814     1.0000 0.45018  0.26950  0.82803  Biso   1.000  C
  C815     1.0000 0.28326  0.00579  0.73228  Biso   1.000  C
  C816     1.0000 0.18125  0.20705  0.02686  Biso   1.000  C
  C817     1.0000 0.99018  0.24474  0.81797  Biso   1.000  C
  C818     1.0000 0.77966  0.96820  0.27812  Biso   1.000  C
  C819     1.0000 0.21568  0.76942  0.98833  Biso   1.000  C
  C820     1.0000 0.45462  0.20299  0.76337  Biso   1.000  C
  C821     1.0000 0.28277  0.98024  0.26989  Biso   1.000  C
  C822     1.0000 0.72475  0.77319  0.55165  Biso   1.000  C
  C823     1.0000 0.48272  0.70147  0.78290  Biso   1.000  C
  C824     1.0000 0.68154  0.46349  0.27694  Biso   1.000  C
  C825     1.0000 0.25023  0.26915  0.01784  Biso   1.000  C
  C826     1.0000 0.99452  0.71366  0.76235  Biso   1.000  C
  C827     1.0000 0.20794  0.47008  0.29848  Biso   1.000  C
  C828     1.0000 0.74107  0.27030  0.55388  Biso   1.000  C
  C829     1.0000 0.95921  0.74580  0.24005  Biso   1.000  C
  C830     1.0000 0.22421  0.00107  0.80142  Biso   1.000  C
  C831     1.0000 0.77861  0.22981  0.06092  Biso   1.000  C
  C832     1.0000 0.48846  0.77341  0.28406  Biso   1.000  C
  C833     1.0000 0.72307  0.96904  0.74245  Biso   1.000  C
  C834     1.0000 0.24002  0.19997  0.50480  Biso   1.000  C
  C835     1.0000 0.45752  0.27116  0.25807  Biso   1.000  C
  C836     1.0000 0.28510  0.51114  0.76896  Biso   1.000  C
  C837     1.0000 0.71448  0.69907  0.03781  Biso   1.000  C
  C838     1.0000 0.95627  0.23813  0.31053  Biso   1.000  C
  C839     1.0000 0.74687  0.48806  0.74566  Biso   1.000  C
  C840     1.0000 0.19145  0.73026  0.52172  Biso   1.000  C
  C841     1.0000 0.18923  0.98023  0.76831  Biso   1.000  C
  C842     1.0000 0.74915  0.19737  0.03082  Biso   1.000  C
  C843     1.0000 0.00464  0.76181  0.26132  Biso   1.000  C
  C844     1.0000 0.69254  0.99641  0.77485  Biso   1.000  C
  C845     1.0000 0.27195  0.23272  0.53466  Biso   1.000  C
  C846     1.0000 0.45660  0.74537  0.31579  Biso   1.000  C
  C847     1.0000 0.25850  0.46855  0.78636  Biso   1.000  C
  C848     1.0000 0.68026  0.73041  0.01190  Biso   1.000  C
  C849     1.0000 0.50415  0.25404  0.24224  Biso   1.000  C
  C850     1.0000 0.77951  0.45763  0.77565  Biso   1.000  C
  C851     1.0000 0.22237  0.70186  0.55220  Biso   1.000  C
  C852     1.0000 0.98926  0.26821  0.28087  Biso   1.000  C
  C853     1.0000 0.74761  0.99424  0.24371  Biso   1.000  C
  C854     1.0000 0.18269  0.73677  0.01406  Biso   1.000  C
  C855     1.0000 0.01149  0.20766  0.78632  Biso   1.000  C
  C856     1.0000 0.25232  0.00883  0.30213  Biso   1.000  C
  C857     1.0000 0.69826  0.74324  0.51505  Biso   1.000  C
  C858     1.0000 0.48285  0.23398  0.73427  Biso   1.000  C
  C859     1.0000 0.70640  0.50325  0.25175  Biso   1.000  C
  C860     1.0000 0.27514  0.24543  0.05812  Biso   1.000  C
  C861     1.0000 0.50396  0.73445  0.82072  Biso   1.000  C
  C862     1.0000 0.17418  0.49505  0.26618  Biso   1.000  C
  C863     1.0000 0.76989  0.24416  0.51916  Biso   1.000  C
  C864     1.0000 0.95645  0.73494  0.73051  Biso   1.000  C
  C865     1.0000 0.70608  0.46084  0.78704  Biso   1.000  C
  C866     1.0000 0.76944  0.73141  0.52382  Biso   1.000  C
  C867     1.0000 0.51150  0.77366  0.77455  Biso   1.000  C
  C868     1.0000 0.23886  0.47722  0.72132  Biso   1.000  C
  C869     1.0000 0.22610  0.69063  0.01455  Biso   1.000  C
  C870     1.0000 0.96317  0.78610  0.77223  Biso   1.000  C
  C871     1.0000 0.76911  0.97642  0.78380  Biso   1.000  C
  C872     1.0000 0.69865  0.22817  0.51461  Biso   1.000  C
  C873     1.0000 0.98856  0.24788  0.74180  Biso   1.000  C
  C874     1.0000 0.23480  0.97040  0.72782  Biso   1.000  C
  C875     1.0000 0.23786  0.19656  0.04701  Biso   1.000  C
  C876     1.0000 0.48756  0.27675  0.78004  Biso   1.000  C
  C877     1.0000 0.24816  0.50033  0.25315  Biso   1.000  C
  C878     1.0000 0.22596  0.27708  0.53366  Biso   1.000  C
  C879     1.0000 0.49823  0.20299  0.27828  Biso   1.000  C
  C880     1.0000 0.73077  0.50757  0.31389  Biso   1.000  C
  C881     1.0000 0.73208  0.27008  0.06639  Biso   1.000  C
  C882     1.0000 0.98935  0.20004  0.26848  Biso   1.000  C
  C883     1.0000 0.23863  0.00372  0.22473  Biso   1.000  C
  C884     1.0000 0.23425  0.77945  0.53999  Biso   1.000  C
  C885     1.0000 0.99252  0.72806  0.31158  Biso   1.000  C
  C886     1.0000 0.70445  0.99512  0.29072  Biso   1.000  C
  C887     1.0000 0.72808  0.77579  0.01162  Biso   1.000  C
  C888     1.0000 0.47585  0.73419  0.23801  Biso   1.000  C
  C889     1.0000 0.73073  0.95441  0.31368  Biso   1.000  C
  C890     1.0000 0.26016  0.72564  0.99346  Biso   1.000  C
  C891     1.0000 0.01779  0.28128  0.77289  Biso   1.000  C
  C892     1.0000 0.20844  0.97966  0.25997  Biso   1.000  C
  C893     1.0000 0.73599  0.70025  0.54898  Biso   1.000  C
  C894     1.0000 0.44930  0.25105  0.80467  Biso   1.000  C
  C895     1.0000 0.74493  0.45849  0.29706  Biso   1.000  C
  C896     1.0000 0.20109  0.22943  0.02895  Biso   1.000  C
  C897     1.0000 0.47072  0.74958  0.74994  Biso   1.000  C
  C898     1.0000 0.21790  0.46644  0.22301  Biso   1.000  C
  C899     1.0000 0.72561  0.19941  0.54929  Biso   1.000  C
  C900     1.0000 0.98153  0.75354  0.80633  Biso   1.000  C
  C901     1.0000 0.26318  0.00747  0.75393  Biso   1.000  C
  C902     1.0000 0.70570  0.24027  0.03079  Biso   1.000  C
  C903     1.0000 0.96183  0.69810  0.28026  Biso   1.000  C
  C904     1.0000 0.73921  0.00967  0.81044  Biso   1.000  C
  C905     1.0000 0.19438  0.24181  0.50694  Biso   1.000  C
  C906     1.0000 0.45489  0.69957  0.27314  Biso   1.000  C
  C907     1.0000 0.21671  0.51325  0.75289  Biso   1.000  C
  C908     1.0000 0.75499  0.74664  0.04613  Biso   1.000  C
  C909     1.0000 0.46518  0.23041  0.30777  Biso   1.000  C
  C910     1.0000 0.73789  0.48678  0.81970  Biso   1.000  C
  C911     1.0000 0.26451  0.74114  0.52279  Biso   1.000  C
  C912     1.0000 0.96026  0.22494  0.23279  Biso   1.000  C
  C913     1.0000 0.75400  0.47179  0.76993  Biso   1.000  C
  C914     1.0000 0.72036  0.74810  0.53452  Biso   1.000  C
  C915     1.0000 0.49212  0.72872  0.79253  Biso   1.000  C
  C916     1.0000 0.26282  0.48994  0.76576  Biso   1.000  C
  C917     1.0000 0.21010  0.74194  0.00081  Biso   1.000  C
  C918     1.0000 0.97356  0.73391  0.75644  Biso   1.000  C
  C919     1.0000 0.71908  0.98692  0.76782  Biso   1.000  C
  C920     1.0000 0.74471  0.24738  0.53391  Biso   1.000  C
  C921     1.0000 0.00203  0.23583  0.79244  Biso   1.000  C
  C922     1.0000 0.21700  0.99018  0.77413  Biso   1.000  C
  C923     1.0000 0.25117  0.24647  0.03795  Biso   1.000  C
  C924     1.0000 0.46952  0.22922  0.75997  Biso   1.000  C
  C925     1.0000 0.20135  0.48277  0.27237  Biso   1.000  C
  C926     1.0000 0.24638  0.22786  0.51911  Biso   1.000  C
  C927     1.0000 0.48033  0.25271  0.26096  Biso   1.000  C
  C928     1.0000 0.70413  0.48362  0.27396  Biso   1.000  C
  C929     1.0000 0.75098  0.22198  0.04798  Biso   1.000  C
  C930     1.0000 0.97094  0.24467  0.28369  Biso   1.000  C
  C931     1.0000 0.25744  0.99622  0.27412  Biso   1.000  C
  C932     1.0000 0.21840  0.72749  0.53708  Biso   1.000  C
  C933     1.0000 0.97971  0.74483  0.26225  Biso   1.000  C
  C934     1.0000 0.75229  0.97916  0.27101  Biso   1.000  C
  C935     1.0000 0.70747  0.72642  0.02745  Biso   1.000  C
  C936     1.0000 0.47149  0.74839  0.28995  Biso   1.000  C
  C937     1.0000 0.73005  0.24504  0.04764  Biso   1.000  C
  C938     1.0000 0.97807  0.72275  0.28525  Biso   1.000  C
  C939     1.0000 0.23834  0.98942  0.75045  Biso   1.000  C
  C940     1.0000 0.22105  0.24820  0.52120  Biso   1.000  C
  C941     1.0000 0.46640  0.72734  0.26575  Biso   1.000  C
  C942     1.0000 0.74315  0.99013  0.78811  Biso   1.000  C
  C943     1.0000 0.73092  0.74960  0.02844  Biso   1.000  C
  C944     1.0000 0.48002  0.22754  0.28095  Biso   1.000  C
  C945     1.0000 0.23980  0.49646  0.74399  Biso   1.000  C
  C946     1.0000 0.23958  0.75049  0.53500  Biso   1.000  C
  C947     1.0000 0.97287  0.22335  0.26048  Biso   1.000  C
  C948     1.0000 0.73243  0.47268  0.79322  Biso   1.000  C
  C949     1.0000 0.23329  0.71943  0.00332  Biso   1.000  C
  C950     1.0000 0.00358  0.25512  0.76723  Biso   1.000  C
  C951     1.0000 0.72868  0.97538  0.29213  Biso   1.000  C
  C952     1.0000 0.74263  0.72647  0.53669  Biso   1.000  C
  C953     1.0000 0.46876  0.25277  0.78178  Biso   1.000  C
  C954     1.0000 0.23330  0.99557  0.25336  Biso   1.000  C
  C955     1.0000 0.22940  0.22354  0.03754  Biso   1.000  C
  C956     1.0000 0.49122  0.75192  0.77138  Biso   1.000  C
  C957     1.0000 0.72749  0.48306  0.29650  Biso   1.000  C
  C958     1.0000 0.72314  0.22393  0.53266  Biso   1.000  C
  C959     1.0000 0.97080  0.75794  0.77819  Biso   1.000  C
  C960     1.0000 0.22191  0.48530  0.24821  Biso   1.000  C
  Cu1      1.0000 0.99384  0.49219  0.67833  Biso   1.000  Cu
  Cu2      1.0000 0.63644  0.98689  0.53089  Biso   1.000  Cu
  Cu3      1.0000 0.47298  0.63583  0.02643  Biso   1.000  Cu
  Cu4      1.0000 0.49169  0.48717  0.87202  Biso   1.000  Cu
  Cu5      1.0000 0.13724  0.98350  0.01557  Biso   1.000  Cu
  Cu6      1.0000 0.97796  0.64105  0.52534  Biso   1.000  Cu
  Cu7      1.0000 0.47869  0.98473  0.68212  Biso   1.000  Cu
  Cu8      1.0000 0.83017  0.49049  0.52715  Biso   1.000  Cu
  Cu9      1.0000 0.99500  0.14073  0.02521  Biso   1.000  Cu
  Cu10     1.0000 0.98462  0.99972  0.86716  Biso   1.000  Cu
  Cu11     1.0000 0.33023  0.48611  0.01657  Biso   1.000  Cu
  Cu12     1.0000 0.48332  0.14290  0.52178  Biso   1.000  Cu
  Cu13     1.0000 0.96742  0.48111  0.36762  Biso   1.000  Cu
  Cu14     1.0000 0.33488  0.98611  0.51592  Biso   1.000  Cu
  Cu15     1.0000 0.49311  0.33177  0.02524  Biso   1.000  Cu
  Cu16     1.0000 0.46597  0.49224  0.17951  Biso   1.000  Cu
  Cu17     1.0000 0.82891  0.98502  0.02753  Biso   1.000  Cu
  Cu18     1.0000 0.98065  0.33453  0.52833  Biso   1.000  Cu
  Cu19     1.0000 0.49377  0.98722  0.36896  Biso   1.000  Cu
  Cu20     1.0000 0.13303  0.48478  0.51377  Biso   1.000  Cu
  Cu21     1.0000 0.97485  0.83861  0.02478  Biso   1.000  Cu
  Cu22     1.0000 0.99243  0.98191  0.18007  Biso   1.000  Cu
  Cu23     1.0000 0.63182  0.48066  0.03452  Biso   1.000  Cu
  Cu24     1.0000 0.48393  0.83267  0.53054  Biso   1.000  Cu
  Cu25     1.0000 0.19189  0.98168  0.01563  Biso   1.000  Cu
  Cu26     1.0000 0.99557  0.19523  0.02959  Biso   1.000  Cu
  Cu27     1.0000 0.99480  0.98336  0.23450  Biso   1.000  Cu
  Cu28     1.0000 0.69157  0.98740  0.53222  Biso   1.000  Cu
  Cu29     1.0000 0.48402  0.19852  0.52055  Biso   1.000  Cu
  Cu30     1.0000 0.49385  0.98407  0.31484  Biso   1.000  Cu
  Cu31     1.0000 0.27687  0.48309  0.01290  Biso   1.000  Cu
  Cu32     1.0000 0.47411  0.69021  0.02479  Biso   1.000  Cu
  Cu33     1.0000 0.46363  0.48800  0.23297  Biso   1.000  Cu
  Cu34     1.0000 0.77651  0.48653  0.53428  Biso   1.000  Cu
  Cu35     1.0000 0.98007  0.69387  0.52525  Biso   1.000  Cu
  Cu36     1.0000 0.96361  0.48093  0.31471  Biso   1.000  Cu
  Cu37     1.0000 0.77459  0.98849  0.02950  Biso   1.000  Cu
  Cu38     1.0000 0.97624  0.78377  0.01889  Biso   1.000  Cu
  Cu39     1.0000 0.98122  0.99754  0.81372  Biso   1.000  Cu
  Cu40     1.0000 0.28023  0.98569  0.51543  Biso   1.000  Cu
  Cu41     1.0000 0.48188  0.77891  0.53103  Biso   1.000  Cu
  Cu42     1.0000 0.47735  0.99023  0.73613  Biso   1.000  Cu
  Cu43     1.0000 0.68672  0.48313  0.03891  Biso   1.000  Cu
  Cu44     1.0000 0.48991  0.27718  0.02372  Biso   1.000  Cu
  Cu45     1.0000 0.49589  0.48636  0.81553  Biso   1.000  Cu
  Cu46     1.0000 0.18653  0.48473  0.50979  Biso   1.000  Cu
  Cu47     1.0000 0.97943  0.27948  0.52757  Biso   1.000  Cu
  Cu48     1.0000 0.99608  0.49210  0.73270  Biso   1.000  Cu
  H1       1.0000 0.21362  0.78408  0.54961  Biso   1.000  H
  H2       1.0000 0.50187  0.28094  0.76161  Biso   1.000  H
  H3       1.0000 0.71675  0.52623  0.31262  Biso   1.000  H
  H4       1.0000 0.70974  0.77977  0.99828  Biso   1.000  H
  H5       1.0000 0.97678  0.22620  0.73917  Biso   1.000  H
  H6       1.0000 0.25374  0.51373  0.27222  Biso   1.000  H
  H7       1.0000 0.24684  0.28344  0.54394  Biso   1.000  H
  H8       1.0000 0.95893  0.79281  0.74994  Biso   1.000  H
  H9       1.0000 0.70154  0.00917  0.27197  Biso   1.000  H
  H10      1.0000 0.75017  0.27213  0.08158  Biso   1.000  H
  H11      1.0000 0.52658  0.77337  0.79335  Biso   1.000  H
  H12      1.0000 0.25828  0.01397  0.21651  Biso   1.000  H
  H13      1.0000 0.69591  0.24922  0.50311  Biso   1.000  H
  H14      1.0000 0.48318  0.75658  0.23233  Biso   1.000  H
  H15      1.0000 0.25637  0.46265  0.71418  Biso   1.000  H
  H16      1.0000 0.26051  0.19173  0.05183  Biso   1.000  H
  H17      1.0000 0.00093  0.74812  0.31937  Biso   1.000  H
  H18      1.0000 0.70251  0.45429  0.76539  Biso   1.000  H
  H19      1.0000 0.77406  0.75348  0.51680  Biso   1.000  H
  H20      1.0000 0.99923  0.20093  0.28907  Biso   1.000  H
  H21      1.0000 0.21606  0.95628  0.72765  Biso   1.000  H
  H22      1.0000 0.20366  0.68563  0.02124  Biso   1.000  H
  H23      1.0000 0.51026  0.19843  0.25694  Biso   1.000  H
  H24      1.0000 0.77443  0.96268  0.76426  Biso   1.000  H
  H25      1.0000 0.24680  0.00704  0.80660  Biso   1.000  H
  H26      1.0000 0.78124  0.24945  0.07299  Biso   1.000  H
  H27      1.0000 0.93988  0.73196  0.24046  Biso   1.000  H
  H28      1.0000 0.74356  0.95514  0.73829  Biso   1.000  H
  H29      1.0000 0.22209  0.19679  0.49190  Biso   1.000  H
  H30      1.0000 0.50206  0.77666  0.26456  Biso   1.000  H
  H31      1.0000 0.28331  0.52896  0.75455  Biso   1.000  H
  H32      1.0000 0.73664  0.69665  0.04636  Biso   1.000  H
  H33      1.0000 0.43931  0.27367  0.27322  Biso   1.000  H
  H34      1.0000 0.72623  0.49694  0.74187  Biso   1.000  H
  H35      1.0000 0.18644  0.75137  0.51282  Biso   1.000  H
  H36      1.0000 0.94326  0.21944  0.31139  Biso   1.000  H
  H37      1.0000 0.78289  0.95930  0.29891  Biso   1.000  H
  H38      1.0000 0.23523  0.77477  0.97766  Biso   1.000  H
  H39      1.0000 0.98585  0.26772  0.82162  Biso   1.000  H
  H40      1.0000 0.28563  0.96935  0.24928  Biso   1.000  H
  H41      1.0000 0.74303  0.77758  0.56644  Biso   1.000  H
  H42      1.0000 0.44254  0.19673  0.78368  Biso   1.000  H
  H43      1.0000 0.68270  0.44957  0.29685  Biso   1.000  H
  H44      1.0000 0.23342  0.27132  0.99919  Biso   1.000  H
  H45      1.0000 0.47559  0.69490  0.76071  Biso   1.000  H
  H46      1.0000 0.22851  0.45968  0.30496  Biso   1.000  H
  H47      1.0000 0.72391  0.26966  0.56844  Biso   1.000  H
  H48      1.0000 0.01071  0.71560  0.77957  Biso   1.000  H
  H49      1.0000 0.17010  0.50576  0.24565  Biso   1.000  H
  H50      1.0000 0.27440  0.25189  0.54852  Biso   1.000  H
  H51      1.0000 0.52169  0.23838  0.24678  Biso   1.000  H
  H52      1.0000 0.72275  0.51947  0.24924  Biso   1.000  H
  H53      1.0000 0.72937  0.19179  0.01981  Biso   1.000  H
  H54      1.0000 0.00016  0.27287  0.26090  Biso   1.000  H
  H55      1.0000 0.23309  0.02219  0.30613  Biso   1.000  H
  H56      1.0000 0.24368  0.70084  0.56446  Biso   1.000  H
  H57      1.0000 0.02174  0.75886  0.27627  Biso   1.000  H
  H58      1.0000 0.72760  0.00428  0.23864  Biso   1.000  H
  H59      1.0000 0.67604  0.74938  0.99804  Biso   1.000  H
  H60      1.0000 0.43974  0.72894  0.31894  Biso   1.000  H
  H61      1.0000 0.78233  0.44200  0.79187  Biso   1.000  H
  H62      1.0000 0.69620  0.72316  0.50278  Biso   1.000  H
  H63      1.0000 0.50906  0.75752  0.82786  Biso   1.000  H
  H64      1.0000 0.24091  0.45372  0.78427  Biso   1.000  H
  H65      1.0000 0.17866  0.71677  0.02519  Biso   1.000  H
  H66      1.0000 0.94121  0.75356  0.72656  Biso   1.000  H
  H67      1.0000 0.68705  0.00666  0.79584  Biso   1.000  H
  H68      1.0000 0.77152  0.22338  0.50829  Biso   1.000  H
  H69      1.0000 0.02213  0.20495  0.76552  Biso   1.000  H
  H70      1.0000 0.18255  0.97216  0.74707  Biso   1.000  H
  H71      1.0000 0.27710  0.22759  0.07402  Biso   1.000  H
  H72      1.0000 0.49380  0.25420  0.72952  Biso   1.000  H
  H73      1.0000 0.75771  0.49677  0.82539  Biso   1.000  H
  H74      1.0000 0.71387  0.69825  0.55583  Biso   1.000  H
  H75      1.0000 0.45317  0.73281  0.74845  Biso   1.000  H
  H76      1.0000 0.21969  0.52443  0.77385  Biso   1.000  H
  H77      1.0000 0.26510  0.74652  0.98469  Biso   1.000  H
  H78      1.0000 0.98565  0.73127  0.81228  Biso   1.000  H
  H79      1.0000 0.72093  0.02471  0.81016  Biso   1.000  H
  H80      1.0000 0.74568  0.19693  0.56035  Biso   1.000  H
  H81      1.0000 0.02641  0.28820  0.79421  Biso   1.000  H
  H82      1.0000 0.26474  0.02615  0.76819  Biso   1.000  H
  H83      1.0000 0.19587  0.25021  0.02225  Biso   1.000  H
  H84      1.0000 0.43638  0.23064  0.80838  Biso   1.000  H
  H85      1.0000 0.19869  0.45320  0.22150  Biso   1.000  H
  H86      1.0000 0.18895  0.22102  0.49768  Biso   1.000  H
  H87      1.0000 0.45195  0.24833  0.31398  Biso   1.000  H
  H88      1.0000 0.73927  0.44055  0.28269  Biso   1.000  H
  H89      1.0000 0.70504  0.22419  0.01309  Biso   1.000  H
  H90      1.0000 0.94693  0.24160  0.22705  Biso   1.000  H
  H91      1.0000 0.20672  0.97448  0.28273  Biso   1.000  H
  H92      1.0000 0.26628  0.71772  0.51791  Biso   1.000  H
  H93      1.0000 0.95061  0.69677  0.25884  Biso   1.000  H
  H94      1.0000 0.74688  0.93726  0.31113  Biso   1.000  H
  H95      1.0000 0.75936  0.72845  0.06026  Biso   1.000  H
  H96      1.0000 0.44801  0.69441  0.29608  Biso   1.000  H
  H97      1.0000 0.84966  0.99527  0.93507  Biso   1.000  H
  H98      1.0000 0.88012  0.85633  0.02924  Biso   1.000  H
  H99      1.0000 0.98002  0.90824  0.88532  Biso   1.000  H
  H100     1.0000 0.35117  0.97563  0.60881  Biso   1.000  H
  H101     1.0000 0.38808  0.85412  0.52375  Biso   1.000  H
  H102     1.0000 0.48589  0.89658  0.66421  Biso   1.000  H
  H103     1.0000 0.62264  0.47978  0.94126  Biso   1.000  H
  H104     1.0000 0.58392  0.35004  0.01884  Biso   1.000  H
  H105     1.0000 0.48333  0.39552  0.89380  Biso   1.000  H
  H106     1.0000 0.12239  0.48081  0.60705  Biso   1.000  H
  H107     1.0000 0.07236  0.35091  0.51317  Biso   1.000  H
  H108     1.0000 0.99918  0.39810  0.65790  Biso   1.000  H
  H109     1.0000 0.11677  0.98533  0.11080  Biso   1.000  H
  H110     1.0000 0.08189  0.11642  0.02551  Biso   1.000  H
  H111     1.0000 0.99051  0.07291  0.15731  Biso   1.000  H
  H112     1.0000 0.61851  0.96969  0.43622  Biso   1.000  H
  H113     1.0000 0.57115  0.12095  0.52637  Biso   1.000  H
  H114     1.0000 0.49784  0.08213  0.38819  Biso   1.000  H
  H115     1.0000 0.34292  0.47925  0.10881  Biso   1.000  H
  H116     1.0000 0.38433  0.62006  0.01568  Biso   1.000  H
  H117     1.0000 0.48535  0.57510  0.16523  Biso   1.000  H
  H118     1.0000 0.83987  0.48792  0.43937  Biso   1.000  H
  H119     1.0000 0.88925  0.62023  0.53996  Biso   1.000  H
  H120     1.0000 0.96582  0.57094  0.38742  Biso   1.000  H
  H121     1.0000 0.07712  0.99561  0.88478  Biso   1.000  H
  H122     1.0000 0.85326  0.07601  0.02169  Biso   1.000  H
  H123     1.0000 0.98706  0.84907  0.11247  Biso   1.000  H
  H124     1.0000 0.56911  0.99713  0.66512  Biso   1.000  H
  H125     1.0000 0.35267  0.07943  0.52103  Biso   1.000  H
  H126     1.0000 0.48467  0.85586  0.43800  Biso   1.000  H
  H127     1.0000 0.39642  0.48544  0.88685  Biso   1.000  H
  H128     1.0000 0.61030  0.57305  0.04134  Biso   1.000  H
  H129     1.0000 0.49170  0.35246  0.11078  Biso   1.000  H
  H130     1.0000 0.90146  0.49124  0.66178  Biso   1.000  H
  H131     1.0000 0.11314  0.57621  0.52930  Biso   1.000  H
  H132     1.0000 0.96892  0.35059  0.43535  Biso   1.000  H
  H133     1.0000 0.89977  0.98751  0.16072  Biso   1.000  H
  H134     1.0000 0.11299  0.89735  0.01850  Biso   1.000  H
  H135     1.0000 0.98611  0.12912  0.93001  Biso   1.000  H
  H136     1.0000 0.40278  0.99298  0.38869  Biso   1.000  H
  H137     1.0000 0.61576  0.89375  0.53296  Biso   1.000  H
  H138     1.0000 0.47352  0.12601  0.61063  Biso   1.000  H
  H139     1.0000 0.55634  0.48088  0.16601  Biso   1.000  H
  H140     1.0000 0.35610  0.39621  0.01573  Biso   1.000  H
  H141     1.0000 0.48784  0.61534  0.92988  Biso   1.000  H
  H142     1.0000 0.05621  0.47804  0.38168  Biso   1.000  H
  H143     1.0000 0.84855  0.39800  0.52838  Biso   1.000  H
  H144     1.0000 0.97265  0.62050  0.61702  Biso   1.000  H
  H145     1.0000 0.58298  0.48157  0.89565  Biso   1.000  H
  H146     1.0000 0.84847  0.58052  0.54026  Biso   1.000  H
  H147     1.0000 0.48549  0.85352  0.62326  Biso   1.000  H
  H148     1.0000 0.08236  0.48469  0.64952  Biso   1.000  H
  H149     1.0000 0.34652  0.57778  0.00664  Biso   1.000  H
  H150     1.0000 0.97845  0.86624  0.93156  Biso   1.000  H
  H151     1.0000 0.89268  0.99461  0.89142  Biso   1.000  H
  H152     1.0000 0.61512  0.07572  0.52912  Biso   1.000  H
  H153     1.0000 0.99370  0.35679  0.61677  Biso   1.000  H
  H154     1.0000 0.38984  0.97509  0.65598  Biso   1.000  H
  H155     1.0000 0.12159  0.08042  0.01337  Biso   1.000  H
  H156     1.0000 0.48010  0.35624  0.93187  Biso   1.000  H
  H157     1.0000 0.37478  0.48929  0.15137  Biso   1.000  H
  H158     1.0000 0.11333  0.39502  0.51172  Biso   1.000  H
  H159     1.0000 0.49577  0.12060  0.42971  Biso   1.000  H
  H160     1.0000 0.87784  0.47522  0.39681  Biso   1.000  H
  H161     1.0000 0.61777  0.38916  0.03490  Biso   1.000  H
  H162     1.0000 0.98831  0.11517  0.11381  Biso   1.000  H
  H163     1.0000 0.07744  0.97813  0.15709  Biso   1.000  H
  H164     1.0000 0.35125  0.89232  0.51805  Biso   1.000  H
  H165     1.0000 0.97252  0.61696  0.43732  Biso   1.000  H
  H166     1.0000 0.57999  0.97219  0.39244  Biso   1.000  H
  H167     1.0000 0.84062  0.89389  0.02132  Biso   1.000  H
  H168     1.0000 0.47694  0.61928  0.11814  Biso   1.000  H
  H169     1.0000 0.98244  0.08816  0.89678  Biso   1.000  H
  H170     1.0000 0.85878  0.98568  0.11944  Biso   1.000  H
  H171     1.0000 0.06841  0.85463  0.02433  Biso   1.000  H
  H172     1.0000 0.46881  0.07905  0.65262  Biso   1.000  H
  H173     1.0000 0.35870  0.98872  0.42547  Biso   1.000  H
  H174     1.0000 0.57427  0.85140  0.52672  Biso   1.000  H
  H175     1.0000 0.48919  0.57651  0.88775  Biso   1.000  H
  H176     1.0000 0.60589  0.48482  0.12349  Biso   1.000  H
  H177     1.0000 0.39861  0.35632  0.02677  Biso   1.000  H
  H178     1.0000 0.97696  0.57717  0.66211  Biso   1.000  H
  H179     1.0000 0.10192  0.48481  0.42595  Biso   1.000  H
  H180     1.0000 0.89033  0.35513  0.53181  Biso   1.000  H
  H181     1.0000 0.00134  0.88903  0.15771  Biso   1.000  H
  H182     1.0000 0.12019  0.99745  0.92809  Biso   1.000  H
  H183     1.0000 0.90210  0.12027  0.02449  Biso   1.000  H
  H184     1.0000 0.49070  0.89614  0.39547  Biso   1.000  H
  H185     1.0000 0.61254  0.99624  0.61959  Biso   1.000  H
  H186     1.0000 0.39378  0.12087  0.51200  Biso   1.000  H
  H187     1.0000 0.46795  0.39956  0.15008  Biso   1.000  H
  H188     1.0000 0.35596  0.47848  0.92171  Biso   1.000  H
  H189     1.0000 0.56180  0.61493  0.03855  Biso   1.000  H
  H190     1.0000 0.97075  0.39178  0.39232  Biso   1.000  H
  H191     1.0000 0.86108  0.49368  0.62436  Biso   1.000  H
  H192     1.0000 0.07133  0.61936  0.52962  Biso   1.000  H
  H193     1.0000 0.25032  0.84799  0.51698  Biso   1.000  H
  H194     1.0000 0.47412  0.25663  0.88057  Biso   1.000  H
  H195     1.0000 0.81668  0.47402  0.30623  Biso   1.000  H
  H196     1.0000 0.74119  0.84489  0.02873  Biso   1.000  H
  H197     1.0000 0.00885  0.26140  0.67072  Biso   1.000  H
  H198     1.0000 0.31877  0.47976  0.24596  Biso   1.000  H
  H199     1.0000 0.20805  0.34199  0.50850  Biso   1.000  H
  H200     1.0000 0.96568  0.76907  0.87645  Biso   1.000  H
  H201     1.0000 0.64011  0.96450  0.30022  Biso   1.000  H
  H202     1.0000 0.71416  0.34408  0.06451  Biso   1.000  H
  H203     1.0000 0.49372  0.75870  0.68040  Biso   1.000  H
  H204     1.0000 0.14104  0.99865  0.24608  Biso   1.000  H
  H205     1.0000 0.70911  0.13472  0.52484  Biso   1.000  H
  H206     1.0000 0.45447  0.71327  0.17369  Biso   1.000  H
  H207     1.0000 0.14253  0.49417  0.74627  Biso   1.000  H
  H208     1.0000 0.22201  0.12264  0.03086  Biso   1.000  H
  H209     1.0000 0.97617  0.71275  0.38122  Biso   1.000  H
  H210     1.0000 0.64015  0.48156  0.80047  Biso   1.000  H
  H211     1.0000 0.74868  0.62730  0.52917  Biso   1.000  H
  H212     1.0000 0.00066  0.20977  0.17085  Biso   1.000  H
  H213     1.0000 0.33017  0.98693  0.74836  Biso   1.000  H
  H214     1.0000 0.24533  0.62093  0.99816  Biso   1.000  H
  H215     1.0000 0.49042  0.22046  0.38066  Biso   1.000  H
  H216     1.0000 0.84130  0.00468  0.79313  Biso   1.000  H
  H217     1.0000 0.19504  0.48740  0.36617  Biso   1.000  H
  H218     1.0000 0.33952  0.21775  0.51425  Biso   1.000  H
  H219     1.0000 0.46372  0.34545  0.24651  Biso   1.000  H
  H220     1.0000 0.69357  0.47929  0.19070  Biso   1.000  H
  H221     1.0000 0.85025  0.21418  0.03751  Biso   1.000  H
  H222     1.0000 0.97060  0.33304  0.29505  Biso   1.000  H
  H223     1.0000 0.26565  0.97949  0.36725  Biso   1.000  H
  H224     1.0000 0.12712  0.71140  0.54674  Biso   1.000  H
  H225     1.0000 0.00020  0.83365  0.25359  Biso   1.000  H
  H226     1.0000 0.76470  0.97392  0.17755  Biso   1.000  H
  H227     1.0000 0.61565  0.71187  0.03486  Biso   1.000  H
  H228     1.0000 0.47470  0.84120  0.29950  Biso   1.000  H
  H229     1.0000 0.76331  0.47651  0.67717  Biso   1.000  H
  H230     1.0000 0.62558  0.75562  0.52528  Biso   1.000  H
  H231     1.0000 0.50531  0.63291  0.79546  Biso   1.000  H
  H232     1.0000 0.26017  0.48969  0.86665  Biso   1.000  H
  H233     1.0000 0.11219  0.75604  0.00538  Biso   1.000  H
  H234     1.0000 0.97447  0.63790  0.75709  Biso   1.000  H
  H235     1.0000 0.70840  0.99173  0.67470  Biso   1.000  H
  H236     1.0000 0.83849  0.25957  0.54866  Biso   1.000  H
  H237     1.0000 0.97355  0.14389  0.79651  Biso   1.000  H
  H238     1.0000 0.20705  0.97388  0.86546  Biso   1.000  H
  H239     1.0000 0.34906  0.25657  0.04533  Biso   1.000  H
  H240     1.0000 0.46991  0.13233  0.75080  Biso   1.000  H
  H241     1.0000 0.72125  0.46689  0.89504  Biso   1.000  H
  H242     1.0000 0.83817  0.71885  0.54232  Biso   1.000  H
  H243     1.0000 0.48204  0.84268  0.76214  Biso   1.000  H
  H244     1.0000 0.21880  0.50687  0.65522  Biso   1.000  H
  H245     1.0000 0.32604  0.71306  0.02299  Biso   1.000  H
  H246     1.0000 0.99806  0.85343  0.79143  Biso   1.000  H
  H247     1.0000 0.75453  0.98798  0.88032  Biso   1.000  H
  H248     1.0000 0.62486  0.21612  0.54775  Biso   1.000  H
  H249     1.0000 0.99639  0.34952  0.75686  Biso   1.000  H
  H250     1.0000 0.25500  0.98454  0.65990  Biso   1.000  H
  H251     1.0000 0.13623  0.21108  0.04603  Biso   1.000  H
  H252     1.0000 0.47342  0.34517  0.79617  Biso   1.000  H
  H253     1.0000 0.23997  0.47583  0.15068  Biso   1.000  H
  H254     1.0000 0.12116  0.25439  0.53209  Biso   1.000  H
  H255     1.0000 0.49591  0.12897  0.29024  Biso   1.000  H
  H256     1.0000 0.74058  0.50210  0.39281  Biso   1.000  H
  H257     1.0000 0.63476  0.25261  0.03923  Biso   1.000  H
  H258     1.0000 0.97799  0.12651  0.25339  Biso   1.000  H
  H259     1.0000 0.21900  0.98144  0.15700  Biso   1.000  H
  H260     1.0000 0.33661  0.75654  0.53571  Biso   1.000  H
  H261     1.0000 0.97884  0.62557  0.29372  Biso   1.000  H
  H262     1.0000 0.71800  0.95980  0.39099  Biso   1.000  H
  H263     1.0000 0.83030  0.75801  0.02701  Biso   1.000  H
  H264     1.0000 0.48493  0.63383  0.25727  Biso   1.000  H
  H265     1.0000 0.01006  0.22586  0.89015  Biso   1.000  H
  H266     1.0000 0.84893  0.98795  0.25789  Biso   1.000  H
  H267     1.0000 0.20396  0.83363  0.01542  Biso   1.000  H
  H268     1.0000 0.45899  0.21758  0.66838  Biso   1.000  H
  H269     1.0000 0.35243  0.99815  0.28874  Biso   1.000  H
  H270     1.0000 0.71380  0.84121  0.53617  Biso   1.000  H
  H271     1.0000 0.47803  0.71414  0.88231  Biso   1.000  H
  H272     1.0000 0.60481  0.47933  0.26511  Biso   1.000  H
  H273     1.0000 0.26117  0.33828  0.03345  Biso   1.000  H
  H274     1.0000 0.98501  0.71717  0.67058  Biso   1.000  H
  H275     1.0000 0.10038  0.48279  0.28273  Biso   1.000  H
  H276     1.0000 0.75402  0.34430  0.52952  Biso   1.000  H
  H277     1.0000 0.97696  0.75271  0.16335  Biso   1.000  H
  H278     1.0000 0.12093  0.00917  0.78275  Biso   1.000  H
  H279     1.0000 0.76604  0.13106  0.05193  Biso   1.000  H
  H280     1.0000 0.48874  0.75810  0.38584  Biso   1.000  H
  H281     1.0000 0.61977  0.97292  0.76064  Biso   1.000  H
  H282     1.0000 0.25617  0.12942  0.52221  Biso   1.000  H
  H283     1.0000 0.49941  0.26287  0.17277  Biso   1.000  H
  H284     1.0000 0.35115  0.47452  0.78425  Biso   1.000  H
  H285     1.0000 0.69969  0.62944  0.01188  Biso   1.000  H
  H286     1.0000 0.97789  0.25344  0.38423  Biso   1.000  H
  H287     1.0000 0.85395  0.48553  0.76200  Biso   1.000  H
  H288     1.0000 0.20987  0.62638  0.53291  Biso   1.000  H
  H289     1.0000 0.08206  0.21017  0.04206  Biso   1.000  H
  H290     1.0000 0.98288  0.07232  0.25341  Biso   1.000  H
  H291     1.0000 0.21391  0.97992  0.10286  Biso   1.000  H
  H292     1.0000 0.57287  0.21609  0.54839  Biso   1.000  H
  H293     1.0000 0.49753  0.07822  0.29015  Biso   1.000  H
  H294     1.0000 0.71370  0.97245  0.44385  Biso   1.000  H
  H295     1.0000 0.38345  0.71388  0.02514  Biso   1.000  H
  H296     1.0000 0.48696  0.58145  0.26154  Biso   1.000  H
  H297     1.0000 0.24606  0.47608  0.09927  Biso   1.000  H
  H298     1.0000 0.89009  0.71780  0.52898  Biso   1.000  H
  H299     1.0000 0.97208  0.57455  0.29165  Biso   1.000  H
  H300     1.0000 0.74821  0.51141  0.44512  Biso   1.000  H
  H301     1.0000 0.88853  0.76271  0.02457  Biso   1.000  H
  H302     1.0000 0.00251  0.90699  0.79202  Biso   1.000  H
  H303     1.0000 0.75597  0.99194  0.93490  Biso   1.000  H
  H304     1.0000 0.39074  0.75704  0.53443  Biso   1.000  H
  H305     1.0000 0.47816  0.89817  0.75878  Biso   1.000  H
  H306     1.0000 0.25591  0.97393  0.60220  Biso   1.000  H
  H307     1.0000 0.58044  0.25548  0.02550  Biso   1.000  H
  H308     1.0000 0.47617  0.39897  0.79828  Biso   1.000  H
  H309     1.0000 0.71427  0.47330  0.94834  Biso   1.000  H
  H310     1.0000 0.06782  0.25553  0.53072  Biso   1.000  H
  H311     1.0000 0.99382  0.40335  0.75407  Biso   1.000  H
  H312     1.0000 0.21534  0.49655  0.60014  Biso   1.000  H
  H313     1.0000 0.21201  0.97334  0.91755  Biso   1.000  H
  H314     1.0000 0.90350  0.21550  0.03066  Biso   1.000  H
  H315     1.0000 0.00344  0.88728  0.25421  Biso   1.000  H
  H316     1.0000 0.70771  0.99703  0.62028  Biso   1.000  H
  H317     1.0000 0.39657  0.21731  0.51652  Biso   1.000  H
  H318     1.0000 0.47478  0.89498  0.29756  Biso   1.000  H
  H319     1.0000 0.26062  0.49047  0.92189  Biso   1.000  H
  H320     1.0000 0.56351  0.70893  0.04189  Biso   1.000  H
  H321     1.0000 0.45651  0.40131  0.24389  Biso   1.000  H
  H322     1.0000 0.76223  0.47861  0.62287  Biso   1.000  H
  H323     1.0000 0.07131  0.71334  0.54219  Biso   1.000  H
  H324     1.0000 0.96562  0.38884  0.29602  Biso   1.000  H
  H325     1.0000 0.76401  0.97571  0.12128  Biso   1.000  H
  H326     1.0000 0.05925  0.76366  0.00474  Biso   1.000  H
  H327     1.0000 0.95956  0.09413  0.79951  Biso   1.000  H
  H328     1.0000 0.26330  0.97999  0.42142  Biso   1.000  H
  H329     1.0000 0.57183  0.75491  0.52590  Biso   1.000  H
  H330     1.0000 0.47567  0.07542  0.74509  Biso   1.000  H
  H331     1.0000 0.70095  0.47555  0.13424  Biso   1.000  H
  H332     1.0000 0.40635  0.26244  0.04190  Biso   1.000  H
  H333     1.0000 0.50254  0.57871  0.79231  Biso   1.000  H
  H334     1.0000 0.19566  0.49445  0.41963  Biso   1.000  H
  H335     1.0000 0.89481  0.26102  0.55092  Biso   1.000  H
  H336     1.0000 0.97420  0.58285  0.75783  Biso   1.000  H
  H337     1.0000 0.01075  0.22111  0.94551  Biso   1.000  H
  H338     1.0000 0.90164  0.98444  0.26078  Biso   1.000  H
  H339     1.0000 0.20829  0.88979  0.01435  Biso   1.000  H
  H340     1.0000 0.46110  0.22191  0.61303  Biso   1.000  H
  H341     1.0000 0.40575  0.99619  0.29029  Biso   1.000  H
  H342     1.0000 0.71375  0.89659  0.53672  Biso   1.000  H
  H343     1.0000 0.46991  0.70878  0.93914  Biso   1.000  H
  H344     1.0000 0.55189  0.48268  0.26161  Biso   1.000  H
  H345     1.0000 0.26245  0.39109  0.02630  Biso   1.000  H
  H346     1.0000 0.98063  0.71636  0.61383  Biso   1.000  H
  H347     1.0000 0.04909  0.48318  0.28795  Biso   1.000  H
  H348     1.0000 0.75552  0.39800  0.53081  Biso   1.000  H
  H349     1.0000 0.96627  0.75398  0.10960  Biso   1.000  H
  H350     1.0000 0.07138  0.01195  0.78665  Biso   1.000  H
  H351     1.0000 0.76362  0.07475  0.04721  Biso   1.000  H
  H352     1.0000 0.49070  0.76077  0.43989  Biso   1.000  H
  H353     1.0000 0.56831  0.97912  0.75947  Biso   1.000  H
  H354     1.0000 0.25846  0.07538  0.52637  Biso   1.000  H
  H355     1.0000 0.51069  0.25939  0.11579  Biso   1.000  H
  H356     1.0000 0.40397  0.47788  0.78983  Biso   1.000  H
  H357     1.0000 0.70162  0.57591  0.02233  Biso   1.000  H
  H358     1.0000 0.97251  0.25773  0.43881  Biso   1.000  H
  H359     1.0000 0.90691  0.49312  0.75649  Biso   1.000  H
  H360     1.0000 0.20760  0.57233  0.52499  Biso   1.000  H
  H361     1.0000 0.97913  0.71432  0.43306  Biso   1.000  H
  H362     1.0000 0.38659  0.98737  0.75128  Biso   1.000  H
  H363     1.0000 0.70754  0.39809  0.06834  Biso   1.000  H
  H364     1.0000 0.45316  0.71066  0.11833  Biso   1.000  H
  H365     1.0000 0.89287  0.00548  0.79439  Biso   1.000  H
  H366     1.0000 0.20557  0.39708  0.50557  Biso   1.000  H
  H367     1.0000 0.48870  0.21752  0.43372  Biso   1.000  H
  H368     1.0000 0.08584  0.49251  0.74678  Biso   1.000  H
  H369     1.0000 0.74732  0.89822  0.02651  Biso   1.000  H
  H370     1.0000 0.00077  0.21030  0.11621  Biso   1.000  H
  H371     1.0000 0.58648  0.48614  0.79850  Biso   1.000  H
  H372     1.0000 0.25679  0.90092  0.51141  Biso   1.000  H
  H373     1.0000 0.00333  0.26185  0.61585  Biso   1.000  H
  H374     1.0000 0.58567  0.96988  0.29591  Biso   1.000  H
  H375     1.0000 0.25264  0.56780  0.99370  Biso   1.000  H
  H376     1.0000 0.48035  0.25732  0.93552  Biso   1.000  H
  H377     1.0000 0.08542  0.00374  0.24872  Biso   1.000  H
  H378     1.0000 0.75157  0.57645  0.53277  Biso   1.000  H
  H379     1.0000 0.48941  0.75873  0.62183  Biso   1.000  H
  H380     1.0000 0.87064  0.47206  0.30090  Biso   1.000  H
  H381     1.0000 0.21678  0.06993  0.01810  Biso   1.000  H
  H382     1.0000 0.96262  0.77205  0.93173  Biso   1.000  H
  H383     1.0000 0.37302  0.49476  0.24830  Biso   1.000  H
  H384     1.0000 0.71057  0.07929  0.51869  Biso   1.000  H
  H385     1.0000 0.19133  0.45326  0.33721  Biso   1.000  H
  H386     1.0000 0.26013  0.16297  0.48680  Biso   1.000  H
  H387     1.0000 0.44287  0.30752  0.23842  Biso   1.000  H
  H388     1.0000 0.64294  0.44638  0.25755  Biso   1.000  H
  H389     1.0000 0.82177  0.21303  0.07011  Biso   1.000  H
  H390     1.0000 0.94340  0.25423  0.35169  Biso   1.000  H
  H391     1.0000 0.32398  0.96724  0.28864  Biso   1.000  H
  H392     1.0000 0.15364  0.71042  0.50493  Biso   1.000  H
  H393     1.0000 0.94473  0.76605  0.20039  Biso   1.000  H
  H394     1.0000 0.82132  0.95668  0.26475  Biso   1.000  H
  H395     1.0000 0.70489  0.65650  0.04533  Biso   1.000  H
  H396     1.0000 0.50924  0.80950  0.30401  Biso   1.000  H
  H397     1.0000 0.76409  0.50687  0.70796  Biso   1.000  H
  H398     1.0000 0.70334  0.81105  0.56696  Biso   1.000  H
  H399     1.0000 0.47251  0.65805  0.79530  Biso   1.000  H
  H400     1.0000 0.31902  0.52619  0.79610  Biso   1.000  H
  H401     1.0000 0.20306  0.81120  0.97801  Biso   1.000  H
  H402     1.0000 0.01515  0.67539  0.74538  Biso   1.000  H
  H403     1.0000 0.70399  0.95178  0.70275  Biso   1.000  H
  H404     1.0000 0.75562  0.31218  0.56995  Biso   1.000  H
  H405     1.0000 0.97733  0.23432  0.86098  Biso   1.000  H
  H406     1.0000 0.21209  0.01454  0.84281  Biso   1.000  H
  H407     1.0000 0.27115  0.30409  0.99820  Biso   1.000  H
  H408     1.0000 0.43953  0.16303  0.74529  Biso   1.000  H
  H409     1.0000 0.24169  0.44820  0.18555  Biso   1.000  H
  H410     1.0000 0.15287  0.25662  0.49510  Biso   1.000  H
  H411     1.0000 0.45881  0.21475  0.35055  Biso   1.000  H
  H412     1.0000 0.78105  0.43912  0.31668  Biso   1.000  H
  H413     1.0000 0.67295  0.25795  0.00743  Biso   1.000  H
  H414     1.0000 0.95616  0.20474  0.19000  Biso   1.000  H
  H415     1.0000 0.16667  0.96261  0.24508  Biso   1.000  H
  H416     1.0000 0.30615  0.75319  0.50725  Biso   1.000  H
  H417     1.0000 0.94885  0.65440  0.29130  Biso   1.000  H
  H418     1.0000 0.71196  0.93851  0.35172  Biso   1.000  H
  H419     1.0000 0.79810  0.76486  0.05915  Biso   1.000  H
  H420     1.0000 0.44544  0.65712  0.25813  Biso   1.000  H
  H421     1.0000 0.72559  0.49688  0.86379  Biso   1.000  H
  H422     1.0000 0.75096  0.65783  0.56093  Biso   1.000  H
  H423     1.0000 0.45267  0.76958  0.71308  Biso   1.000  H
  H424     1.0000 0.17382  0.52562  0.73931  Biso   1.000  H
  H425     1.0000 0.30503  0.71266  0.98850  Biso   1.000  H
  H426     1.0000 0.99517  0.76703  0.84752  Biso   1.000  H
  H427     1.0000 0.76052  0.03102  0.84540  Biso   1.000  H
  H428     1.0000 0.70664  0.15981  0.56359  Biso   1.000  H
  H429     1.0000 0.02988  0.32053  0.75403  Biso   1.000  H
  H430     1.0000 0.29944  0.02192  0.73180  Biso   1.000  H
  H431     1.0000 0.16067  0.21344  0.01679  Biso   1.000  H
  H432     1.0000 0.43668  0.26691  0.84679  Biso   1.000  H
  H433     1.0000 0.25248  0.94960  0.69040  Biso   1.000  H
  H434     1.0000 0.71420  0.30567  0.08366  Biso   1.000  H
  H435     1.0000 0.00557  0.70898  0.35087  Biso   1.000  H
  H436     1.0000 0.81258  0.96688  0.79792  Biso   1.000  H
  H437     1.0000 0.20908  0.31712  0.54529  Biso   1.000  H
  H438     1.0000 0.48925  0.71651  0.19569  Biso   1.000  H
  H439     1.0000 0.21387  0.45834  0.68641  Biso   1.000  H
  H440     1.0000 0.74872  0.81493  0.99832  Biso   1.000  H
  H441     1.0000 0.51337  0.16437  0.29303  Biso   1.000  H
  H442     1.0000 0.66589  0.44720  0.80445  Biso   1.000  H
  H443     1.0000 0.25571  0.81925  0.55114  Biso   1.000  H
  H444     1.0000 0.01138  0.16041  0.25477  Biso   1.000  H
  H445     1.0000 0.66418  0.00824  0.31249  Biso   1.000  H
  H446     1.0000 0.23930  0.64970  0.02538  Biso   1.000  H
  H447     1.0000 0.97601  0.26059  0.70031  Biso   1.000  H
  H448     1.0000 0.22324  0.00779  0.18166  Biso   1.000  H
  H449     1.0000 0.80999  0.71574  0.51070  Biso   1.000  H
  H450     1.0000 0.50838  0.31139  0.79976  Biso   1.000  H
  H451     1.0000 0.75439  0.52231  0.35280  Biso   1.000  H
  H452     1.0000 0.22623  0.15405  0.05764  Biso   1.000  H
  H453     1.0000 0.52895  0.81298  0.75409  Biso   1.000  H
  H454     1.0000 0.28959  0.51046  0.23784  Biso   1.000  H
  H455     1.0000 0.65762  0.21240  0.50184  Biso   1.000  H
  H456     1.0000 0.95291  0.82901  0.78950  Biso   1.000  H
  H457     1.0000 0.65861  0.75594  0.49841  Biso   1.000  H
  H458     1.0000 0.51807  0.71574  0.86247  Biso   1.000  H
  H459     1.0000 0.82242  0.45427  0.76012  Biso   1.000  H
  H460     1.0000 0.14495  0.75520  0.03099  Biso   1.000  H
  H461     1.0000 0.94164  0.71124  0.69439  Biso   1.000  H
  H462     1.0000 0.27401  0.45186  0.82832  Biso   1.000  H
  H463     1.0000 0.80940  0.26357  0.50750  Biso   1.000  H
  H464     1.0000 0.01759  0.16559  0.80104  Biso   1.000  H
  H465     1.0000 0.64934  0.00647  0.75932  Biso   1.000  H
  H466     1.0000 0.31531  0.26541  0.07166  Biso   1.000  H
  H467     1.0000 0.49148  0.22076  0.69147  Biso   1.000  H
  H468     1.0000 0.14691  0.97138  0.78561  Biso   1.000  H
  H469     1.0000 0.31160  0.21624  0.54905  Biso   1.000  H
  H470     1.0000 0.52410  0.27345  0.20414  Biso   1.000  H
  H471     1.0000 0.13125  0.50468  0.28031  Biso   1.000  H
  H472     1.0000 0.76559  0.15737  0.01522  Biso   1.000  H
  H473     1.0000 0.00644  0.30766  0.30227  Biso   1.000  H
  H474     1.0000 0.68340  0.52314  0.21634  Biso   1.000  H
  H475     1.0000 0.20726  0.65999  0.56661  Biso   1.000  H
  H476     1.0000 0.02816  0.79485  0.24128  Biso   1.000  H
  H477     1.0000 0.26903  0.02204  0.34372  Biso   1.000  H
  H478     1.0000 0.64024  0.71316  0.00147  Biso   1.000  H
  H479     1.0000 0.44922  0.76479  0.35924  Biso   1.000  H
  H480     1.0000 0.76179  0.00813  0.20426  Biso   1.000  H
  N1       1.0000 0.65766  0.16327  0.53175  Biso   1.000  N
  N2       1.0000 0.46945  0.66278  0.20490  Biso   1.000  N
  N3       1.0000 0.17030  0.49498  0.68949  Biso   1.000  N
  N4       1.0000 0.16956  0.15830  0.03720  Biso   1.000  N
  N5       1.0000 0.97508  0.65867  0.34672  Biso   1.000  N
  N6       1.0000 0.66989  0.47493  0.85617  Biso   1.000  N
  N7       1.0000 0.80401  0.66398  0.53508  Biso   1.000  N
  N8       1.0000 0.98476  0.15820  0.20115  Biso   1.000  N
  N9       1.0000 0.30317  0.98279  0.69165  Biso   1.000  N
  N10      1.0000 0.29564  0.65789  0.01104  Biso   1.000  N
  N11      1.0000 0.49147  0.16444  0.34530  Biso   1.000  N
  N12      1.0000 0.80819  0.99750  0.84696  Biso   1.000  N
  N13      1.0000 0.30261  0.81095  0.52372  Biso   1.000  N
  N14      1.0000 0.47457  0.31105  0.84804  Biso   1.000  N
  N15      1.0000 0.79040  0.47846  0.35881  Biso   1.000  N
  N16      1.0000 0.79697  0.81012  0.02791  Biso   1.000  N
  N17      1.0000 0.00138  0.31413  0.70384  Biso   1.000  N
  N18      1.0000 0.28933  0.47988  0.19012  Biso   1.000  N
  N19      1.0000 0.15585  0.30851  0.51832  Biso   1.000  N
  N20      1.0000 0.97719  0.82250  0.84389  Biso   1.000  N
  N21      1.0000 0.66786  0.97079  0.35510  Biso   1.000  N
  N22      1.0000 0.66658  0.30796  0.04152  Biso   1.000  N
  N23      1.0000 0.49018  0.81164  0.70781  Biso   1.000  N
  N24      1.0000 0.16625  0.98519  0.19222  Biso   1.000  N
  N25      1.0000 0.81812  0.48483  0.70895  Biso   1.000  N
  N26      1.0000 0.65852  0.80958  0.53279  Biso   1.000  N
  N27      1.0000 0.49523  0.66232  0.84926  Biso   1.000  N
  N28      1.0000 0.31635  0.48748  0.83688  Biso   1.000  N
  N29      1.0000 0.15037  0.80781  0.01061  Biso   1.000  N
  N30      1.0000 0.97867  0.66593  0.70226  Biso   1.000  N
  N31      1.0000 0.65464  0.98457  0.70872  Biso   1.000  N
  N32      1.0000 0.80578  0.31141  0.53508  Biso   1.000  N
  N33      1.0000 0.99156  0.17413  0.85319  Biso   1.000  N
  N34      1.0000 0.15507  0.99251  0.83734  Biso   1.000  N
  N35      1.0000 0.31596  0.30960  0.03352  Biso   1.000  N
  N36      1.0000 0.46737  0.16477  0.69773  Biso   1.000  N
  N37      1.0000 0.13917  0.48092  0.33504  Biso   1.000  N
  N38      1.0000 0.30898  0.16483  0.51723  Biso   1.000  N
  N39      1.0000 0.48410  0.31501  0.19737  Biso   1.000  N
  N40      1.0000 0.64138  0.48273  0.21466  Biso   1.000  N
  N41      1.0000 0.81862  0.16162  0.04323  Biso   1.000  N
  N42      1.0000 0.97330  0.30430  0.35042  Biso   1.000  N
  N43      1.0000 0.31909  0.99241  0.33912  Biso   1.000  N
  N44      1.0000 0.15789  0.65942  0.53747  Biso   1.000  N
  N45      1.0000 0.98618  0.80525  0.19688  Biso   1.000  N
  N46      1.0000 0.81639  0.98276  0.20894  Biso   1.000  N
  N47      1.0000 0.64861  0.65878  0.02517  Biso   1.000  N
  N48      1.0000 0.48546  0.81085  0.35284  Biso   1.000  N
  O1       1.0000 0.32638  0.52873  0.01257  Biso   1.000  O
  O2       1.0000 0.98752  0.33429  0.56810  Biso   1.000  O
  O3       1.0000 0.53575  0.99159  0.36485  Biso   1.000  O
  O4       1.0000 0.82572  0.53192  0.53187  Biso   1.000  O
  O5       1.0000 0.48668  0.33072  0.98445  Biso   1.000  O
  O6       1.0000 0.03295  0.98589  0.18010  Biso   1.000  O
  O7       1.0000 0.14142  0.02638  0.01724  Biso   1.000  O
  O8       1.0000 0.48467  0.82858  0.57291  Biso   1.000  O
  O9       1.0000 0.92553  0.47741  0.36895  Biso   1.000  O
  O10      1.0000 0.63827  0.02743  0.52586  Biso   1.000  O
  O11      1.0000 0.97288  0.83998  0.98263  Biso   1.000  O
  O12      1.0000 0.42419  0.49275  0.17903  Biso   1.000  O
  O13      1.0000 0.63798  0.43870  0.03574  Biso   1.000  O
  O14      1.0000 0.98214  0.64142  0.48369  Biso   1.000  O
  O15      1.0000 0.43816  0.98007  0.68390  Biso   1.000  O
  O16      1.0000 0.13465  0.44259  0.50604  Biso   1.000  O
  O17      1.0000 0.47095  0.63834  0.06840  Biso   1.000  O
  O18      1.0000 0.94376  0.99388  0.86633  Biso   1.000  O
  O19      1.0000 0.81926  0.94413  0.02574  Biso   1.000  O
  O20      1.0000 0.49394  0.14411  0.48040  Biso   1.000  O
  O21      1.0000 0.03584  0.49513  0.67851  Biso   1.000  O
  O22      1.0000 0.33104  0.94364  0.51443  Biso   1.000  O
  O23      1.0000 0.98987  0.14110  0.06697  Biso   1.000  O
  O24      1.0000 0.53519  0.48908  0.87057  Biso   1.000  O
  O25      1.0000 0.95126  0.98037  0.18537  Biso   1.000  O
  O26      1.0000 0.14031  0.94259  0.01825  Biso   1.000  O
  O27      1.0000 0.99367  0.14508  0.98442  Biso   1.000  O
  O28      1.0000 0.45418  0.98757  0.36390  Biso   1.000  O
  O29      1.0000 0.63967  0.94413  0.53270  Biso   1.000  O
  O30      1.0000 0.47338  0.14778  0.56349  Biso   1.000  O
  O31      1.0000 0.50753  0.48616  0.18521  Biso   1.000  O
  O32      1.0000 0.32813  0.44474  0.02025  Biso   1.000  O
  O33      1.0000 0.47695  0.63904  0.98345  Biso   1.000  O
  O34      1.0000 0.00811  0.47814  0.36258  Biso   1.000  O
  O35      1.0000 0.82499  0.44832  0.52196  Biso   1.000  O
  O36      1.0000 0.97904  0.64572  0.56589  Biso   1.000  O
  O37      1.0000 0.02481  0.00536  0.86283  Biso   1.000  O
  O38      1.0000 0.83201  0.02631  0.03097  Biso   1.000  O
  O39      1.0000 0.97797  0.82921  0.06532  Biso   1.000  O
  O40      1.0000 0.52168  0.98905  0.68470  Biso   1.000  O
  O41      1.0000 0.32998  0.02853  0.51626  Biso   1.000  O
  O42      1.0000 0.48457  0.83050  0.48907  Biso   1.000  O
  O43      1.0000 0.44905  0.48919  0.86460  Biso   1.000  O
  O44      1.0000 0.63318  0.52238  0.03258  Biso   1.000  O
  O45      1.0000 0.50140  0.32661  0.06629  Biso   1.000  O
  O46      1.0000 0.95215  0.49061  0.68334  Biso   1.000  O
  O47      1.0000 0.13661  0.52372  0.52541  Biso   1.000  O
  O48      1.0000 0.97577  0.33165  0.48580  Biso   1.000  O
  O49      1.0000 0.99210  0.93879  0.18407  Biso   1.000  O
  O50      1.0000 0.14026  0.98197  0.97394  Biso   1.000  O
  O51      1.0000 0.95241  0.14085  0.02320  Biso   1.000  O
  O52      1.0000 0.49042  0.94663  0.36650  Biso   1.000  O
  O53      1.0000 0.63800  0.99027  0.57214  Biso   1.000  O
  O54      1.0000 0.44238  0.14498  0.51707  Biso   1.000  O
  O55      1.0000 0.46597  0.44905  0.17682  Biso   1.000  O
  O56      1.0000 0.33145  0.48663  0.97310  Biso   1.000  O
  O57      1.0000 0.51269  0.63853  0.03138  Biso   1.000  O
  O58      1.0000 0.96799  0.43902  0.36711  Biso   1.000  O
  O59      1.0000 0.83464  0.48259  0.57157  Biso   1.000  O
  O60      1.0000 0.02104  0.64276  0.52330  Biso   1.000  O
  O61      1.0000 0.98152  0.03989  0.86574  Biso   1.000  O
  O62      1.0000 0.83087  0.98506  0.06895  Biso   1.000  O
  O63      1.0000 0.01860  0.83642  0.02188  Biso   1.000  O
  O64      1.0000 0.47257  0.02643  0.67948  Biso   1.000  O
  O65      1.0000 0.33458  0.98891  0.47311  Biso   1.000  O
  O66      1.0000 0.52546  0.83010  0.52879  Biso   1.000  O
  O67      1.0000 0.49066  0.52801  0.86454  Biso   1.000  O
  O68      1.0000 0.63443  0.48613  0.07820  Biso   1.000  O
  O69      1.0000 0.45193  0.33179  0.03426  Biso   1.000  O
  O70      1.0000 0.99368  0.53350  0.68729  Biso   1.000  O
  O71      1.0000 0.12794  0.49190  0.47317  Biso   1.000  O
  O72      1.0000 0.94032  0.33232  0.53549  Biso   1.000  O
  O73      1.0000 0.99616  0.44851  0.67832  Biso   1.000  O
  O74      1.0000 0.64032  0.97932  0.48811  Biso   1.000  O
  O75      1.0000 0.42912  0.64106  0.02299  Biso   1.000  O
  O76      1.0000 0.48990  0.44591  0.87218  Biso   1.000  O
  O77      1.0000 0.14168  0.98298  0.05690  Biso   1.000  O
  O78      1.0000 0.93806  0.64528  0.52384  Biso   1.000  O
  O79      1.0000 0.48426  0.94651  0.68825  Biso   1.000  O
  O80      1.0000 0.82072  0.49571  0.48731  Biso   1.000  O
  O81      1.0000 0.03475  0.14133  0.03006  Biso   1.000  O
  O82      1.0000 0.98625  0.95789  0.86573  Biso   1.000  O
  O83      1.0000 0.32357  0.48526  0.05857  Biso   1.000  O
  O84      1.0000 0.52347  0.14568  0.53409  Biso   1.000  O
  O85      1.0000 0.96288  0.52362  0.36280  Biso   1.000  O
  O86      1.0000 0.32947  0.97937  0.55840  Biso   1.000  O
  O87      1.0000 0.53597  0.32992  0.01993  Biso   1.000  O
  O88      1.0000 0.46737  0.53219  0.18651  Biso   1.000  O
  O89      1.0000 0.82486  0.98931  0.98638  Biso   1.000  O
  O90      1.0000 0.02067  0.32813  0.52238  Biso   1.000  O
  O91      1.0000 0.49542  0.03122  0.36906  Biso   1.000  O
  O92      1.0000 0.14293  0.47813  0.55531  Biso   1.000  O
  O93      1.0000 0.93233  0.83442  0.02670  Biso   1.000  O
  O94      1.0000 0.99094  0.02387  0.18333  Biso   1.000  O
  O95      1.0000 0.63907  0.48053  0.99083  Biso   1.000  O
  O96      1.0000 0.44103  0.83255  0.53387  Biso   1.000  O
  O97      1.0000 0.44360  0.19416  0.51121  Biso   1.000  O
  O98      1.0000 0.45923  0.44727  0.22457  Biso   1.000  O
  O99      1.0000 0.17628  0.48823  0.46797  Biso   1.000  O
  O100     1.0000 0.95311  0.18990  0.02512  Biso   1.000  O
  O101     1.0000 0.96509  0.43707  0.31755  Biso   1.000  O
  O102     1.0000 0.68194  0.48494  0.08187  Biso   1.000  O
  O103     1.0000 0.02263  0.68972  0.53006  Biso   1.000  O
  O104     1.0000 0.99964  0.93971  0.23240  Biso   1.000  O
  O105     1.0000 0.28547  0.99201  0.47387  Biso   1.000  O
  O106     1.0000 0.51670  0.68746  0.02980  Biso   1.000  O
  O107     1.0000 0.49127  0.94362  0.31873  Biso   1.000  O
  O108     1.0000 0.78240  0.98546  0.07175  Biso   1.000  O
  O109     1.0000 0.52323  0.78005  0.52559  Biso   1.000  O
  O110     1.0000 0.49509  0.52951  0.81605  Biso   1.000  O
  O111     1.0000 0.78514  0.48541  0.57503  Biso   1.000  O
  O112     1.0000 0.01525  0.78749  0.01257  Biso   1.000  O
  O113     1.0000 0.99103  0.53367  0.73617  Biso   1.000  O
  O114     1.0000 0.28276  0.48479  0.97035  Biso   1.000  O
  O115     1.0000 0.93899  0.28295  0.53413  Biso   1.000  O
  O116     1.0000 0.97384  0.03987  0.81751  Biso   1.000  O
  O117     1.0000 0.68723  0.99234  0.57468  Biso   1.000  O
  O118     1.0000 0.44903  0.28205  0.03218  Biso   1.000  O
  O119     1.0000 0.47604  0.02975  0.72773  Biso   1.000  O
  O120     1.0000 0.19007  0.98168  0.97140  Biso   1.000  O
  O121     1.0000 0.03816  0.49166  0.72738  Biso   1.000  O
  O122     1.0000 0.68670  0.02880  0.52387  Biso   1.000  O
  O123     1.0000 0.47009  0.68683  0.06702  Biso   1.000  O
  O124     1.0000 0.53660  0.48728  0.82130  Biso   1.000  O
  O125     1.0000 0.19009  0.02350  0.01297  Biso   1.000  O
  O126     1.0000 0.98323  0.69019  0.48119  Biso   1.000  O
  O127     1.0000 0.43508  0.98243  0.73205  Biso   1.000  O
  O128     1.0000 0.77772  0.53012  0.53822  Biso   1.000  O
  O129     1.0000 0.99367  0.19035  0.07188  Biso   1.000  O
  O130     1.0000 0.94029  0.99286  0.81759  Biso   1.000  O
  O131     1.0000 0.27758  0.52393  0.01541  Biso   1.000  O
  O132     1.0000 0.49418  0.19366  0.47979  Biso   1.000  O
  O133     1.0000 0.92285  0.47958  0.31961  Biso   1.000  O
  O134     1.0000 0.28289  0.94451  0.51002  Biso   1.000  O
  O135     1.0000 0.48500  0.28191  0.98233  Biso   1.000  O
  O136     1.0000 0.42165  0.49081  0.22736  Biso   1.000  O
  O137     1.0000 0.77184  0.94594  0.02960  Biso   1.000  O
  O138     1.0000 0.98569  0.28440  0.56883  Biso   1.000  O
  O139     1.0000 0.53487  0.98002  0.31729  Biso   1.000  O
  O140     1.0000 0.18270  0.44366  0.50688  Biso   1.000  O
  O141     1.0000 0.97100  0.79071  0.97735  Biso   1.000  O
  O142     1.0000 0.03661  0.98651  0.22951  Biso   1.000  O
  O143     1.0000 0.68462  0.44205  0.04455  Biso   1.000  O
  O144     1.0000 0.48479  0.77998  0.57263  Biso   1.000  O
  O145     1.0000 0.50475  0.48310  0.23340  Biso   1.000  O
  O146     1.0000 0.18336  0.52691  0.51440  Biso   1.000  O
  O147     1.0000 0.47526  0.19618  0.56257  Biso   1.000  O
  O148     1.0000 0.00490  0.48395  0.31329  Biso   1.000  O
  O149     1.0000 0.68276  0.52440  0.03255  Biso   1.000  O
  O150     1.0000 0.00230  0.19422  0.98851  Biso   1.000  O
  O151     1.0000 0.95381  0.97964  0.23459  Biso   1.000  O
  O152     1.0000 0.28251  0.02839  0.52153  Biso   1.000  O
  O153     1.0000 0.97133  0.69392  0.56728  Biso   1.000  O
  O154     1.0000 0.45269  0.98494  0.31381  Biso   1.000  O
  O155     1.0000 0.78363  0.03135  0.03728  Biso   1.000  O
  O156     1.0000 0.47235  0.68750  0.98298  Biso   1.000  O
  O157     1.0000 0.45381  0.48682  0.81667  Biso   1.000  O
  O158     1.0000 0.77736  0.44692  0.52762  Biso   1.000  O
  O159     1.0000 0.48030  0.78147  0.48901  Biso   1.000  O
  O160     1.0000 0.95461  0.48873  0.73094  Biso   1.000  O
  O161     1.0000 0.28299  0.44021  0.00890  Biso   1.000  O
  O162     1.0000 0.97487  0.78095  0.06048  Biso   1.000  O
  O163     1.0000 0.02233  0.00183  0.81434  Biso   1.000  O
  O164     1.0000 0.68675  0.94581  0.53850  Biso   1.000  O
  O165     1.0000 0.97383  0.28275  0.48587  Biso   1.000  O
  O166     1.0000 0.51916  0.99346  0.73300  Biso   1.000  O
  O167     1.0000 0.18800  0.94081  0.01421  Biso   1.000  O
  O168     1.0000 0.50067  0.27748  0.06717  Biso   1.000  O
  O169     1.0000 0.99405  0.02466  0.23172  Biso   1.000  O
  O170     1.0000 0.19007  0.97883  0.05759  Biso   1.000  O
  O171     1.0000 0.03702  0.19008  0.03157  Biso   1.000  O
  O172     1.0000 0.49520  0.02643  0.31993  Biso   1.000  O
  O173     1.0000 0.68772  0.97709  0.48997  Biso   1.000  O
  O174     1.0000 0.52409  0.19423  0.53204  Biso   1.000  O
  O175     1.0000 0.46678  0.53012  0.23573  Biso   1.000  O
  O176     1.0000 0.27426  0.48092  0.05462  Biso   1.000  O
  O177     1.0000 0.43173  0.69051  0.02027  Biso   1.000  O
  O178     1.0000 0.96032  0.52271  0.31449  Biso   1.000  O
  O179     1.0000 0.77244  0.49075  0.49282  Biso   1.000  O
  O180     1.0000 0.93704  0.69507  0.51948  Biso   1.000  O
  O181     1.0000 0.98662  0.95575  0.81459  Biso   1.000  O
  O182     1.0000 0.77626  0.99710  0.98372  Biso   1.000  O
  O183     1.0000 0.93377  0.78586  0.02338  Biso   1.000  O
  O184     1.0000 0.48042  0.94701  0.73841  Biso   1.000  O
  O185     1.0000 0.28083  0.97931  0.55751  Biso   1.000  O
  O186     1.0000 0.44058  0.78359  0.53565  Biso   1.000  O
  O187     1.0000 0.49395  0.44522  0.82326  Biso   1.000  O
  O188     1.0000 0.68743  0.47842  0.99714  Biso   1.000  O
  O189     1.0000 0.53072  0.27928  0.02022  Biso   1.000  O
  O190     1.0000 0.99599  0.44950  0.72787  Biso   1.000  O
  O191     1.0000 0.19008  0.48253  0.55239  Biso   1.000  O
  O192     1.0000 0.01880  0.28081  0.52542  Biso   1.000  O
