data_image0
_cell_length_a       46.5563
_cell_length_b       46.6382
_cell_length_c       46.5411
_cell_angle_alpha    90
_cell_angle_beta     90
_cell_angle_gamma    90

_symmetry_space_group_name_H-M    "P 1"
_symmetry_int_tables_number       1

loop_
  _symmetry_equiv_pos_as_xyz
  'x, y, z'

loop_
  _atom_site_label
  _atom_site_occupancy
  _atom_site_fract_x
  _atom_site_fract_y
  _atom_site_fract_z
  _atom_site_thermal_displace_type
  _atom_site_B_iso_or_equiv
  _atom_site_type_symbol
  C1       1.0000 0.55547  0.97172  0.33336  Biso   1.000  C
  C2       1.0000 0.32558  0.54329  0.02681  Biso   1.000  C
  C3       1.0000 0.01880  0.28852  0.56330  Biso   1.000  C
  C4       1.0000 0.05006  0.97918  0.20554  Biso   1.000  C
  C5       1.0000 0.82318  0.52538  0.51093  Biso   1.000  C
  C6       1.0000 0.50062  0.28957  0.97285  Biso   1.000  C
  C7       1.0000 0.96984  0.49155  0.33632  Biso   1.000  C
  C8       1.0000 0.18189  0.04321  0.02615  Biso   1.000  C
  C9       1.0000 0.50029  0.79595  0.57154  Biso   1.000  C
  C10      1.0000 0.46696  0.46591  0.20337  Biso   1.000  C
  C11      1.0000 0.69082  0.01869  0.50840  Biso   1.000  C
  C12      1.0000 0.01461  0.78504  0.97456  Biso   1.000  C
  C13      1.0000 0.45941  0.97640  0.71112  Biso   1.000  C
  C14      1.0000 0.68318  0.40546  0.01832  Biso   1.000  C
  C15      1.0000 0.98497  0.65669  0.46988  Biso   1.000  C
  C16      1.0000 0.95703  0.95523  0.83152  Biso   1.000  C
  C17      1.0000 0.19593  0.42943  0.52403  Biso   1.000  C
  C18      1.0000 0.52107  0.65186  0.07516  Biso   1.000  C
  C19      1.0000 0.04988  0.45265  0.70407  Biso   1.000  C
  C20      1.0000 0.82507  0.90554  0.01037  Biso   1.000  C
  C21      1.0000 0.52962  0.15017  0.47482  Biso   1.000  C
  C22      1.0000 0.55163  0.47829  0.83388  Biso   1.000  C
  C23      1.0000 0.32614  0.93113  0.53473  Biso   1.000  C
  C24      1.0000 0.99403  0.16219  0.05866  Biso   1.000  C
  C25      1.0000 0.33316  0.04015  0.53014  Biso   1.000  C
  C26      1.0000 0.49208  0.29181  0.08293  Biso   1.000  C
  C27      1.0000 0.07557  0.47671  0.34649  Biso   1.000  C
  C28      1.0000 0.82025  0.01406  0.01130  Biso   1.000  C
  C29      1.0000 0.01526  0.29667  0.45321  Biso   1.000  C
  C30      1.0000 0.57764  0.48054  0.19818  Biso   1.000  C
  C31      1.0000 0.18700  0.53885  0.53153  Biso   1.000  C
  C32      1.0000 0.01047  0.79207  0.08381  Biso   1.000  C
  C33      1.0000 0.44464  0.98289  0.33471  Biso   1.000  C
  C34      1.0000 0.69291  0.51496  0.00165  Biso   1.000  C
  C35      1.0000 0.48785  0.79888  0.46194  Biso   1.000  C
  C36      1.0000 0.94205  0.98877  0.19567  Biso   1.000  C
  C37      1.0000 0.68243  0.91008  0.50907  Biso   1.000  C
  C38      1.0000 0.50611  0.65896  0.96673  Biso   1.000  C
  C39      1.0000 0.93976  0.46347  0.69085  Biso   1.000  C
  C40      1.0000 0.18590  0.93439  0.02707  Biso   1.000  C
  C41      1.0000 0.00691  0.65227  0.57856  Biso   1.000  C
  C42      1.0000 0.44280  0.46713  0.84519  Biso   1.000  C
  C43      1.0000 0.82587  0.41341  0.49846  Biso   1.000  C
  C44      1.0000 0.99307  0.14924  0.95305  Biso   1.000  C
  C45      1.0000 0.56599  0.96078  0.69957  Biso   1.000  C
  C46      1.0000 0.32553  0.43413  0.03161  Biso   1.000  C
  C47      1.0000 0.51087  0.15270  0.58119  Biso   1.000  C
  C48      1.0000 0.06396  0.96464  0.83979  Biso   1.000  C
  C49      1.0000 0.00762  0.01482  0.83263  Biso   1.000  C
  C50      1.0000 0.82244  0.96152  0.06488  Biso   1.000  C
  C51      1.0000 0.06901  0.79590  0.03156  Biso   1.000  C
  C52      1.0000 0.51824  0.02445  0.70831  Biso   1.000  C
  C53      1.0000 0.33121  0.98461  0.47636  Biso   1.000  C
  C54      1.0000 0.54897  0.78946  0.51592  Biso   1.000  C
  C55      1.0000 0.49171  0.52873  0.84063  Biso   1.000  C
  C56      1.0000 0.69077  0.46309  0.06270  Biso   1.000  C
  C57      1.0000 0.44128  0.29511  0.02279  Biso   1.000  C
  C58      1.0000 0.00045  0.51204  0.69622  Biso   1.000  C
  C59      1.0000 0.19260  0.48533  0.47826  Biso   1.000  C
  C60      1.0000 0.96174  0.29221  0.50758  Biso   1.000  C
  C61      1.0000 0.99138  0.93090  0.19967  Biso   1.000  C
  C62      1.0000 0.18334  0.98880  0.97267  Biso   1.000  C
  C63      1.0000 0.93820  0.14882  0.00875  Biso   1.000  C
  C64      1.0000 0.49106  0.92415  0.33324  Biso   1.000  C
  C65      1.0000 0.68935  0.96066  0.56278  Biso   1.000  C
  C66      1.0000 0.46574  0.15857  0.51343  Biso   1.000  C
  C67      1.0000 0.52804  0.41902  0.20068  Biso   1.000  C
  C68      1.0000 0.32285  0.48701  0.97534  Biso   1.000  C
  C69      1.0000 0.57250  0.65140  0.01235  Biso   1.000  C
  C70      1.0000 0.01769  0.43213  0.33606  Biso   1.000  C
  C71      1.0000 0.81861  0.46093  0.55780  Biso   1.000  C
  C72      1.0000 0.05364  0.65760  0.51685  Biso   1.000  C
  C73      1.0000 0.02400  0.53993  0.34635  Biso   1.000  C
  C74      1.0000 0.33351  0.98488  0.58518  Biso   1.000  C
  C75      1.0000 0.54864  0.29141  0.03472  Biso   1.000  C
  C76      1.0000 0.51112  0.52629  0.20127  Biso   1.000  C
  C77      1.0000 0.82846  0.96089  0.95453  Biso   1.000  C
  C78      1.0000 0.07121  0.29920  0.50874  Biso   1.000  C
  C79      1.0000 0.51119  0.03075  0.33896  Biso   1.000  C
  C80      1.0000 0.18739  0.48006  0.58874  Biso   1.000  C
  C81      1.0000 0.95789  0.78485  0.02480  Biso   1.000  C
  C82      1.0000 0.00079  0.04042  0.19402  Biso   1.000  C
  C83      1.0000 0.68459  0.45318  0.95625  Biso   1.000  C
  C84      1.0000 0.44019  0.79826  0.52372  Biso   1.000  C
  C85      1.0000 0.99154  0.40559  0.69464  Biso   1.000  C
  C86      1.0000 0.68567  0.96490  0.45395  Biso   1.000  C
  C87      1.0000 0.46272  0.65855  0.02938  Biso   1.000  C
  C88      1.0000 0.50467  0.41879  0.84524  Biso   1.000  C
  C89      1.0000 0.17963  0.98666  0.07990  Biso   1.000  C
  C90      1.0000 0.94498  0.65454  0.53330  Biso   1.000  C
  C91      1.0000 0.50503  0.91547  0.70455  Biso   1.000  C
  C92      1.0000 0.83508  0.47619  0.45160  Biso   1.000  C
  C93      1.0000 0.04761  0.15971  0.00583  Biso   1.000  C
  C94      1.0000 0.01702  0.90476  0.83813  Biso   1.000  C
  C95      1.0000 0.33263  0.48869  0.08548  Biso   1.000  C
  C96      1.0000 0.57333  0.14446  0.53777  Biso   1.000  C
  C97      1.0000 0.69379  0.04987  0.51237  Biso   1.000  C
  C98      1.0000 0.51807  0.65250  0.10626  Biso   1.000  C
  C99      1.0000 0.08227  0.45203  0.70544  Biso   1.000  C
  C100     1.0000 0.18162  0.07389  0.02603  Biso   1.000  C
  C101     1.0000 0.97915  0.65815  0.43796  Biso   1.000  C
  C102     1.0000 0.58398  0.47288  0.83316  Biso   1.000  C
  C103     1.0000 0.82004  0.55664  0.52086  Biso   1.000  C
  C104     1.0000 0.99402  0.16454  0.09055  Biso   1.000  C
  C105     1.0000 0.42713  0.97862  0.71449  Biso   1.000  C
  C106     1.0000 0.32903  0.57540  0.01912  Biso   1.000  C
  C107     1.0000 0.53215  0.15075  0.44315  Biso   1.000  C
  C108     1.0000 0.92535  0.95454  0.82977  Biso   1.000  C
  C109     1.0000 0.32093  0.90019  0.54083  Biso   1.000  C
  C110     1.0000 0.49985  0.29105  0.94010  Biso   1.000  C
  C111     1.0000 0.93792  0.49028  0.33144  Biso   1.000  C
  C112     1.0000 0.82775  0.87236  0.00834  Biso   1.000  C
  C113     1.0000 0.02337  0.28674  0.59381  Biso   1.000  C
  C114     1.0000 0.43533  0.46282  0.20526  Biso   1.000  C
  C115     1.0000 0.19796  0.39779  0.51882  Biso   1.000  C
  C116     1.0000 0.01614  0.78354  0.94298  Biso   1.000  C
  C117     1.0000 0.58686  0.97119  0.33163  Biso   1.000  C
  C118     1.0000 0.68121  0.37360  0.02360  Biso   1.000  C
  C119     1.0000 0.50945  0.79486  0.60175  Biso   1.000  C
  C120     1.0000 0.08257  0.97457  0.20785  Biso   1.000  C
  C121     1.0000 0.81877  0.96039  0.09686  Biso   1.000  C
  C122     1.0000 0.10198  0.79873  0.03461  Biso   1.000  C
  C123     1.0000 0.00747  0.04732  0.83164  Biso   1.000  C
  C124     1.0000 0.32991  0.98432  0.44456  Biso   1.000  C
  C125     1.0000 0.58098  0.78770  0.52162  Biso   1.000  C
  C126     1.0000 0.52034  0.05619  0.71070  Biso   1.000  C
  C127     1.0000 0.69489  0.46862  0.09379  Biso   1.000  C
  C128     1.0000 0.40873  0.29723  0.01953  Biso   1.000  C
  C129     1.0000 0.49197  0.55998  0.84028  Biso   1.000  C
  C130     1.0000 0.19639  0.48337  0.44694  Biso   1.000  C
  C131     1.0000 0.92937  0.29112  0.50771  Biso   1.000  C
  C132     1.0000 0.00198  0.54484  0.69816  Biso   1.000  C
  C133     1.0000 0.18644  0.98554  0.94101  Biso   1.000  C
  C134     1.0000 0.90727  0.14608  0.01170  Biso   1.000  C
  C135     1.0000 0.99666  0.89802  0.20303  Biso   1.000  C
  C136     1.0000 0.69034  0.95489  0.59445  Biso   1.000  C
  C137     1.0000 0.43359  0.15877  0.50755  Biso   1.000  C
  C138     1.0000 0.48746  0.89112  0.33294  Biso   1.000  C
  C139     1.0000 0.32063  0.48307  0.94450  Biso   1.000  C
  C140     1.0000 0.60540  0.64826  0.00841  Biso   1.000  C
  C141     1.0000 0.53220  0.38665  0.20076  Biso   1.000  C
  C142     1.0000 0.81584  0.45716  0.59012  Biso   1.000  C
  C143     1.0000 0.08507  0.66002  0.51491  Biso   1.000  C
  C144     1.0000 0.01191  0.40104  0.33244  Biso   1.000  C
  C145     1.0000 0.33566  0.48736  0.11797  Biso   1.000  C
  C146     1.0000 0.10404  0.29954  0.50874  Biso   1.000  C
  C147     1.0000 0.51601  0.06160  0.34028  Biso   1.000  C
  C148     1.0000 0.83764  0.48046  0.42100  Biso   1.000  C
  C149     1.0000 0.58122  0.28710  0.03602  Biso   1.000  C
  C150     1.0000 0.00125  0.07438  0.19050  Biso   1.000  C
  C151     1.0000 0.17797  0.98374  0.11289  Biso   1.000  C
  C152     1.0000 0.40855  0.79915  0.52855  Biso   1.000  C
  C153     1.0000 0.02133  0.57244  0.34665  Biso   1.000  C
  C154     1.0000 0.68418  0.96920  0.42096  Biso   1.000  C
  C155     1.0000 0.92664  0.78301  0.02073  Biso   1.000  C
  C156     1.0000 0.50527  0.55772  0.20088  Biso   1.000  C
  C157     1.0000 0.68242  0.45088  0.92310  Biso   1.000  C
  C158     1.0000 0.91214  0.65411  0.53792  Biso   1.000  C
  C159     1.0000 0.50937  0.88452  0.70105  Biso   1.000  C
  C160     1.0000 0.18486  0.47569  0.62150  Biso   1.000  C
  C161     1.0000 0.42987  0.66163  0.02926  Biso   1.000  C
  C162     1.0000 0.02052  0.87302  0.84015  Biso   1.000  C
  C163     1.0000 0.82798  0.96402  0.92139  Biso   1.000  C
  C164     1.0000 0.60476  0.14347  0.53877  Biso   1.000  C
  C165     1.0000 0.00230  0.37364  0.69556  Biso   1.000  C
  C166     1.0000 0.33406  0.98069  0.61599  Biso   1.000  C
  C167     1.0000 0.07980  0.16146  0.00704  Biso   1.000  C
  C168     1.0000 0.50774  0.38642  0.84627  Biso   1.000  C
  C169     1.0000 0.01015  0.79381  0.11626  Biso   1.000  C
  C170     1.0000 0.09560  0.97094  0.84090  Biso   1.000  C
  C171     1.0000 0.81856  0.04507  0.01852  Biso   1.000  C
  C172     1.0000 0.48561  0.79695  0.42975  Biso   1.000  C
  C173     1.0000 0.59701  0.95365  0.69509  Biso   1.000  C
  C174     1.0000 0.33495  0.07202  0.52848  Biso   1.000  C
  C175     1.0000 0.49630  0.29164  0.11398  Biso   1.000  C
  C176     1.0000 0.41102  0.46300  0.84615  Biso   1.000  C
  C177     1.0000 0.69537  0.54654  0.99864  Biso   1.000  C
  C178     1.0000 0.01666  0.29986  0.42080  Biso   1.000  C
  C179     1.0000 0.90797  0.46312  0.68798  Biso   1.000  C
  C180     1.0000 0.18682  0.57114  0.52729  Biso   1.000  C
  C181     1.0000 0.99656  0.14705  0.92142  Biso   1.000  C
  C182     1.0000 0.91038  0.98969  0.19316  Biso   1.000  C
  C183     1.0000 0.18915  0.90248  0.02383  Biso   1.000  C
  C184     1.0000 0.51029  0.15336  0.61491  Biso   1.000  C
  C185     1.0000 0.41226  0.97942  0.33787  Biso   1.000  C
  C186     1.0000 0.68078  0.87735  0.51131  Biso   1.000  C
  C187     1.0000 0.50404  0.65672  0.93474  Biso   1.000  C
  C188     1.0000 0.61001  0.48464  0.19613  Biso   1.000  C
  C189     1.0000 0.32303  0.40141  0.03094  Biso   1.000  C
  C190     1.0000 0.00560  0.64777  0.61118  Biso   1.000  C
  C191     1.0000 0.10607  0.46963  0.34882  Biso   1.000  C
  C192     1.0000 0.82913  0.38091  0.50127  Biso   1.000  C
  C193     1.0000 0.85544  0.96337  0.90670  Biso   1.000  C
  C194     1.0000 0.91077  0.80976  0.01835  Biso   1.000  C
  C195     1.0000 0.02010  0.85811  0.86926  Biso   1.000  C
  C196     1.0000 0.36150  0.97930  0.63337  Biso   1.000  C
  C197     1.0000 0.39464  0.82754  0.53361  Biso   1.000  C
  C198     1.0000 0.51207  0.87153  0.67309  Biso   1.000  C
  C199     1.0000 0.65382  0.45369  0.90839  Biso   1.000  C
  C200     1.0000 0.59884  0.31130  0.03043  Biso   1.000  C
  C201     1.0000 0.50572  0.36910  0.87331  Biso   1.000  C
  C202     1.0000 0.15751  0.46952  0.63473  Biso   1.000  C
  C203     1.0000 0.11953  0.32822  0.51050  Biso   1.000  C
  C204     1.0000 0.00763  0.35881  0.66822  Biso   1.000  C
  C205     1.0000 0.15080  0.98025  0.12902  Biso   1.000  C
  C206     1.0000 0.09615  0.13456  0.01178  Biso   1.000  C
  C207     1.0000 0.99795  0.08866  0.16190  Biso   1.000  C
  C208     1.0000 0.65729  0.96824  0.40542  Biso   1.000  C
  C209     1.0000 0.61954  0.11753  0.53166  Biso   1.000  C
  C210     1.0000 0.52256  0.07579  0.36964  Biso   1.000  C
  C211     1.0000 0.36340  0.48257  0.13156  Biso   1.000  C
  C212     1.0000 0.41083  0.63659  0.02753  Biso   1.000  C
  C213     1.0000 0.50896  0.57407  0.17332  Biso   1.000  C
  C214     1.0000 0.86464  0.48109  0.40584  Biso   1.000  C
  C215     1.0000 0.89589  0.62625  0.53327  Biso   1.000  C
  C216     1.0000 0.00809  0.58535  0.37213  Biso   1.000  C
  C217     1.0000 0.11035  0.97223  0.86796  Biso   1.000  C
  C218     1.0000 0.84460  0.06180  0.01470  Biso   1.000  C
  C219     1.0000 0.00403  0.82280  0.12893  Biso   1.000  C
  C220     1.0000 0.61227  0.95701  0.66637  Biso   1.000  C
  C221     1.0000 0.36238  0.08539  0.52277  Biso   1.000  C
  C222     1.0000 0.48732  0.82376  0.41372  Biso   1.000  C
  C223     1.0000 0.39519  0.47209  0.87148  Biso   1.000  C
  C224     1.0000 0.66846  0.56318  0.00071  Biso   1.000  C
  C225     1.0000 0.50611  0.31877  0.12889  Biso   1.000  C
  C226     1.0000 0.89140  0.46077  0.66130  Biso   1.000  C
  C227     1.0000 0.15936  0.58482  0.52143  Biso   1.000  C
  C228     1.0000 0.01464  0.32871  0.40592  Biso   1.000  C
  C229     1.0000 0.89516  0.98406  0.16639  Biso   1.000  C
  C230     1.0000 0.16366  0.88483  0.02464  Biso   1.000  C
  C231     1.0000 0.99848  0.11929  0.90682  Biso   1.000  C
  C232     1.0000 0.40031  0.98045  0.36675  Biso   1.000  C
  C233     1.0000 0.65286  0.86369  0.51152  Biso   1.000  C
  C234     1.0000 0.51186  0.12598  0.63126  Biso   1.000  C
  C235     1.0000 0.62308  0.48208  0.16815  Biso   1.000  C
  C236     1.0000 0.34859  0.38259  0.03152  Biso   1.000  C
  C237     1.0000 0.50141  0.62886  0.91854  Biso   1.000  C
  C238     1.0000 0.12139  0.47174  0.37624  Biso   1.000  C
  C239     1.0000 0.85675  0.36575  0.50185  Biso   1.000  C
  C240     1.0000 0.00264  0.61965  0.62498  Biso   1.000  C
  C241     1.0000 0.60075  0.46853  0.86135  Biso   1.000  C
  C242     1.0000 0.84575  0.57334  0.52693  Biso   1.000  C
  C243     1.0000 0.51239  0.82297  0.61790  Biso   1.000  C
  C244     1.0000 0.10042  0.45460  0.67951  Biso   1.000  C
  C245     1.0000 0.35679  0.59078  0.02175  Biso   1.000  C
  C246     1.0000 0.01474  0.80900  0.92490  Biso   1.000  C
  C247     1.0000 0.90966  0.95801  0.85568  Biso   1.000  C
  C248     1.0000 0.66725  0.06782  0.51855  Biso   1.000  C
  C249     1.0000 0.01802  0.31202  0.61220  Biso   1.000  C
  C250     1.0000 0.41053  0.97847  0.68602  Biso   1.000  C
  C251     1.0000 0.15405  0.08794  0.02079  Biso   1.000  C
  C252     1.0000 0.50119  0.31822  0.92407  Biso   1.000  C
  C253     1.0000 0.41867  0.47161  0.17873  Biso   1.000  C
  C254     1.0000 0.17173  0.38155  0.51401  Biso   1.000  C
  C255     1.0000 0.53069  0.12481  0.42545  Biso   1.000  C
  C256     1.0000 0.92008  0.48773  0.35616  Biso   1.000  C
  C257     1.0000 0.65284  0.36042  0.02696  Biso   1.000  C
  C258     1.0000 0.99562  0.13828  0.10810  Biso   1.000  C
  C259     1.0000 0.09970  0.97546  0.18056  Biso   1.000  C
  C260     1.0000 0.34643  0.88116  0.54079  Biso   1.000  C
  C261     1.0000 0.98662  0.63224  0.42173  Biso   1.000  C
  C262     1.0000 0.60387  0.96926  0.35782  Biso   1.000  C
  C263     1.0000 0.85543  0.85877  0.01017  Biso   1.000  C
  C264     1.0000 0.51453  0.62499  0.12247  Biso   1.000  C
  C265     1.0000 0.00589  0.06458  0.85825  Biso   1.000  C
  C266     1.0000 0.84510  0.96796  0.11455  Biso   1.000  C
  C267     1.0000 0.11457  0.82831  0.03205  Biso   1.000  C
  C268     1.0000 0.51494  0.07211  0.68430  Biso   1.000  C
  C269     1.0000 0.35570  0.98426  0.42397  Biso   1.000  C
  C270     1.0000 0.59839  0.81536  0.51650  Biso   1.000  C
  C271     1.0000 0.49227  0.57658  0.86715  Biso   1.000  C
  C272     1.0000 0.66904  0.47378  0.11309  Biso   1.000  C
  C273     1.0000 0.39553  0.32638  0.02332  Biso   1.000  C
  C274     1.0000 0.00284  0.56226  0.67190  Biso   1.000  C
  C275     1.0000 0.17137  0.48167  0.42739  Biso   1.000  C
  C276     1.0000 0.91298  0.31638  0.50435  Biso   1.000  C
  C277     1.0000 0.99958  0.87983  0.17798  Biso   1.000  C
  C278     1.0000 0.16053  0.98267  0.92310  Biso   1.000  C
  C279     1.0000 0.89341  0.11690  0.01216  Biso   1.000  C
  C280     1.0000 0.48519  0.87519  0.36035  Biso   1.000  C
  C281     1.0000 0.66398  0.95327  0.61033  Biso   1.000  C
  C282     1.0000 0.41556  0.13307  0.50999  Biso   1.000  C
  C283     1.0000 0.52588  0.36921  0.17467  Biso   1.000  C
  C284     1.0000 0.34832  0.48363  0.92664  Biso   1.000  C
  C285     1.0000 0.61908  0.62022  0.00459  Biso   1.000  C
  C286     1.0000 0.01264  0.38299  0.35756  Biso   1.000  C
  C287     1.0000 0.84214  0.45787  0.60869  Biso   1.000  C
  C288     1.0000 0.10240  0.63372  0.51558  Biso   1.000  C
  C289     1.0000 0.34353  0.84996  0.54070  Biso   1.000  C
  C290     1.0000 0.50422  0.31745  0.89191  Biso   1.000  C
  C291     1.0000 0.88868  0.48550  0.35390  Biso   1.000  C
  C292     1.0000 0.85638  0.82788  0.01240  Biso   1.000  C
  C293     1.0000 0.01290  0.30867  0.64366  Biso   1.000  C
  C294     1.0000 0.38720  0.47007  0.18099  Biso   1.000  C
  C295     1.0000 0.17231  0.35037  0.51177  Biso   1.000  C
  C296     1.0000 0.01768  0.80582  0.89280  Biso   1.000  C
  C297     1.0000 0.63498  0.97129  0.35477  Biso   1.000  C
  C298     1.0000 0.65243  0.32788  0.02847  Biso   1.000  C
  C299     1.0000 0.51388  0.81944  0.64921  Biso   1.000  C
  C300     1.0000 0.13039  0.97634  0.18103  Biso   1.000  C
  C301     1.0000 0.67167  0.09780  0.52262  Biso   1.000  C
  C302     1.0000 0.51138  0.62686  0.15445  Biso   1.000  C
  C303     1.0000 0.13081  0.45784  0.68412  Biso   1.000  C
  C304     1.0000 0.15280  0.11916  0.02132  Biso   1.000  C
  C305     1.0000 0.99229  0.63551  0.39117  Biso   1.000  C
  C306     1.0000 0.63057  0.46102  0.85788  Biso   1.000  C
  C307     1.0000 0.84475  0.60404  0.52880  Biso   1.000  C
  C308     1.0000 0.99721  0.14051  0.13838  Biso   1.000  C
  C309     1.0000 0.37844  0.97926  0.68757  Biso   1.000  C
  C310     1.0000 0.35689  0.62193  0.02210  Biso   1.000  C
  C311     1.0000 0.52789  0.12734  0.39338  Biso   1.000  C
  C312     1.0000 0.87867  0.95733  0.85409  Biso   1.000  C
  C313     1.0000 0.17370  0.47766  0.39610  Biso   1.000  C
  C314     1.0000 0.38477  0.13707  0.51282  Biso   1.000  C
  C315     1.0000 0.51948  0.33966  0.17984  Biso   1.000  C
  C316     1.0000 0.67317  0.47518  0.14366  Biso   1.000  C
  C317     1.0000 0.86231  0.11605  0.01770  Biso   1.000  C
  C318     1.0000 0.01436  0.35187  0.35497  Biso   1.000  C
  C319     1.0000 0.35049  0.98523  0.39282  Biso   1.000  C
  C320     1.0000 0.13370  0.63699  0.51864  Biso   1.000  C
  C321     1.0000 0.00049  0.84896  0.18071  Biso   1.000  C
  C322     1.0000 0.84170  0.97235  0.14579  Biso   1.000  C
  C323     1.0000 0.64999  0.61780  0.00600  Biso   1.000  C
  C324     1.0000 0.48596  0.84308  0.36082  Biso   1.000  C
  C325     1.0000 0.83849  0.45534  0.63994  Biso   1.000  C
  C326     1.0000 0.62940  0.81239  0.51974  Biso   1.000  C
  C327     1.0000 0.49488  0.60813  0.86476  Biso   1.000  C
  C328     1.0000 0.34501  0.47385  0.89643  Biso   1.000  C
  C329     1.0000 0.14621  0.83040  0.02794  Biso   1.000  C
  C330     1.0000 0.00664  0.59352  0.67540  Biso   1.000  C
  C331     1.0000 0.66514  0.95109  0.64227  Biso   1.000  C
  C332     1.0000 0.88147  0.31391  0.50949  Biso   1.000  C
  C333     1.0000 0.00434  0.09623  0.85584  Biso   1.000  C
  C334     1.0000 0.16210  0.97937  0.89154  Biso   1.000  C
  C335     1.0000 0.36424  0.32901  0.02361  Biso   1.000  C
  C336     1.0000 0.51663  0.10420  0.68552  Biso   1.000  C
  C337     1.0000 0.65147  0.45450  0.87757  Biso   1.000  C
  C338     1.0000 0.86462  0.62727  0.53204  Biso   1.000  C
  C339     1.0000 0.51337  0.84048  0.67243  Biso   1.000  C
  C340     1.0000 0.15490  0.46331  0.66513  Biso   1.000  C
  C341     1.0000 0.37949  0.64085  0.02545  Biso   1.000  C
  C342     1.0000 0.01984  0.82650  0.87060  Biso   1.000  C
  C343     1.0000 0.85687  0.95920  0.87527  Biso   1.000  C
  C344     1.0000 0.65181  0.11925  0.52726  Biso   1.000  C
  C345     1.0000 0.00873  0.32818  0.66627  Biso   1.000  C
  C346     1.0000 0.35747  0.97930  0.66480  Biso   1.000  C
  C347     1.0000 0.12753  0.13923  0.01681  Biso   1.000  C
  C348     1.0000 0.50789  0.33830  0.86996  Biso   1.000  C
  C349     1.0000 0.36439  0.47608  0.16217  Biso   1.000  C
  C350     1.0000 0.15091  0.32821  0.50975  Biso   1.000  C
  C351     1.0000 0.52485  0.10695  0.37092  Biso   1.000  C
  C352     1.0000 0.86586  0.48365  0.37419  Biso   1.000  C
  C353     1.0000 0.62987  0.30705  0.02944  Biso   1.000  C
  C354     1.0000 0.99881  0.12003  0.16106  Biso   1.000  C
  C355     1.0000 0.15173  0.97877  0.15984  Biso   1.000  C
  C356     1.0000 0.36301  0.82730  0.53685  Biso   1.000  C
  C357     1.0000 0.00327  0.61626  0.37039  Biso   1.000  C
  C358     1.0000 0.65765  0.97189  0.37455  Biso   1.000  C
  C359     1.0000 0.87934  0.80779  0.01664  Biso   1.000  C
  C360     1.0000 0.50890  0.60481  0.17689  Biso   1.000  C
  C361     1.0000 0.00076  0.11905  0.87634  Biso   1.000  C
  C362     1.0000 0.86352  0.97969  0.16657  Biso   1.000  C
  C363     1.0000 0.16630  0.85278  0.02655  Biso   1.000  C
  C364     1.0000 0.51473  0.12520  0.66328  Biso   1.000  C
  C365     1.0000 0.36901  0.98299  0.36917  Biso   1.000  C
  C366     1.0000 0.65222  0.83271  0.51785  Biso   1.000  C
  C367     1.0000 0.50026  0.63001  0.88552  Biso   1.000  C
  C368     1.0000 0.65467  0.47937  0.16697  Biso   1.000  C
  C369     1.0000 0.34445  0.35244  0.02606  Biso   1.000  C
  C370     1.0000 0.00640  0.61708  0.65653  Biso   1.000  C
  C371     1.0000 0.15312  0.47483  0.37466  Biso   1.000  C
  C372     1.0000 0.85860  0.33478  0.50758  Biso   1.000  C
  C373     1.0000 0.00162  0.82579  0.15974  Biso   1.000  C
  C374     1.0000 0.14120  0.97598  0.86915  Biso   1.000  C
  C375     1.0000 0.84258  0.09181  0.01952  Biso   1.000  C
  C376     1.0000 0.48632  0.82171  0.38264  Biso   1.000  C
  C377     1.0000 0.64398  0.95092  0.66504  Biso   1.000  C
  C378     1.0000 0.36268  0.11646  0.51687  Biso   1.000  C
  C379     1.0000 0.51140  0.31813  0.16041  Biso   1.000  C
  C380     1.0000 0.36474  0.46865  0.87372  Biso   1.000  C
  C381     1.0000 0.67068  0.59470  0.00086  Biso   1.000  C
  C382     1.0000 0.01577  0.32895  0.37441  Biso   1.000  C
  C383     1.0000 0.85899  0.45701  0.66173  Biso   1.000  C
  C384     1.0000 0.15717  0.61680  0.52026  Biso   1.000  C
  C385     1.0000 0.17748  0.13784  0.02220  Biso   1.000  C
  C386     1.0000 0.99745  0.16815  0.15325  Biso   1.000  C
  C387     1.0000 0.14672  0.97492  0.20789  Biso   1.000  C
  C388     1.0000 0.69856  0.11389  0.52313  Biso   1.000  C
  C389     1.0000 0.52582  0.15431  0.38013  Biso   1.000  C
  C390     1.0000 0.65006  0.97548  0.32750  Biso   1.000  C
  C391     1.0000 0.33161  0.63900  0.01996  Biso   1.000  C
  C392     1.0000 0.50944  0.65405  0.17056  Biso   1.000  C
  C393     1.0000 0.37400  0.46341  0.20872  Biso   1.000  C
  C394     1.0000 0.81711  0.61858  0.53090  Biso   1.000  C
  C395     1.0000 0.99163  0.66345  0.37700  Biso   1.000  C
  C396     1.0000 0.87481  0.48631  0.32578  Biso   1.000  C
  C397     1.0000 0.82995  0.81036  0.01226  Biso   1.000  C
  C398     1.0000 0.02052  0.77915  0.87908  Biso   1.000  C
  C399     1.0000 0.86401  0.95412  0.82662  Biso   1.000  C
  C400     1.0000 0.31515  0.83671  0.54104  Biso   1.000  C
  C401     1.0000 0.51429  0.79179  0.66285  Biso   1.000  C
  C402     1.0000 0.36181  0.97615  0.71370  Biso   1.000  C
  C403     1.0000 0.67856  0.30972  0.02759  Biso   1.000  C
  C404     1.0000 0.50520  0.28977  0.87700  Biso   1.000  C
  C405     1.0000 0.64407  0.45894  0.82938  Biso   1.000  C
  C406     1.0000 0.19887  0.33479  0.50976  Biso   1.000  C
  C407     1.0000 0.01749  0.28115  0.65695  Biso   1.000  C
  C408     1.0000 0.14422  0.45700  0.71217  Biso   1.000  C
  C409     1.0000 0.15873  0.97275  0.84344  Biso   1.000  C
  C410     1.0000 0.81502  0.10747  0.02311  Biso   1.000  C
  C411     1.0000 0.00218  0.80023  0.17622  Biso   1.000  C
  C412     1.0000 0.66114  0.94882  0.69086  Biso   1.000  C
  C413     1.0000 0.33700  0.13399  0.51473  Biso   1.000  C
  C414     1.0000 0.48693  0.79393  0.36672  Biso   1.000  C
  C415     1.0000 0.34690  0.46143  0.84871  Biso   1.000  C
  C416     1.0000 0.69914  0.60928  0.00047  Biso   1.000  C
  C417     1.0000 0.50979  0.29218  0.17682  Biso   1.000  C
  C418     1.0000 0.84287  0.45682  0.68877  Biso   1.000  C
  C419     1.0000 0.18194  0.63425  0.52565  Biso   1.000  C
  C420     1.0000 0.01635  0.30289  0.35689  Biso   1.000  C
  C421     1.0000 0.84792  0.98257  0.19323  Biso   1.000  C
  C422     1.0000 0.19488  0.84017  0.02753  Biso   1.000  C
  C423     1.0000 0.00465  0.14477  0.85990  Biso   1.000  C
  C424     1.0000 0.34978  0.98480  0.34463  Biso   1.000  C
  C425     1.0000 0.67825  0.81500  0.52194  Biso   1.000  C
  C426     1.0000 0.51624  0.15211  0.67831  Biso   1.000  C
  C427     1.0000 0.67284  0.47893  0.19308  Biso   1.000  C
  C428     1.0000 0.31640  0.34029  0.02408  Biso   1.000  C
  C429     1.0000 0.50303  0.65697  0.86973  Biso   1.000  C
  C430     1.0000 0.17050  0.47204  0.34771  Biso   1.000  C
  C431     1.0000 0.83304  0.31835  0.51479  Biso   1.000  C
  C432     1.0000 0.00831  0.64269  0.67380  Biso   1.000  C
  C433     1.0000 0.00721  0.10970  0.82858  Biso   1.000  C
  C434     1.0000 0.81541  0.96864  0.16108  Biso   1.000  C
  C435     1.0000 0.16364  0.80514  0.03034  Biso   1.000  C
  C436     1.0000 0.52128  0.12084  0.71179  Biso   1.000  C
  C437     1.0000 0.32111  0.98763  0.38028  Biso   1.000  C
  C438     1.0000 0.64320  0.78442  0.52726  Biso   1.000  C
  C439     1.0000 0.49641  0.62354  0.83790  Biso   1.000  C
  C440     1.0000 0.70132  0.47078  0.15659  Biso   1.000  C
  C441     1.0000 0.34535  0.30415  0.02444  Biso   1.000  C
  C442     1.0000 0.00840  0.60723  0.70483  Biso   1.000  C
  C443     1.0000 0.20183  0.47743  0.38327  Biso   1.000  C
  C444     1.0000 0.86682  0.28676  0.51587  Biso   1.000  C
  C445     1.0000 0.00006  0.83409  0.20883  Biso   1.000  C
  C446     1.0000 0.19024  0.97405  0.87717  Biso   1.000  C
  C447     1.0000 0.84537  0.14138  0.02179  Biso   1.000  C
  C448     1.0000 0.48672  0.82697  0.33321  Biso   1.000  C
  C449     1.0000 0.69234  0.94996  0.65741  Biso   1.000  C
  C450     1.0000 0.37016  0.16401  0.50947  Biso   1.000  C
  C451     1.0000 0.52529  0.32408  0.20673  Biso   1.000  C
  C452     1.0000 0.31716  0.46705  0.88403  Biso   1.000  C
  C453     1.0000 0.66715  0.64385  0.00676  Biso   1.000  C
  C454     1.0000 0.01476  0.33815  0.32599  Biso   1.000  C
  C455     1.0000 0.81023  0.45348  0.65386  Biso   1.000  C
  C456     1.0000 0.14711  0.66427  0.52340  Biso   1.000  C
  C457     1.0000 0.00894  0.63319  0.34509  Biso   1.000  C
  C458     1.0000 0.32948  0.97710  0.67912  Biso   1.000  C
  C459     1.0000 0.64409  0.27911  0.03201  Biso   1.000  C
  C460     1.0000 0.50262  0.61938  0.20256  Biso   1.000  C
  C461     1.0000 0.83032  0.95817  0.85801  Biso   1.000  C
  C462     1.0000 0.16699  0.30180  0.50570  Biso   1.000  C
  C463     1.0000 0.52312  0.12363  0.34519  Biso   1.000  C
  C464     1.0000 0.17979  0.46610  0.68423  Biso   1.000  C
  C465     1.0000 0.86500  0.78014  0.01873  Biso   1.000  C
  C466     1.0000 0.00137  0.13724  0.18786  Biso   1.000  C
  C467     1.0000 0.67723  0.44807  0.86108  Biso   1.000  C
  C468     1.0000 0.34564  0.80189  0.53441  Biso   1.000  C
  C469     1.0000 0.00943  0.31077  0.69152  Biso   1.000  C
  C470     1.0000 0.68370  0.97584  0.35853  Biso   1.000  C
  C471     1.0000 0.36692  0.66865  0.02539  Biso   1.000  C
  C472     1.0000 0.51065  0.32305  0.84314  Biso   1.000  C
  C473     1.0000 0.17894  0.98177  0.17517  Biso   1.000  C
  C474     1.0000 0.84892  0.65353  0.53598  Biso   1.000  C
  C475     1.0000 0.51276  0.82308  0.69757  Biso   1.000  C
  C476     1.0000 0.84069  0.48500  0.35653  Biso   1.000  C
  C477     1.0000 0.14206  0.16704  0.01555  Biso   1.000  C
  C478     1.0000 0.02343  0.80939  0.84474  Biso   1.000  C
  C479     1.0000 0.33865  0.47324  0.18031  Biso   1.000  C
  C480     1.0000 0.66621  0.14552  0.52811  Biso   1.000  C
  C481     1.0000 0.35977  0.77538  0.52537  Biso   1.000  C
  C482     1.0000 0.51227  0.33859  0.81563  Biso   1.000  C
  C483     1.0000 0.81273  0.48550  0.37193  Biso   1.000  C
  C484     1.0000 0.88030  0.75294  0.02038  Biso   1.000  C
  C485     1.0000 0.00549  0.32627  0.71920  Biso   1.000  C
  C486     1.0000 0.31030  0.48116  0.16772  Biso   1.000  C
  C487     1.0000 0.15122  0.27487  0.50211  Biso   1.000  C
  C488     1.0000 0.02908  0.82549  0.81855  Biso   1.000  C
  C489     1.0000 0.71172  0.97697  0.37445  Biso   1.000  C
  C490     1.0000 0.62606  0.25541  0.03725  Biso   1.000  C
  C491     1.0000 0.51121  0.83601  0.72546  Biso   1.000  C
  C492     1.0000 0.20782  0.98204  0.15909  Biso   1.000  C
  C493     1.0000 0.64988  0.17218  0.53530  Biso   1.000  C
  C494     1.0000 0.49918  0.60256  0.22970  Biso   1.000  C
  C495     1.0000 0.20820  0.47288  0.67059  Biso   1.000  C
  C496     1.0000 0.12548  0.19408  0.01486  Biso   1.000  C
  C497     1.0000 0.02284  0.61962  0.31980  Biso   1.000  C
  C498     1.0000 0.70607  0.44168  0.87470  Biso   1.000  C
  C499     1.0000 0.86483  0.68021  0.54234  Biso   1.000  C
  C500     1.0000 0.00278  0.12385  0.21583  Biso   1.000  C
  C501     1.0000 0.30318  0.97681  0.66243  Biso   1.000  C
  C502     1.0000 0.38583  0.69413  0.02898  Biso   1.000  C
  C503     1.0000 0.52051  0.10930  0.31642  Biso   1.000  C
  C504     1.0000 0.80254  0.96120  0.87325  Biso   1.000  C
  C505     1.0000 0.62925  0.46460  0.80243  Biso   1.000  C
  C506     1.0000 0.79080  0.60166  0.52578  Biso   1.000  C
  C507     1.0000 0.51461  0.76509  0.64661  Biso   1.000  C
  C508     1.0000 0.12690  0.45000  0.73701  Biso   1.000  C
  C509     1.0000 0.30395  0.62477  0.01503  Biso   1.000  C
  C510     1.0000 0.02045  0.75247  0.89764  Biso   1.000  C
  C511     1.0000 0.88059  0.95044  0.80059  Biso   1.000  C
  C512     1.0000 0.72485  0.09624  0.51709  Biso   1.000  C
  C513     1.0000 0.02503  0.25553  0.63988  Biso   1.000  C
  C514     1.0000 0.37794  0.97601  0.74090  Biso   1.000  C
  C515     1.0000 0.20642  0.12342  0.02419  Biso   1.000  C
  C516     1.0000 0.49940  0.26371  0.89257  Biso   1.000  C
  C517     1.0000 0.39093  0.45487  0.23353  Biso   1.000  C
  C518     1.0000 0.22718  0.35102  0.50862  Biso   1.000  C
  C519     1.0000 0.52689  0.18159  0.39628  Biso   1.000  C
  C520     1.0000 0.89268  0.49044  0.29938  Biso   1.000  C
  C521     1.0000 0.70600  0.32411  0.02212  Biso   1.000  C
  C522     1.0000 0.99704  0.19614  0.13585  Biso   1.000  C
  C523     1.0000 0.13149  0.97146  0.23642  Biso   1.000  C
  C524     1.0000 0.28958  0.85490  0.54717  Biso   1.000  C
  C525     1.0000 0.98160  0.68887  0.39399  Biso   1.000  C
  C526     1.0000 0.63284  0.97739  0.30068  Biso   1.000  C
  C527     1.0000 0.80249  0.82508  0.01014  Biso   1.000  C
  C528     1.0000 0.51128  0.68148  0.15351  Biso   1.000  C
  C529     1.0000 0.78894  0.08900  0.02681  Biso   1.000  C
  C530     1.0000 0.00951  0.77225  0.16464  Biso   1.000  C
  C531     1.0000 0.14450  0.97410  0.81588  Biso   1.000  C
  C532     1.0000 0.31045  0.11958  0.52056  Biso   1.000  C
  C533     1.0000 0.48615  0.76867  0.38344  Biso   1.000  C
  C534     1.0000 0.64657  0.94449  0.71793  Biso   1.000  C
  C535     1.0000 0.72661  0.59140  0.99953  Biso   1.000  C
  C536     1.0000 0.49817  0.26605  0.16182  Biso   1.000  C
  C537     1.0000 0.36175  0.45481  0.82102  Biso   1.000  C
  C538     1.0000 0.20924  0.61982  0.53093  Biso   1.000  C
  C539     1.0000 0.01692  0.27467  0.37182  Biso   1.000  C
  C540     1.0000 0.85913  0.46148  0.71431  Biso   1.000  C
  C541     1.0000 0.22148  0.85823  0.02868  Biso   1.000  C
  C542     1.0000 0.00647  0.17280  0.87388  Biso   1.000  C
  C543     1.0000 0.86191  0.99026  0.22034  Biso   1.000  C
  C544     1.0000 0.70596  0.82977  0.52056  Biso   1.000  C
  C545     1.0000 0.51124  0.17954  0.66265  Biso   1.000  C
  C546     1.0000 0.36236  0.98311  0.31613  Biso   1.000  C
  C547     1.0000 0.29081  0.35719  0.02886  Biso   1.000  C
  C548     1.0000 0.50773  0.68288  0.88671  Biso   1.000  C
  C549     1.0000 0.65971  0.48460  0.22104  Biso   1.000  C
  C550     1.0000 0.80375  0.33339  0.51449  Biso   1.000  C
  C551     1.0000 0.00884  0.67007  0.65997  Biso   1.000  C
  C552     1.0000 0.15440  0.46845  0.32027  Biso   1.000  C
  C553     1.0000 0.00788  0.09243  0.80242  Biso   1.000  C
  C554     1.0000 0.78922  0.95857  0.14377  Biso   1.000  C
  C555     1.0000 0.15075  0.77481  0.03238  Biso   1.000  C
  C556     1.0000 0.52827  0.10511  0.73886  Biso   1.000  C
  C557     1.0000 0.29594  0.99067  0.40038  Biso   1.000  C
  C558     1.0000 0.62498  0.75993  0.53499  Biso   1.000  C
  C559     1.0000 0.49256  0.60632  0.81098  Biso   1.000  C
  C560     1.0000 0.72671  0.46440  0.13812  Biso   1.000  C
  C561     1.0000 0.36052  0.27548  0.02303  Biso   1.000  C
  C562     1.0000 0.00690  0.58897  0.73112  Biso   1.000  C
  C563     1.0000 0.22817  0.47973  0.40193  Biso   1.000  C
  C564     1.0000 0.88416  0.26042  0.51725  Biso   1.000  C
  C565     1.0000 0.99633  0.85092  0.23573  Biso   1.000  C
  C566     1.0000 0.21598  0.97350  0.89658  Biso   1.000  C
  C567     1.0000 0.85910  0.17077  0.01966  Biso   1.000  C
  C568     1.0000 0.48646  0.84286  0.30468  Biso   1.000  C
  C569     1.0000 0.71885  0.95110  0.63922  Biso   1.000  C
  C570     1.0000 0.38775  0.19009  0.50341  Biso   1.000  C
  C571     1.0000 0.53827  0.34064  0.22968  Biso   1.000  C
  C572     1.0000 0.29046  0.46766  0.90043  Biso   1.000  C
  C573     1.0000 0.65399  0.67222  0.00813  Biso   1.000  C
  C574     1.0000 0.01649  0.35659  0.30063  Biso   1.000  C
  C575     1.0000 0.78468  0.44995  0.63570  Biso   1.000  C
  C576     1.0000 0.12900  0.69016  0.52242  Biso   1.000  C
  C577     1.0000 0.31090  0.48763  0.13674  Biso   1.000  C
  C578     1.0000 0.12020  0.27295  0.50427  Biso   1.000  C
  C579     1.0000 0.51457  0.07819  0.31432  Biso   1.000  C
  C580     1.0000 0.81192  0.48328  0.40425  Biso   1.000  C
  C581     1.0000 0.59472  0.25906  0.04013  Biso   1.000  C
  C582     1.0000 0.00204  0.09167  0.21662  Biso   1.000  C
  C583     1.0000 0.20591  0.98756  0.12790  Biso   1.000  C
  C584     1.0000 0.39151  0.77265  0.52465  Biso   1.000  C
  C585     1.0000 0.02946  0.58932  0.31958  Biso   1.000  C
  C586     1.0000 0.71182  0.97229  0.40475  Biso   1.000  C
  C587     1.0000 0.91118  0.75539  0.02140  Biso   1.000  C
  C588     1.0000 0.50249  0.57184  0.22781  Biso   1.000  C
  C589     1.0000 0.70772  0.44155  0.90655  Biso   1.000  C
  C590     1.0000 0.89542  0.68012  0.54409  Biso   1.000  C
  C591     1.0000 0.50860  0.86747  0.72778  Biso   1.000  C
  C592     1.0000 0.21072  0.47811  0.63939  Biso   1.000  C
  C593     1.0000 0.41702  0.68927  0.03124  Biso   1.000  C
  C594     1.0000 0.02624  0.85659  0.81535  Biso   1.000  C
  C595     1.0000 0.80050  0.96400  0.90414  Biso   1.000  C
  C596     1.0000 0.61943  0.17131  0.54174  Biso   1.000  C
  C597     1.0000 0.00044  0.35709  0.72150  Biso   1.000  C
  C598     1.0000 0.30523  0.97917  0.63057  Biso   1.000  C
  C599     1.0000 0.09491  0.19035  0.00865  Biso   1.000  C
  C600     1.0000 0.50965  0.37126  0.81717  Biso   1.000  C
  C601     1.0000 0.21532  0.98046  0.92814  Biso   1.000  C
  C602     1.0000 0.88995  0.17260  0.01509  Biso   1.000  C
  C603     1.0000 0.99410  0.88392  0.23140  Biso   1.000  C
  C604     1.0000 0.71781  0.95307  0.60841  Biso   1.000  C
  C605     1.0000 0.41915  0.18618  0.50382  Biso   1.000  C
  C606     1.0000 0.48680  0.87439  0.30497  Biso   1.000  C
  C607     1.0000 0.29292  0.47615  0.93131  Biso   1.000  C
  C608     1.0000 0.62270  0.67533  0.00935  Biso   1.000  C
  C609     1.0000 0.54093  0.37159  0.22785  Biso   1.000  C
  C610     1.0000 0.78739  0.45381  0.60403  Biso   1.000  C
  C611     1.0000 0.09737  0.68907  0.51667  Biso   1.000  C
  C612     1.0000 0.01287  0.38701  0.30380  Biso   1.000  C
  C613     1.0000 0.79223  0.95353  0.11079  Biso   1.000  C
  C614     1.0000 0.11985  0.77265  0.03503  Biso   1.000  C
  C615     1.0000 0.00852  0.06144  0.80401  Biso   1.000  C
  C616     1.0000 0.30019  0.98785  0.43174  Biso   1.000  C
  C617     1.0000 0.59356  0.76116  0.53136  Biso   1.000  C
  C618     1.0000 0.52783  0.07343  0.73789  Biso   1.000  C
  C619     1.0000 0.72337  0.46406  0.10705  Biso   1.000  C
  C620     1.0000 0.39080  0.27191  0.01811  Biso   1.000  C
  C621     1.0000 0.49100  0.57616  0.81325  Biso   1.000  C
  C622     1.0000 0.22535  0.48272  0.43277  Biso   1.000  C
  C623     1.0000 0.91551  0.26241  0.51313  Biso   1.000  C
  C624     1.0000 0.00455  0.55809  0.72760  Biso   1.000  C
  C625     1.0000 0.00230  0.17442  0.90479  Biso   1.000  C
  C626     1.0000 0.89333  0.99379  0.22007  Biso   1.000  C
  C627     1.0000 0.21753  0.88963  0.02679  Biso   1.000  C
  C628     1.0000 0.50944  0.18047  0.63185  Biso   1.000  C
  C629     1.0000 0.39359  0.98067  0.31337  Biso   1.000  C
  C630     1.0000 0.70741  0.86009  0.51367  Biso   1.000  C
  C631     1.0000 0.50743  0.68350  0.91848  Biso   1.000  C
  C632     1.0000 0.62734  0.48481  0.22322  Biso   1.000  C
  C633     1.0000 0.29372  0.38918  0.03093  Biso   1.000  C
  C634     1.0000 0.00720  0.67310  0.62883  Biso   1.000  C
  C635     1.0000 0.12269  0.46613  0.32134  Biso   1.000  C
  C636     1.0000 0.80315  0.36553  0.50867  Biso   1.000  C
  C637     1.0000 0.01188  0.76841  0.13369  Biso   1.000  C
  C638     1.0000 0.11263  0.97380  0.81389  Biso   1.000  C
  C639     1.0000 0.79079  0.05754  0.02531  Biso   1.000  C
  C640     1.0000 0.48404  0.76945  0.41434  Biso   1.000  C
  C641     1.0000 0.61471  0.94515  0.72041  Biso   1.000  C
  C642     1.0000 0.30933  0.08874  0.52840  Biso   1.000  C
  C643     1.0000 0.49257  0.26510  0.13109  Biso   1.000  C
  C644     1.0000 0.39328  0.45560  0.81991  Biso   1.000  C
  C645     1.0000 0.72327  0.56050  0.99733  Biso   1.000  C
  C646     1.0000 0.01749  0.27341  0.40300  Biso   1.000  C
  C647     1.0000 0.89018  0.46389  0.71444  Biso   1.000  C
  C648     1.0000 0.21395  0.58907  0.52977  Biso   1.000  C
  C649     1.0000 0.97326  0.68544  0.42517  Biso   1.000  C
  C650     1.0000 0.40921  0.97695  0.74049  Biso   1.000  C
  C651     1.0000 0.70650  0.35594  0.02313  Biso   1.000  C
  C652     1.0000 0.51902  0.68008  0.12247  Biso   1.000  C
  C653     1.0000 0.91183  0.94848  0.80266  Biso   1.000  C
  C654     1.0000 0.22477  0.38204  0.51494  Biso   1.000  C
  C655     1.0000 0.53147  0.17992  0.42777  Biso   1.000  C
  C656     1.0000 0.09623  0.44705  0.73416  Biso   1.000  C
  C657     1.0000 0.80121  0.85646  0.00495  Biso   1.000  C
  C658     1.0000 0.99481  0.19370  0.10385  Biso   1.000  C
  C659     1.0000 0.59763  0.47031  0.80454  Biso   1.000  C
  C660     1.0000 0.29320  0.88697  0.54646  Biso   1.000  C
  C661     1.0000 0.02860  0.25847  0.60764  Biso   1.000  C
  C662     1.0000 0.60141  0.97364  0.30399  Biso   1.000  C
  C663     1.0000 0.30234  0.59254  0.01350  Biso   1.000  C
  C664     1.0000 0.49626  0.26292  0.92481  Biso   1.000  C
  C665     1.0000 0.09949  0.97000  0.23649  Biso   1.000  C
  C666     1.0000 0.79148  0.57065  0.51850  Biso   1.000  C
  C667     1.0000 0.51369  0.76626  0.61589  Biso   1.000  C
  C668     1.0000 0.92463  0.49374  0.30377  Biso   1.000  C
  C669     1.0000 0.20953  0.09173  0.02743  Biso   1.000  C
  C670     1.0000 0.01685  0.75543  0.92990  Biso   1.000  C
  C671     1.0000 0.42133  0.45540  0.23205  Biso   1.000  C
  C672     1.0000 0.72181  0.06404  0.51257  Biso   1.000  C
  C673     1.0000 0.20471  0.96801  0.83140  Biso   1.000  C
  C674     1.0000 0.79964  0.15394  0.02685  Biso   1.000  C
  C675     1.0000 0.99849  0.78760  0.22458  Biso   1.000  C
  C676     1.0000 0.70793  0.95007  0.70379  Biso   1.000  C
  C677     1.0000 0.32376  0.18157  0.50961  Biso   1.000  C
  C678     1.0000 0.48908  0.77973  0.31996  Biso   1.000  C
  C679     1.0000 0.29987  0.45654  0.83896  Biso   1.000  C
  C680     1.0000 0.71579  0.65486  0.00583  Biso   1.000  C
  C681     1.0000 0.51891  0.27913  0.22360  Biso   1.000  C
  C682     1.0000 0.79699  0.45372  0.70333  Biso   1.000  C
  C683     1.0000 0.19208  0.68054  0.53263  Biso   1.000  C
  C684     1.0000 0.01440  0.29136  0.31098  Biso   1.000  C
  C685     1.0000 0.80192  0.97637  0.20734  Biso   1.000  C
  C686     1.0000 0.21199  0.79495  0.03111  Biso   1.000  C
  C687     1.0000 0.01319  0.15595  0.81326  Biso   1.000  C
  C688     1.0000 0.30287  0.99025  0.33429  Biso   1.000  C
  C689     1.0000 0.69157  0.76934  0.52839  Biso   1.000  C
  C690     1.0000 0.52198  0.16774  0.72619  Biso   1.000  C
  C691     1.0000 0.72078  0.47491  0.20234  Biso   1.000  C
  C692     1.0000 0.29732  0.29482  0.02573  Biso   1.000  C
  C693     1.0000 0.50146  0.67073  0.82362  Biso   1.000  C
  C694     1.0000 0.21919  0.47309  0.33744  Biso   1.000  C
  C695     1.0000 0.82077  0.27028  0.52195  Biso   1.000  C
  C696     1.0000 0.01160  0.65238  0.72254  Biso   1.000  C
  C697     1.0000 0.69503  0.97922  0.31227  Biso   1.000  C
  C698     1.0000 0.32035  0.68698  0.02572  Biso   1.000  C
  C699     1.0000 0.01370  0.26299  0.70265  Biso   1.000  C
  C700     1.0000 0.19349  0.97943  0.22150  Biso   1.000  C
  C701     1.0000 0.80250  0.66491  0.53645  Biso   1.000  C
  C702     1.0000 0.51307  0.27546  0.83229  Biso   1.000  C
  C703     1.0000 0.82872  0.48630  0.31015  Biso   1.000  C
  C704     1.0000 0.18771  0.18453  0.02093  Biso   1.000  C
  C705     1.0000 0.51326  0.77837  0.71047  Biso   1.000  C
  C706     1.0000 0.33063  0.46804  0.22864  Biso   1.000  C
  C707     1.0000 0.71271  0.16067  0.52785  Biso   1.000  C
  C708     1.0000 0.02305  0.76209  0.83363  Biso   1.000  C
  C709     1.0000 0.31448  0.97238  0.72565  Biso   1.000  C
  C710     1.0000 0.68999  0.26296  0.03563  Biso   1.000  C
  C711     1.0000 0.00212  0.67999  0.33229  Biso   1.000  C
  C712     1.0000 0.81798  0.95078  0.81008  Biso   1.000  C
  C713     1.0000 0.21380  0.28827  0.50857  Biso   1.000  C
  C714     1.0000 0.49906  0.66547  0.21662  Biso   1.000  C
  C715     1.0000 0.18932  0.45694  0.73081  Biso   1.000  C
  C716     1.0000 0.82103  0.76270  0.01272  Biso   1.000  C
  C717     1.0000 0.52424  0.17178  0.33474  Biso   1.000  C
  C718     1.0000 0.68987  0.45233  0.81496  Biso   1.000  C
  C719     1.0000 0.29844  0.79108  0.53897  Biso   1.000  C
  C720     1.0000 0.00439  0.18479  0.20018  Biso   1.000  C
  C721     1.0000 0.51147  0.78171  0.29699  Biso   1.000  C
  C722     1.0000 0.30088  0.47175  0.81177  Biso   1.000  C
  C723     1.0000 0.79468  0.27536  0.53891  Biso   1.000  C
  C724     1.0000 0.98100  0.76133  0.22089  Biso   1.000  C
  C725     1.0000 0.76811  0.46481  0.69831  Biso   1.000  C
  C726     1.0000 0.27105  0.29955  0.00939  Biso   1.000  C
  C727     1.0000 0.99757  0.29609  0.28480  Biso   1.000  C
  C728     1.0000 0.23390  0.98043  0.83650  Biso   1.000  C
  C729     1.0000 0.71789  0.77549  0.54592  Biso   1.000  C
  C730     1.0000 0.51193  0.28669  0.25399  Biso   1.000  C
  C731     1.0000 0.73543  0.93722  0.70119  Biso   1.000  C
  C732     1.0000 0.23570  0.79734  0.01138  Biso   1.000  C
  C733     1.0000 0.50855  0.16176  0.75378  Biso   1.000  C
  C734     1.0000 0.71698  0.46138  0.23076  Biso   1.000  C
  C735     1.0000 0.18448  0.70693  0.54716  Biso   1.000  C
  C736     1.0000 0.99669  0.18265  0.81130  Biso   1.000  C
  C737     1.0000 0.24781  0.45882  0.34292  Biso   1.000  C
  C738     1.0000 0.71717  0.67368  0.03103  Biso   1.000  C
  C739     1.0000 0.03092  0.64838  0.74746  Biso   1.000  C
  C740     1.0000 0.78317  0.95193  0.21108  Biso   1.000  C
  C741     1.0000 0.29524  0.17837  0.49763  Biso   1.000  C
  C742     1.0000 0.51845  0.66548  0.79675  Biso   1.000  C
  C743     1.0000 0.27605  0.97366  0.33762  Biso   1.000  C
  C744     1.0000 0.80478  0.17669  0.04673  Biso   1.000  C
  C745     1.0000 0.00845  0.70946  0.33965  Biso   1.000  C
  C746     1.0000 0.28677  0.98658  0.72080  Biso   1.000  C
  C747     1.0000 0.72003  0.26747  0.04822  Biso   1.000  C
  C748     1.0000 0.51591  0.69248  0.21403  Biso   1.000  C
  C749     1.0000 0.79026  0.93603  0.81558  Biso   1.000  C
  C750     1.0000 0.23989  0.29204  0.52856  Biso   1.000  C
  C751     1.0000 0.54007  0.16752  0.30768  Biso   1.000  C
  C752     1.0000 0.21733  0.44218  0.72565  Biso   1.000  C
  C753     1.0000 0.79824  0.76321  0.99215  Biso   1.000  C
  C754     1.0000 0.02720  0.18279  0.22329  Biso   1.000  C
  C755     1.0000 0.68905  0.47318  0.79200  Biso   1.000  C
  C756     1.0000 0.26984  0.79476  0.52852  Biso   1.000  C
  C757     1.0000 0.00235  0.23234  0.69786  Biso   1.000  C
  C758     1.0000 0.69047  0.96321  0.28593  Biso   1.000  C
  C759     1.0000 0.29201  0.68167  0.04030  Biso   1.000  C
  C760     1.0000 0.52804  0.24905  0.83987  Biso   1.000  C
  C761     1.0000 0.21461  0.00255  0.22143  Biso   1.000  C
  C762     1.0000 0.80771  0.69439  0.52347  Biso   1.000  C
  C763     1.0000 0.49116  0.77739  0.73217  Biso   1.000  C
  C764     1.0000 0.80665  0.46385  0.31110  Biso   1.000  C
  C765     1.0000 0.21333  0.18131  0.03826  Biso   1.000  C
  C766     1.0000 0.00956  0.76602  0.80454  Biso   1.000  C
  C767     1.0000 0.33893  0.48543  0.25412  Biso   1.000  C
  C768     1.0000 0.70717  0.19094  0.51561  Biso   1.000  C
  C769     1.0000 0.49077  0.69993  0.82571  Biso   1.000  C
  C770     1.0000 0.80257  0.44120  0.73183  Biso   1.000  C
  C771     1.0000 0.68925  0.74011  0.51742  Biso   1.000  C
  C772     1.0000 0.99435  0.67885  0.72194  Biso   1.000  C
  C773     1.0000 0.27495  0.43799  0.84559  Biso   1.000  C
  C774     1.0000 0.21587  0.77361  0.05416  Biso   1.000  C
  C775     1.0000 0.03291  0.14957  0.78745  Biso   1.000  C
  C776     1.0000 0.70339  0.96698  0.72951  Biso   1.000  C
  C777     1.0000 0.82421  0.24098  0.50948  Biso   1.000  C
  C778     1.0000 0.53599  0.19661  0.72075  Biso   1.000  C
  C779     1.0000 0.19998  0.95311  0.80335  Biso   1.000  C
  C780     1.0000 0.30001  0.26644  0.03914  Biso   1.000  C
  C781     1.0000 0.52450  0.24849  0.21744  Biso   1.000  C
  C782     1.0000 0.21797  0.48724  0.30874  Biso   1.000  C
  C783     1.0000 0.33018  0.20999  0.52028  Biso   1.000  C
  C784     1.0000 0.02980  0.26361  0.31140  Biso   1.000  C
  C785     1.0000 0.74744  0.49047  0.19427  Biso   1.000  C
  C786     1.0000 0.77300  0.15168  0.01141  Biso   1.000  C
  C787     1.0000 0.01464  0.79240  0.25082  Biso   1.000  C
  C788     1.0000 0.30604  0.00671  0.30667  Biso   1.000  C
  C789     1.0000 0.22114  0.68165  0.51850  Biso   1.000  C
  C790     1.0000 0.46945  0.75434  0.32231  Biso   1.000  C
  C791     1.0000 0.80226  0.00067  0.22731  Biso   1.000  C
  C792     1.0000 0.73929  0.65469  0.98485  Biso   1.000  C
  C793     1.0000 0.50748  0.19740  0.33871  Biso   1.000  C
  C794     1.0000 0.30357  0.45245  0.22872  Biso   1.000  C
  C795     1.0000 0.21437  0.26461  0.48736  Biso   1.000  C
  C796     1.0000 0.98656  0.21110  0.19954  Biso   1.000  C
  C797     1.0000 0.83105  0.50486  0.28372  Biso   1.000  C
  C798     1.0000 0.68437  0.23341  0.02437  Biso   1.000  C
  C799     1.0000 0.99290  0.67321  0.30303  Biso   1.000  C
  C800     1.0000 0.19719  0.95763  0.24474  Biso   1.000  C
  C801     1.0000 0.30432  0.76247  0.55254  Biso   1.000  C
  C802     1.0000 0.48028  0.66223  0.24175  Biso   1.000  C
  C803     1.0000 0.72104  0.99860  0.31523  Biso   1.000  C
  C804     1.0000 0.82164  0.73745  0.03290  Biso   1.000  C
  C805     1.0000 0.53503  0.75438  0.71224  Biso   1.000  C
  C806     1.0000 0.71407  0.43165  0.81297  Biso   1.000  C
  C807     1.0000 0.77336  0.65938  0.54783  Biso   1.000  C
  C808     1.0000 0.03476  0.73282  0.83881  Biso   1.000  C
  C809     1.0000 0.18399  0.46542  0.76161  Biso   1.000  C
  C810     1.0000 0.32826  0.71893  0.01844  Biso   1.000  C
  C811     1.0000 0.03037  0.26828  0.73024  Biso   1.000  C
  C812     1.0000 0.82191  0.96618  0.78159  Biso   1.000  C
  C813     1.0000 0.74061  0.15508  0.54218  Biso   1.000  C
  C814     1.0000 0.50146  0.27726  0.80248  Biso   1.000  C
  C815     1.0000 0.31847  0.95281  0.74954  Biso   1.000  C
  C816     1.0000 0.18590  0.21036  0.00300  Biso   1.000  C
  C817     1.0000 0.00139  0.20234  0.78990  Biso   1.000  C
  C818     1.0000 0.76226  0.95376  0.23283  Biso   1.000  C
  C819     1.0000 0.25838  0.77760  0.01309  Biso   1.000  C
  C820     1.0000 0.51252  0.18157  0.77522  Biso   1.000  C
  C821     1.0000 0.25624  0.97246  0.31604  Biso   1.000  C
  C822     1.0000 0.73859  0.75391  0.55109  Biso   1.000  C
  C823     1.0000 0.51936  0.68531  0.77473  Biso   1.000  C
  C824     1.0000 0.74075  0.46332  0.24887  Biso   1.000  C
  C825     1.0000 0.24845  0.27882  0.00692  Biso   1.000  C
  C826     1.0000 0.03347  0.66941  0.76899  Biso   1.000  C
  C827     1.0000 0.27015  0.46011  0.32165  Biso   1.000  C
  C828     1.0000 0.77290  0.25365  0.54185  Biso   1.000  C
  C829     1.0000 0.97797  0.74117  0.24360  Biso   1.000  C
  C830     1.0000 0.25485  0.97861  0.81394  Biso   1.000  C
  C831     1.0000 0.78164  0.19675  0.05088  Biso   1.000  C
  C832     1.0000 0.51285  0.75882  0.27607  Biso   1.000  C
  C833     1.0000 0.75758  0.93969  0.72211  Biso   1.000  C
  C834     1.0000 0.27390  0.19922  0.49848  Biso   1.000  C
  C835     1.0000 0.51238  0.26531  0.27624  Biso   1.000  C
  C836     1.0000 0.27858  0.46580  0.79133  Biso   1.000  C
  C837     1.0000 0.73848  0.69533  0.03159  Biso   1.000  C
  C838     1.0000 0.99719  0.27706  0.26206  Biso   1.000  C
  C839     1.0000 0.74716  0.46362  0.71956  Biso   1.000  C
  C840     1.0000 0.20477  0.72828  0.55102  Biso   1.000  C
  C841     1.0000 0.22049  0.95443  0.78133  Biso   1.000  C
  C842     1.0000 0.74993  0.17039  0.01622  Biso   1.000  C
  C843     1.0000 0.01338  0.77111  0.27258  Biso   1.000  C
  C844     1.0000 0.72480  0.96999  0.75064  Biso   1.000  C
  C845     1.0000 0.31005  0.23231  0.51800  Biso   1.000  C
  C846     1.0000 0.47172  0.73156  0.30130  Biso   1.000  C
  C847     1.0000 0.25219  0.43678  0.82513  Biso   1.000  C
  C848     1.0000 0.75907  0.67682  0.98478  Biso   1.000  C
  C849     1.0000 0.52146  0.22714  0.23912  Biso   1.000  C
  C850     1.0000 0.78171  0.44474  0.75277  Biso   1.000  C
  C851     1.0000 0.24077  0.70327  0.52303  Biso   1.000  C
  C852     1.0000 0.02654  0.24345  0.28928  Biso   1.000  C
  C853     1.0000 0.78449  0.99954  0.25029  Biso   1.000  C
  C854     1.0000 0.23790  0.75454  0.05701  Biso   1.000  C
  C855     1.0000 0.03611  0.17070  0.76702  Biso   1.000  C
  C856     1.0000 0.28472  0.00367  0.28565  Biso   1.000  C
  C857     1.0000 0.71112  0.71982  0.52248  Biso   1.000  C
  C858     1.0000 0.53749  0.21587  0.74301  Biso   1.000  C
  C859     1.0000 0.77193  0.48926  0.21302  Biso   1.000  C
  C860     1.0000 0.27765  0.24656  0.03854  Biso   1.000  C
  C861     1.0000 0.49330  0.72131  0.80268  Biso   1.000  C
  C862     1.0000 0.24136  0.48901  0.28986  Biso   1.000  C
  C863     1.0000 0.80232  0.21961  0.51536  Biso   1.000  C
  C864     1.0000 0.99567  0.69730  0.74585  Biso   1.000  C
  C865     1.0000 0.70923  0.47319  0.77027  Biso   1.000  C
  C866     1.0000 0.78621  0.71450  0.52626  Biso   1.000  C
  C867     1.0000 0.49063  0.75583  0.75297  Biso   1.000  C
  C868     1.0000 0.23754  0.43784  0.74720  Biso   1.000  C
  C869     1.0000 0.27178  0.70545  0.04124  Biso   1.000  C
  C870     1.0000 0.00827  0.74380  0.78464  Biso   1.000  C
  C871     1.0000 0.76852  0.93465  0.79431  Biso   1.000  C
  C872     1.0000 0.73081  0.21057  0.51711  Biso   1.000  C
  C873     1.0000 0.00921  0.21125  0.71825  Biso   1.000  C
  C874     1.0000 0.26522  0.98347  0.74039  Biso   1.000  C
  C875     1.0000 0.23458  0.20373  0.03775  Biso   1.000  C
  C876     1.0000 0.53100  0.22793  0.81872  Biso   1.000  C
  C877     1.0000 0.31857  0.48727  0.27573  Biso   1.000  C
  C878     1.0000 0.26101  0.27085  0.52925  Biso   1.000  C
  C879     1.0000 0.53858  0.19084  0.28815  Biso   1.000  C
  C880     1.0000 0.78727  0.46134  0.28810  Biso   1.000  C
  C881     1.0000 0.73975  0.24483  0.04699  Biso   1.000  C
  C882     1.0000 0.03004  0.20650  0.24141  Biso   1.000  C
  C883     1.0000 0.23512  0.00640  0.24315  Biso   1.000  C
  C884     1.0000 0.24845  0.77554  0.53124  Biso   1.000  C
  C885     1.0000 0.00223  0.73093  0.31990  Biso   1.000  C
  C886     1.0000 0.71363  0.96285  0.26719  Biso   1.000  C
  C887     1.0000 0.77750  0.74227  0.99064  Biso   1.000  C
  C888     1.0000 0.51363  0.71444  0.23469  Biso   1.000  C
  C889     1.0000 0.74269  0.99889  0.29565  Biso   1.000  C
  C890     1.0000 0.30697  0.73952  0.01931  Biso   1.000  C
  C891     1.0000 0.03317  0.24577  0.75037  Biso   1.000  C
  C892     1.0000 0.21717  0.96227  0.26672  Biso   1.000  C
  C893     1.0000 0.75204  0.68082  0.54808  Biso   1.000  C
  C894     1.0000 0.50636  0.25592  0.78274  Biso   1.000  C
  C895     1.0000 0.80931  0.50331  0.26238  Biso   1.000  C
  C896     1.0000 0.20770  0.23102  0.00244  Biso   1.000  C
  C897     1.0000 0.53472  0.73418  0.73342  Biso   1.000  C
  C898     1.0000 0.28329  0.45497  0.25129  Biso   1.000  C
  C899     1.0000 0.76231  0.17647  0.54324  Biso   1.000  C
  C900     1.0000 0.03286  0.71162  0.81804  Biso   1.000  C
  C901     1.0000 0.29484  0.94878  0.76948  Biso   1.000  C
  C902     1.0000 0.70618  0.21308  0.02501  Biso   1.000  C
  C903     1.0000 0.98956  0.69543  0.28229  Biso   1.000  C
  C904     1.0000 0.79907  0.96876  0.76269  Biso   1.000  C
  C905     1.0000 0.23749  0.24677  0.48802  Biso   1.000  C
  C906     1.0000 0.47885  0.68442  0.26227  Biso   1.000  C
  C907     1.0000 0.20411  0.46203  0.78265  Biso   1.000  C
  C908     1.0000 0.80296  0.71488  0.02846  Biso   1.000  C
  C909     1.0000 0.50348  0.21906  0.31666  Biso   1.000  C
  C910     1.0000 0.73515  0.43226  0.79173  Biso   1.000  C
  C911     1.0000 0.28086  0.74283  0.55637  Biso   1.000  C
  C912     1.0000 0.99081  0.23297  0.21882  Biso   1.000  C
  C913     1.0000 0.75348  0.45247  0.74633  Biso   1.000  C
  C914     1.0000 0.73525  0.72750  0.53838  Biso   1.000  C
  C915     1.0000 0.50983  0.71381  0.77884  Biso   1.000  C
  C916     1.0000 0.25418  0.44853  0.79664  Biso   1.000  C
  C917     1.0000 0.25823  0.75442  0.03391  Biso   1.000  C
  C918     1.0000 0.01559  0.69331  0.76898  Biso   1.000  C
  C919     1.0000 0.75095  0.95629  0.74650  Biso   1.000  C
  C920     1.0000 0.77826  0.22673  0.53042  Biso   1.000  C
  C921     1.0000 0.02239  0.19831  0.76912  Biso   1.000  C
  C922     1.0000 0.24864  0.96468  0.78794  Biso   1.000  C
  C923     1.0000 0.25318  0.25208  0.02061  Biso   1.000  C
  C924     1.0000 0.52539  0.20787  0.76940  Biso   1.000  C
  C925     1.0000 0.26695  0.47527  0.29746  Biso   1.000  C
  C926     1.0000 0.28222  0.22691  0.50829  Biso   1.000  C
  C927     1.0000 0.51702  0.23569  0.26873  Biso   1.000  C
  C928     1.0000 0.76653  0.47783  0.24044  Biso   1.000  C
  C929     1.0000 0.75495  0.19466  0.03519  Biso   1.000  C
  C930     1.0000 0.01103  0.25051  0.26511  Biso   1.000  C
  C931     1.0000 0.25996  0.98646  0.28864  Biso   1.000  C
  C932     1.0000 0.23308  0.72616  0.53948  Biso   1.000  C
  C933     1.0000 0.99535  0.74779  0.26823  Biso   1.000  C
  C934     1.0000 0.76430  0.97619  0.25267  Biso   1.000  C
  C935     1.0000 0.75856  0.69572  0.00934  Biso   1.000  C
  C936     1.0000 0.49149  0.73599  0.27817  Biso   1.000  C
  C937     1.0000 0.73397  0.21785  0.03571  Biso   1.000  C
  C938     1.0000 0.99564  0.72455  0.29115  Biso   1.000  C
  C939     1.0000 0.26937  0.96541  0.76441  Biso   1.000  C
  C940     1.0000 0.26106  0.24918  0.50781  Biso   1.000  C
  C941     1.0000 0.49453  0.71087  0.25783  Biso   1.000  C
  C942     1.0000 0.77354  0.95327  0.76904  Biso   1.000  C
  C943     1.0000 0.78042  0.71804  0.00896  Biso   1.000  C
  C944     1.0000 0.51912  0.21473  0.29155  Biso   1.000  C
  C945     1.0000 0.23057  0.44871  0.77553  Biso   1.000  C
  C946     1.0000 0.25374  0.74936  0.54394  Biso   1.000  C
  C947     1.0000 0.01158  0.22987  0.24009  Biso   1.000  C
  C948     1.0000 0.73274  0.45295  0.77019  Biso   1.000  C
  C949     1.0000 0.27981  0.73226  0.03037  Biso   1.000  C
  C950     1.0000 0.02364  0.21764  0.74377  Biso   1.000  C
  C951     1.0000 0.73935  0.97864  0.27177  Biso   1.000  C
  C952     1.0000 0.75851  0.70678  0.53667  Biso   1.000  C
  C953     1.0000 0.52132  0.23093  0.79080  Biso   1.000  C
  C954     1.0000 0.23755  0.98523  0.26523  Biso   1.000  C
  C955     1.0000 0.23258  0.22762  0.02021  Biso   1.000  C
  C956     1.0000 0.51222  0.73513  0.75456  Biso   1.000  C
  C957     1.0000 0.78878  0.48153  0.26495  Biso   1.000  C
  C958     1.0000 0.75621  0.20372  0.53114  Biso   1.000  C
  C959     1.0000 0.01967  0.71651  0.79188  Biso   1.000  C
  C960     1.0000 0.29108  0.47415  0.27401  Biso   1.000  C
  Cu1      1.0000 0.99789  0.45905  0.66967  Biso   1.000  Cu
  Cu2      1.0000 0.66024  0.96675  0.51057  Biso   1.000  Cu
  Cu3      1.0000 0.51460  0.62936  0.02157  Biso   1.000  Cu
  Cu4      1.0000 0.50122  0.47556  0.86750  Biso   1.000  Cu
  Cu5      1.0000 0.15556  0.98816  0.02395  Biso   1.000  Cu
  Cu6      1.0000 0.00013  0.63076  0.52276  Biso   1.000  Cu
  Cu7      1.0000 0.50902  0.97071  0.67787  Biso   1.000  Cu
  Cu8      1.0000 0.85317  0.46941  0.50841  Biso   1.000  Cu
  Cu9      1.0000 0.99471  0.12708  0.01057  Biso   1.000  Cu
  Cu10     1.0000 0.00799  0.96102  0.86247  Biso   1.000  Cu
  Cu11     1.0000 0.35399  0.48718  0.03040  Biso   1.000  Cu
  Cu12     1.0000 0.51601  0.12460  0.52940  Biso   1.000  Cu
  Cu13     1.0000 0.01966  0.48214  0.37034  Biso   1.000  Cu
  Cu14     1.0000 0.35820  0.98311  0.52937  Biso   1.000  Cu
  Cu15     1.0000 0.49566  0.31965  0.02801  Biso   1.000  Cu
  Cu16     1.0000 0.51937  0.47370  0.17365  Biso   1.000  Cu
  Cu17     1.0000 0.85215  0.96126  0.01171  Biso   1.000  Cu
  Cu18     1.0000 0.01316  0.32054  0.50995  Biso   1.000  Cu
  Cu19     1.0000 0.50211  0.97721  0.36324  Biso   1.000  Cu
  Cu20     1.0000 0.16353  0.48119  0.52946  Biso   1.000  Cu
  Cu21     1.0000 0.01093  0.81576  0.02785  Biso   1.000  Cu
  Cu22     1.0000 0.99800  0.98288  0.17226  Biso   1.000  Cu
  Cu23     1.0000 0.66073  0.46162  0.01065  Biso   1.000  Cu
  Cu24     1.0000 0.49531  0.82284  0.51696  Biso   1.000  Cu
  Cu25     1.0000 0.21002  0.99076  0.02804  Biso   1.000  Cu
  Cu26     1.0000 0.99045  0.17958  0.00425  Biso   1.000  Cu
  Cu27     1.0000 0.99367  0.98786  0.22770  Biso   1.000  Cu
  Cu28     1.0000 0.71318  0.96107  0.50832  Biso   1.000  Cu
  Cu29     1.0000 0.52288  0.17766  0.52753  Biso   1.000  Cu
  Cu30     1.0000 0.49833  0.97837  0.30796  Biso   1.000  Cu
  Cu31     1.0000 0.30006  0.48909  0.03255  Biso   1.000  Cu
  Cu32     1.0000 0.51931  0.68292  0.02133  Biso   1.000  Cu
  Cu33     1.0000 0.52280  0.47232  0.22709  Biso   1.000  Cu
  Cu34     1.0000 0.79954  0.46948  0.50076  Biso   1.000  Cu
  Cu35     1.0000 0.99838  0.68365  0.52675  Biso   1.000  Cu
  Cu36     1.0000 0.02525  0.48884  0.31523  Biso   1.000  Cu
  Cu37     1.0000 0.79824  0.95888  0.00802  Biso   1.000  Cu
  Cu38     1.0000 0.01527  0.76186  0.03073  Biso   1.000  Cu
  Cu39     1.0000 0.01167  0.95842  0.80716  Biso   1.000  Cu
  Cu40     1.0000 0.30492  0.98678  0.53241  Biso   1.000  Cu
  Cu41     1.0000 0.49277  0.76887  0.51475  Biso   1.000  Cu
  Cu42     1.0000 0.51395  0.96876  0.73325  Biso   1.000  Cu
  Cu43     1.0000 0.71501  0.45617  0.00771  Biso   1.000  Cu
  Cu44     1.0000 0.49352  0.26370  0.03023  Biso   1.000  Cu
  Cu45     1.0000 0.49431  0.47373  0.81438  Biso   1.000  Cu
  Cu46     1.0000 0.21719  0.48443  0.53481  Biso   1.000  Cu
  Cu47     1.0000 0.01752  0.26674  0.50667  Biso   1.000  Cu
  Cu48     1.0000 0.99325  0.45849  0.72285  Biso   1.000  Cu
  H1       1.0000 0.22625  0.77938  0.52260  Biso   1.000  H
  H2       1.0000 0.54043  0.20677  0.82414  Biso   1.000  H
  H3       1.0000 0.77320  0.44333  0.29025  Biso   1.000  H
  H4       1.0000 0.76049  0.74514  0.97485  Biso   1.000  H
  H5       1.0000 0.00161  0.18931  0.71462  Biso   1.000  H
  H6       1.0000 0.32540  0.50029  0.29363  Biso   1.000  H
  H7       1.0000 0.27801  0.26989  0.54592  Biso   1.000  H
  H8       1.0000 0.99407  0.74894  0.76525  Biso   1.000  H
  H9       1.0000 0.71012  0.94906  0.24883  Biso   1.000  H
  H10      1.0000 0.76216  0.25142  0.05669  Biso   1.000  H
  H11      1.0000 0.47099  0.75833  0.76630  Biso   1.000  H
  H12      1.0000 0.24836  0.02611  0.24386  Biso   1.000  H
  H13      1.0000 0.72878  0.23249  0.50776  Biso   1.000  H
  H14      1.0000 0.52545  0.73515  0.22941  Biso   1.000  H
  H15      1.0000 0.25769  0.42574  0.74479  Biso   1.000  H
  H16      1.0000 0.25301  0.20278  0.05304  Biso   1.000  H
  H17      1.0000 0.00314  0.75346  0.32644  Biso   1.000  H
  H18      1.0000 0.70705  0.49113  0.75616  Biso   1.000  H
  H19      1.0000 0.79162  0.73636  0.51888  Biso   1.000  H
  H20      1.0000 0.04779  0.20723  0.25772  Biso   1.000  H
  H21      1.0000 0.24530  0.99595  0.73657  Biso   1.000  H
  H22      1.0000 0.25011  0.70168  0.04777  Biso   1.000  H
  H23      1.0000 0.55422  0.18941  0.27070  Biso   1.000  H
  H24      1.0000 0.74835  0.92214  0.79673  Biso   1.000  H
  H25      1.0000 0.27615  0.98806  0.81792  Biso   1.000  H
  H26      1.0000 0.78511  0.21437  0.06627  Biso   1.000  H
  H27      1.0000 0.96616  0.71972  0.24225  Biso   1.000  H
  H28      1.0000 0.77773  0.92831  0.72235  Biso   1.000  H
  H29      1.0000 0.25236  0.19387  0.49012  Biso   1.000  H
  H30      1.0000 0.53101  0.75943  0.26062  Biso   1.000  H
  H31      1.0000 0.27739  0.48173  0.77293  Biso   1.000  H
  H32      1.0000 0.74062  0.71015  0.05073  Biso   1.000  H
  H33      1.0000 0.51009  0.27323  0.29845  Biso   1.000  H
  H34      1.0000 0.72449  0.47047  0.71508  Biso   1.000  H
  H35      1.0000 0.19849  0.74740  0.56494  Biso   1.000  H
  H36      1.0000 0.98239  0.28311  0.24401  Biso   1.000  H
  H37      1.0000 0.74605  0.93609  0.23492  Biso   1.000  H
  H38      1.0000 0.27325  0.77648  0.99439  Biso   1.000  H
  H39      1.0000 0.98791  0.22255  0.78937  Biso   1.000  H
  H40      1.0000 0.23674  0.96129  0.32124  Biso   1.000  H
  H41      1.0000 0.75889  0.75973  0.56509  Biso   1.000  H
  H42      1.0000 0.50288  0.17588  0.79601  Biso   1.000  H
  H43      1.0000 0.73579  0.45648  0.26970  Biso   1.000  H
  H44      1.0000 0.22929  0.28388  0.99325  Biso   1.000  H
  H45      1.0000 0.52643  0.67919  0.75257  Biso   1.000  H
  H46      1.0000 0.28934  0.44724  0.32186  Biso   1.000  H
  H47      1.0000 0.75261  0.25762  0.55261  Biso   1.000  H
  H48      1.0000 0.04813  0.66377  0.78708  Biso   1.000  H
  H49      1.0000 0.24001  0.49884  0.26905  Biso   1.000  H
  H50      1.0000 0.31656  0.25302  0.52541  Biso   1.000  H
  H51      1.0000 0.52003  0.20450  0.23375  Biso   1.000  H
  H52      1.0000 0.79358  0.49576  0.20917  Biso   1.000  H
  H53      1.0000 0.72818  0.16259  0.00919  Biso   1.000  H
  H54      1.0000 0.03557  0.22168  0.29143  Biso   1.000  H
  H55      1.0000 0.28913  0.01327  0.26382  Biso   1.000  H
  H56      1.0000 0.26279  0.70275  0.51355  Biso   1.000  H
  H57      1.0000 0.02972  0.77369  0.29039  Biso   1.000  H
  H58      1.0000 0.78485  0.01671  0.26759  Biso   1.000  H
  H59      1.0000 0.77617  0.67503  0.96793  Biso   1.000  H
  H60      1.0000 0.45753  0.71229  0.30419  Biso   1.000  H
  H61      1.0000 0.78602  0.43841  0.77468  Biso   1.000  H
  H62      1.0000 0.71144  0.69867  0.51365  Biso   1.000  H
  H63      1.0000 0.47928  0.74078  0.80310  Biso   1.000  H
  H64      1.0000 0.23264  0.42388  0.82909  Biso   1.000  H
  H65      1.0000 0.23674  0.73729  0.07237  Biso   1.000  H
  H66      1.0000 0.97975  0.71671  0.74605  Biso   1.000  H
  H67      1.0000 0.72055  0.98274  0.77077  Biso   1.000  H
  H68      1.0000 0.80467  0.19728  0.50727  Biso   1.000  H
  H69      1.0000 0.05247  0.16692  0.74939  Biso   1.000  H
  H70      1.0000 0.21545  0.94477  0.76020  Biso   1.000  H
  H71      1.0000 0.28452  0.22608  0.04659  Biso   1.000  H
  H72      1.0000 0.54771  0.23644  0.73795  Biso   1.000  H
  H73      1.0000 0.75310  0.41659  0.79303  Biso   1.000  H
  H74      1.0000 0.73098  0.67812  0.55820  Biso   1.000  H
  H75      1.0000 0.55190  0.71815  0.73538  Biso   1.000  H
  H76      1.0000 0.20286  0.47320  0.80295  Biso   1.000  H
  H77      1.0000 0.31217  0.76230  0.01007  Biso   1.000  H
  H78      1.0000 0.04269  0.69093  0.82182  Biso   1.000  H
  H79      1.0000 0.80249  0.98143  0.74288  Biso   1.000  H
  H80      1.0000 0.78367  0.17166  0.55220  Biso   1.000  H
  H81      1.0000 0.04237  0.25265  0.77152  Biso   1.000  H
  H82      1.0000 0.29701  0.93671  0.78879  Biso   1.000  H
  H83      1.0000 0.20274  0.24804  0.98682  Biso   1.000  H
  H84      1.0000 0.49984  0.26065  0.76200  Biso   1.000  H
  H85      1.0000 0.26364  0.44400  0.25096  Biso   1.000  H
  H86      1.0000 0.23655  0.23024  0.47147  Biso   1.000  H
  H87      1.0000 0.48860  0.23718  0.31969  Biso   1.000  H
  H88      1.0000 0.81079  0.52021  0.24596  Biso   1.000  H
  H89      1.0000 0.69711  0.19063  0.01784  Biso   1.000  H
  H90      1.0000 0.97861  0.25291  0.21564  Biso   1.000  H
  H91      1.0000 0.22178  0.94622  0.28383  Biso   1.000  H
  H92      1.0000 0.28215  0.72344  0.56812  Biso   1.000  H
  H93      1.0000 0.98381  0.68900  0.26025  Biso   1.000  H
  H94      1.0000 0.76182  0.01053  0.29662  Biso   1.000  H
  H95      1.0000 0.80154  0.69559  0.04183  Biso   1.000  H
  H96      1.0000 0.46337  0.68314  0.27945  Biso   1.000  H
  H97      1.0000 0.87569  0.96451  0.91880  Biso   1.000  H
  H98      1.0000 0.92057  0.83047  0.01954  Biso   1.000  H
  H99      1.0000 0.02008  0.87090  0.88958  Biso   1.000  H
  H100     1.0000 0.38321  0.97879  0.62301  Biso   1.000  H
  H101     1.0000 0.40892  0.84547  0.53541  Biso   1.000  H
  H102     1.0000 0.51585  0.88453  0.65293  Biso   1.000  H
  H103     1.0000 0.63336  0.45645  0.92083  Biso   1.000  H
  H104     1.0000 0.59189  0.33384  0.02888  Biso   1.000  H
  H105     1.0000 0.49742  0.37845  0.89476  Biso   1.000  H
  H106     1.0000 0.13850  0.46763  0.62034  Biso   1.000  H
  H107     1.0000 0.10855  0.34757  0.51780  Biso   1.000  H
  H108     1.0000 0.00800  0.37109  0.64804  Biso   1.000  H
  H109     1.0000 0.13198  0.98128  0.11398  Biso   1.000  H
  H110     1.0000 0.08731  0.11290  0.01078  Biso   1.000  H
  H111     1.0000 0.99510  0.07580  0.14130  Biso   1.000  H
  H112     1.0000 0.63731  0.96148  0.41566  Biso   1.000  H
  H113     1.0000 0.60711  0.09763  0.53228  Biso   1.000  H
  H114     1.0000 0.52432  0.06130  0.38980  Biso   1.000  H
  H115     1.0000 0.38445  0.48405  0.11992  Biso   1.000  H
  H116     1.0000 0.42051  0.61521  0.02816  Biso   1.000  H
  H117     1.0000 0.51657  0.56423  0.15299  Biso   1.000  H
  H118     1.0000 0.88573  0.48306  0.41647  Biso   1.000  H
  H119     1.0000 0.90818  0.60679  0.53186  Biso   1.000  H
  H120     1.0000 0.00334  0.57355  0.39342  Biso   1.000  H
  H121     1.0000 0.09783  0.96968  0.88676  Biso   1.000  H
  H122     1.0000 0.86513  0.05246  0.00741  Biso   1.000  H
  H123     1.0000 0.00341  0.84208  0.11654  Biso   1.000  H
  H124     1.0000 0.60053  0.96255  0.64713  Biso   1.000  H
  H125     1.0000 0.38050  0.07006  0.52225  Biso   1.000  H
  H126     1.0000 0.48397  0.84459  0.42445  Biso   1.000  H
  H127     1.0000 0.40591  0.48054  0.88992  Biso   1.000  H
  H128     1.0000 0.64799  0.55205  0.00431  Biso   1.000  H
  H129     1.0000 0.50958  0.33843  0.11737  Biso   1.000  H
  H130     1.0000 0.90182  0.45826  0.64059  Biso   1.000  H
  H131     1.0000 0.14043  0.57133  0.51941  Biso   1.000  H
  H132     1.0000 0.01500  0.35017  0.41738  Biso   1.000  H
  H133     1.0000 0.90758  0.97943  0.14688  Biso   1.000  H
  H134     1.0000 0.14237  0.89201  0.02460  Biso   1.000  H
  H135     1.0000 0.99316  0.10041  0.91873  Biso   1.000  H
  H136     1.0000 0.41142  0.98131  0.38760  Biso   1.000  H
  H137     1.0000 0.63393  0.87744  0.51051  Biso   1.000  H
  H138     1.0000 0.51594  0.10482  0.62025  Biso   1.000  H
  H139     1.0000 0.60894  0.48081  0.14776  Biso   1.000  H
  H140     1.0000 0.37123  0.39088  0.03153  Biso   1.000  H
  H141     1.0000 0.49464  0.60860  0.92848  Biso   1.000  H
  H142     1.0000 0.10930  0.47556  0.39559  Biso   1.000  H
  H143     1.0000 0.87673  0.37803  0.49749  Biso   1.000  H
  H144     1.0000 0.00230  0.60165  0.60932  Biso   1.000  H
  H145     1.0000 0.59156  0.47096  0.88292  Biso   1.000  H
  H146     1.0000 0.86577  0.56293  0.52830  Biso   1.000  H
  H147     1.0000 0.51257  0.84448  0.60580  Biso   1.000  H
  H148     1.0000 0.09129  0.45700  0.65872  Biso   1.000  H
  H149     1.0000 0.37615  0.57851  0.02585  Biso   1.000  H
  H150     1.0000 0.01368  0.82934  0.93347  Biso   1.000  H
  H151     1.0000 0.92079  0.96217  0.87707  Biso   1.000  H
  H152     1.0000 0.64689  0.05785  0.52268  Biso   1.000  H
  H153     1.0000 0.01757  0.33250  0.60322  Biso   1.000  H
  H154     1.0000 0.42350  0.98109  0.66490  Biso   1.000  H
  H155     1.0000 0.13296  0.07555  0.01996  Biso   1.000  H
  H156     1.0000 0.49915  0.33940  0.93498  Biso   1.000  H
  H157     1.0000 0.43048  0.47730  0.15906  Biso   1.000  H
  H158     1.0000 0.15147  0.39407  0.51514  Biso   1.000  H
  H159     1.0000 0.53102  0.10399  0.43569  Biso   1.000  H
  H160     1.0000 0.93087  0.49172  0.37683  Biso   1.000  H
  H161     1.0000 0.63218  0.37340  0.02813  Biso   1.000  H
  H162     1.0000 0.99482  0.11682  0.10024  Biso   1.000  H
  H163     1.0000 0.08745  0.97771  0.15994  Biso   1.000  H
  H164     1.0000 0.36741  0.88752  0.53733  Biso   1.000  H
  H165     1.0000 0.98830  0.61252  0.43325  Biso   1.000  H
  H166     1.0000 0.59024  0.96844  0.37758  Biso   1.000  H
  H167     1.0000 0.87606  0.87077  0.01352  Biso   1.000  H
  H168     1.0000 0.51214  0.60488  0.11014  Biso   1.000  H
  H169     1.0000 0.00753  0.05395  0.87930  Biso   1.000  H
  H170     1.0000 0.86589  0.96858  0.10481  Biso   1.000  H
  H171     1.0000 0.10094  0.84652  0.03179  Biso   1.000  H
  H172     1.0000 0.50989  0.06001  0.66438  Biso   1.000  H
  H173     1.0000 0.37826  0.98202  0.43014  Biso   1.000  H
  H174     1.0000 0.59120  0.83567  0.50903  Biso   1.000  H
  H175     1.0000 0.49012  0.56463  0.88831  Biso   1.000  H
  H176     1.0000 0.64575  0.47503  0.10603  Biso   1.000  H
  H177     1.0000 0.41005  0.34501  0.02560  Biso   1.000  H
  H178     1.0000 0.99954  0.55261  0.65054  Biso   1.000  H
  H179     1.0000 0.14919  0.48321  0.43638  Biso   1.000  H
  H180     1.0000 0.92142  0.33764  0.50034  Biso   1.000  H
  H181     1.0000 0.99810  0.88842  0.15633  Biso   1.000  H
  H182     1.0000 0.13976  0.98420  0.93418  Biso   1.000  H
  H183     1.0000 0.90561  0.09655  0.01435  Biso   1.000  H
  H184     1.0000 0.48320  0.88727  0.38132  Biso   1.000  H
  H185     1.0000 0.64385  0.95306  0.59977  Biso   1.000  H
  H186     1.0000 0.42111  0.11027  0.51335  Biso   1.000  H
  H187     1.0000 0.52539  0.38034  0.15341  Biso   1.000  H
  H188     1.0000 0.37035  0.48769  0.93579  Biso   1.000  H
  H189     1.0000 0.60531  0.60077  0.00081  Biso   1.000  H
  H190     1.0000 0.01135  0.39264  0.37940  Biso   1.000  H
  H191     1.0000 0.86412  0.45802  0.60032  Biso   1.000  H
  H192     1.0000 0.09175  0.61097  0.51240  Biso   1.000  H
  H193     1.0000 0.26912  0.84618  0.55401  Biso   1.000  H
  H194     1.0000 0.49643  0.24392  0.88034  Biso   1.000  H
  H195     1.0000 0.88119  0.48868  0.27712  Biso   1.000  H
  H196     1.0000 0.78183  0.81221  0.01289  Biso   1.000  H
  H197     1.0000 0.03039  0.23530  0.64940  Biso   1.000  H
  H198     1.0000 0.38004  0.44788  0.25386  Biso   1.000  H
  H199     1.0000 0.24788  0.34132  0.50174  Biso   1.000  H
  H200     1.0000 0.02284  0.73118  0.88652  Biso   1.000  H
  H201     1.0000 0.64348  0.98194  0.27982  Biso   1.000  H
  H202     1.0000 0.72574  0.31319  0.01886  Biso   1.000  H
  H203     1.0000 0.51514  0.74317  0.65623  Biso   1.000  H
  H204     1.0000 0.14386  0.96906  0.25694  Biso   1.000  H
  H205     1.0000 0.74555  0.10768  0.51231  Biso   1.000  H
  H206     1.0000 0.50746  0.70210  0.16135  Biso   1.000  H
  H207     1.0000 0.13413  0.44278  0.75859  Biso   1.000  H
  H208     1.0000 0.22643  0.13582  0.01906  Biso   1.000  H
  H209     1.0000 0.98052  0.71029  0.38433  Biso   1.000  H
  H210     1.0000 0.64356  0.46443  0.78336  Biso   1.000  H
  H211     1.0000 0.76878  0.61142  0.52482  Biso   1.000  H
  H212     1.0000 0.99642  0.21920  0.14484  Biso   1.000  H
  H213     1.0000 0.36907  0.97461  0.76298  Biso   1.000  H
  H214     1.0000 0.28604  0.63996  0.01099  Biso   1.000  H
  H215     1.0000 0.52558  0.20413  0.38743  Biso   1.000  H
  H216     1.0000 0.87383  0.94490  0.77817  Biso   1.000  H
  H217     1.0000 0.25081  0.47888  0.39288  Biso   1.000  H
  H218     1.0000 0.37687  0.21032  0.49833  Biso   1.000  H
  H219     1.0000 0.54192  0.32838  0.25005  Biso   1.000  H
  H220     1.0000 0.74711  0.45647  0.14735  Biso   1.000  H
  H221     1.0000 0.84807  0.19195  0.02267  Biso   1.000  H
  H222     1.0000 0.02047  0.34708  0.28016  Biso   1.000  H
  H223     1.0000 0.27633  0.99739  0.38896  Biso   1.000  H
  H224     1.0000 0.13917  0.71153  0.52397  Biso   1.000  H
  H225     1.0000 0.99307  0.84109  0.25744  Biso   1.000  H
  H226     1.0000 0.76810  0.95810  0.15615  Biso   1.000  H
  H227     1.0000 0.66827  0.69096  0.00816  Biso   1.000  H
  H228     1.0000 0.48752  0.83147  0.28432  Biso   1.000  H
  H229     1.0000 0.76321  0.44860  0.64673  Biso   1.000  H
  H230     1.0000 0.63699  0.73782  0.53829  Biso   1.000  H
  H231     1.0000 0.48987  0.61554  0.79027  Biso   1.000  H
  H232     1.0000 0.26902  0.45852  0.89342  Biso   1.000  H
  H233     1.0000 0.16429  0.75574  0.03264  Biso   1.000  H
  H234     1.0000 0.00503  0.59933  0.75249  Biso   1.000  H
  H235     1.0000 0.74065  0.94865  0.64827  Biso   1.000  H
  H236     1.0000 0.87473  0.23885  0.52189  Biso   1.000  H
  H237     1.0000 0.00599  0.10240  0.78079  Biso   1.000  H
  H238     1.0000 0.23862  0.96841  0.88928  Biso   1.000  H
  H239     1.0000 0.34898  0.25597  0.02497  Biso   1.000  H
  H240     1.0000 0.53019  0.11638  0.75934  Biso   1.000  H
  H241     1.0000 0.72777  0.44235  0.86431  Biso   1.000  H
  H242     1.0000 0.85430  0.69906  0.55048  Biso   1.000  H
  H243     1.0000 0.50968  0.82579  0.74639  Biso   1.000  H
  H244     1.0000 0.22621  0.47444  0.68648  Biso   1.000  H
  H245     1.0000 0.37856  0.71718  0.03024  Biso   1.000  H
  H246     1.0000 0.03557  0.81358  0.79934  Biso   1.000  H
  H247     1.0000 0.78267  0.96204  0.86101  Biso   1.000  H
  H248     1.0000 0.66237  0.19275  0.53847  Biso   1.000  H
  H249     1.0000 0.00268  0.31174  0.73882  Biso   1.000  H
  H250     1.0000 0.28242  0.97513  0.67222  Biso   1.000  H
  H251     1.0000 0.13605  0.21557  0.01844  Biso   1.000  H
  H252     1.0000 0.51427  0.32720  0.79375  Biso   1.000  H
  H253     1.0000 0.28946  0.48590  0.17862  Biso   1.000  H
  H254     1.0000 0.16364  0.25430  0.49649  Biso   1.000  H
  H255     1.0000 0.51926  0.12183  0.29624  Biso   1.000  H
  H256     1.0000 0.79226  0.48573  0.35950  Biso   1.000  H
  H257     1.0000 0.63322  0.23400  0.04124  Biso   1.000  H
  H258     1.0000 0.00206  0.13478  0.23637  Biso   1.000  H
  H259     1.0000 0.22914  0.98459  0.17008  Biso   1.000  H
  H260     1.0000 0.34583  0.75679  0.52133  Biso   1.000  H
  H261     1.0000 0.03140  0.63467  0.30260  Biso   1.000  H
  H262     1.0000 0.73205  0.97729  0.36277  Biso   1.000  H
  H263     1.0000 0.87181  0.73160  0.02171  Biso   1.000  H
  H264     1.0000 0.49417  0.61222  0.25078  Biso   1.000  H
  H265     1.0000 0.01035  0.19303  0.86083  Biso   1.000  H
  H266     1.0000 0.85109  0.99274  0.24063  Biso   1.000  H
  H267     1.0000 0.24247  0.84829  0.02726  Biso   1.000  H
  H268     1.0000 0.50940  0.19995  0.67417  Biso   1.000  H
  H269     1.0000 0.34773  0.98220  0.29621  Biso   1.000  H
  H270     1.0000 0.72602  0.81800  0.52266  Biso   1.000  H
  H271     1.0000 0.51484  0.70293  0.87631  Biso   1.000  H
  H272     1.0000 0.67505  0.48476  0.23964  Biso   1.000  H
  H273     1.0000 0.27117  0.34571  0.03312  Biso   1.000  H
  H274     1.0000 0.00879  0.68926  0.67403  Biso   1.000  H
  H275     1.0000 0.16401  0.46706  0.29911  Biso   1.000  H
  H276     1.0000 0.78345  0.32169  0.51739  Biso   1.000  H
  H277     1.0000 0.01252  0.75363  0.17895  Biso   1.000  H
  H278     1.0000 0.15641  0.97223  0.79484  Biso   1.000  H
  H279     1.0000 0.77003  0.09859  0.03314  Biso   1.000  H
  H280     1.0000 0.48406  0.74631  0.37329  Biso   1.000  H
  H281     1.0000 0.65898  0.94195  0.73721  Biso   1.000  H
  H282     1.0000 0.29011  0.12863  0.52204  Biso   1.000  H
  H283     1.0000 0.49442  0.24583  0.17390  Biso   1.000  H
  H284     1.0000 0.34874  0.44845  0.80167  Biso   1.000  H
  H285     1.0000 0.74635  0.60305  0.00055  Biso   1.000  H
  H286     1.0000 0.01848  0.25436  0.36062  Biso   1.000  H
  H287     1.0000 0.84829  0.46708  0.73600  Biso   1.000  H
  H288     1.0000 0.22864  0.63386  0.53648  Biso   1.000  H
  H289     1.0000 0.08092  0.20905  0.00596  Biso   1.000  H
  H290     1.0000 0.00230  0.08316  0.23795  Biso   1.000  H
  H291     1.0000 0.22588  0.99185  0.11704  Biso   1.000  H
  H292     1.0000 0.60662  0.19227  0.54780  Biso   1.000  H
  H293     1.0000 0.51007  0.07000  0.29280  Biso   1.000  H
  H294     1.0000 0.73287  0.96784  0.41742  Biso   1.000  H
  H295     1.0000 0.43051  0.70874  0.03282  Biso   1.000  H
  H296     1.0000 0.50289  0.56000  0.24771  Biso   1.000  H
  H297     1.0000 0.29011  0.49425  0.12597  Biso   1.000  H
  H298     1.0000 0.90572  0.70095  0.54943  Biso   1.000  H
  H299     1.0000 0.03994  0.57838  0.30097  Biso   1.000  H
  H300     1.0000 0.79028  0.48432  0.41555  Biso   1.000  H
  H301     1.0000 0.92366  0.73618  0.02456  Biso   1.000  H
  H302     1.0000 0.02856  0.87011  0.79641  Biso   1.000  H
  H303     1.0000 0.77983  0.96568  0.91578  Biso   1.000  H
  H304     1.0000 0.40116  0.75141  0.51895  Biso   1.000  H
  H305     1.0000 0.50807  0.87937  0.74851  Biso   1.000  H
  H306     1.0000 0.28590  0.97663  0.61764  Biso   1.000  H
  H307     1.0000 0.58044  0.24108  0.04632  Biso   1.000  H
  H308     1.0000 0.51112  0.38388  0.79739  Biso   1.000  H
  H309     1.0000 0.72751  0.43565  0.91917  Biso   1.000  H
  H310     1.0000 0.10971  0.25154  0.50245  Biso   1.000  H
  H311     1.0000 0.99133  0.36647  0.74040  Biso   1.000  H
  H312     1.0000 0.23298  0.48351  0.63225  Biso   1.000  H
  H313     1.0000 0.23535  0.98097  0.94086  Biso   1.000  H
  H314     1.0000 0.89848  0.19436  0.01228  Biso   1.000  H
  H315     1.0000 0.99232  0.89871  0.24897  Biso   1.000  H
  H316     1.0000 0.73716  0.95314  0.59636  Biso   1.000  H
  H317     1.0000 0.43161  0.20592  0.50197  Biso   1.000  H
  H318     1.0000 0.48274  0.88561  0.28546  Biso   1.000  H
  H319     1.0000 0.27242  0.47691  0.94254  Biso   1.000  H
  H320     1.0000 0.61296  0.69796  0.00865  Biso   1.000  H
  H321     1.0000 0.54926  0.38204  0.24729  Biso   1.000  H
  H322     1.0000 0.76859  0.45761  0.59151  Biso   1.000  H
  H323     1.0000 0.08641  0.70938  0.51368  Biso   1.000  H
  H324     1.0000 0.00600  0.39986  0.28495  Biso   1.000  H
  H325     1.0000 0.77363  0.94474  0.09831  Biso   1.000  H
  H326     1.0000 0.11142  0.75106  0.03273  Biso   1.000  H
  H327     1.0000 0.01186  0.04926  0.78506  Biso   1.000  H
  H328     1.0000 0.28153  0.99345  0.44514  Biso   1.000  H
  H329     1.0000 0.57878  0.74118  0.53419  Biso   1.000  H
  H330     1.0000 0.53187  0.06329  0.75833  Biso   1.000  H
  H331     1.0000 0.74308  0.45976  0.09494  Biso   1.000  H
  H332     1.0000 0.40056  0.25063  0.01345  Biso   1.000  H
  H333     1.0000 0.49018  0.56397  0.79323  Biso   1.000  H
  H334     1.0000 0.24384  0.48673  0.44672  Biso   1.000  H
  H335     1.0000 0.92952  0.24273  0.51458  Biso   1.000  H
  H336     1.0000 0.00544  0.54459  0.74747  Biso   1.000  H
  H337     1.0000 0.00001  0.19528  0.91645  Biso   1.000  H
  H338     1.0000 0.90173  0.00134  0.24155  Biso   1.000  H
  H339     1.0000 0.23744  0.90219  0.02612  Biso   1.000  H
  H340     1.0000 0.50438  0.19982  0.62032  Biso   1.000  H
  H341     1.0000 0.40318  0.97701  0.29379  Biso   1.000  H
  H342     1.0000 0.72917  0.87060  0.51121  Biso   1.000  H
  H343     1.0000 0.51109  0.70447  0.92922  Biso   1.000  H
  H344     1.0000 0.61920  0.48639  0.24560  Biso   1.000  H
  H345     1.0000 0.27527  0.40219  0.03500  Biso   1.000  H
  H346     1.0000 0.00946  0.69562  0.62139  Biso   1.000  H
  H347     1.0000 0.11108  0.46338  0.30028  Biso   1.000  H
  H348     1.0000 0.78355  0.37857  0.50542  Biso   1.000  H
  H349     1.0000 0.01317  0.74717  0.12526  Biso   1.000  H
  H350     1.0000 0.09888  0.97808  0.79503  Biso   1.000  H
  H351     1.0000 0.77061  0.04503  0.03086  Biso   1.000  H
  H352     1.0000 0.48148  0.74783  0.42276  Biso   1.000  H
  H353     1.0000 0.60636  0.94242  0.74230  Biso   1.000  H
  H354     1.0000 0.28722  0.08250  0.53556  Biso   1.000  H
  H355     1.0000 0.48399  0.24577  0.12112  Biso   1.000  H
  H356     1.0000 0.40631  0.44941  0.80119  Biso   1.000  H
  H357     1.0000 0.74351  0.54747  0.99478  Biso   1.000  H
  H358     1.0000 0.01651  0.25282  0.41322  Biso   1.000  H
  H359     1.0000 0.89970  0.46846  0.73512  Biso   1.000  H
  H360     1.0000 0.23614  0.58078  0.53248  Biso   1.000  H
  H361     1.0000 0.96177  0.70235  0.43668  Biso   1.000  H
  H362     1.0000 0.42028  0.97517  0.76101  Biso   1.000  H
  H363     1.0000 0.72796  0.36686  0.02143  Biso   1.000  H
  H364     1.0000 0.52405  0.69989  0.10995  Biso   1.000  H
  H365     1.0000 0.92573  0.94473  0.78439  Biso   1.000  H
  H366     1.0000 0.24610  0.39310  0.51742  Biso   1.000  H
  H367     1.0000 0.53046  0.19939  0.44004  Biso   1.000  H
  H368     1.0000 0.08343  0.44250  0.75273  Biso   1.000  H
  H369     1.0000 0.78022  0.86699  0.99789  Biso   1.000  H
  H370     1.0000 0.99332  0.21340  0.09118  Biso   1.000  H
  H371     1.0000 0.58615  0.46882  0.78284  Biso   1.000  H
  H372     1.0000 0.27557  0.90205  0.55213  Biso   1.000  H
  H373     1.0000 0.03338  0.24002  0.59465  Biso   1.000  H
  H374     1.0000 0.58811  0.97582  0.28282  Biso   1.000  H
  H375     1.0000 0.28163  0.58193  0.00816  Biso   1.000  H
  H376     1.0000 0.49251  0.24289  0.93606  Biso   1.000  H
  H377     1.0000 0.08919  0.96554  0.25721  Biso   1.000  H
  H378     1.0000 0.77185  0.55996  0.51250  Biso   1.000  H
  H379     1.0000 0.51596  0.74816  0.60098  Biso   1.000  H
  H380     1.0000 0.93952  0.49565  0.28620  Biso   1.000  H
  H381     1.0000 0.23053  0.08204  0.03322  Biso   1.000  H
  H382     1.0000 0.01476  0.73606  0.94262  Biso   1.000  H
  H383     1.0000 0.43283  0.44891  0.25102  Biso   1.000  H
  H384     1.0000 0.73957  0.05268  0.50570  Biso   1.000  H
  H385     1.0000 0.25043  0.44585  0.36228  Biso   1.000  H
  H386     1.0000 0.28917  0.15769  0.48871  Biso   1.000  H
  H387     1.0000 0.50747  0.30864  0.25965  Biso   1.000  H
  H388     1.0000 0.69711  0.44930  0.23440  Biso   1.000  H
  H389     1.0000 0.82420  0.17790  0.05945  Biso   1.000  H
  H390     1.0000 0.98466  0.31552  0.28200  Biso   1.000  H
  H391     1.0000 0.27440  0.96406  0.35881  Biso   1.000  H
  H392     1.0000 0.16466  0.70926  0.56119  Biso   1.000  H
  H393     1.0000 0.97107  0.76034  0.20015  Biso   1.000  H
  H394     1.0000 0.78172  0.93414  0.19607  Biso   1.000  H
  H395     1.0000 0.70180  0.67232  0.04831  Biso   1.000  H
  H396     1.0000 0.52555  0.80042  0.29587  Biso   1.000  H
  H397     1.0000 0.76164  0.47326  0.67650  Biso   1.000  H
  H398     1.0000 0.72061  0.79726  0.55830  Biso   1.000  H
  H399     1.0000 0.52917  0.64419  0.79235  Biso   1.000  H
  H400     1.0000 0.31758  0.48817  0.80687  Biso   1.000  H
  H401     1.0000 0.23581  0.81392  0.99537  Biso   1.000  H
  H402     1.0000 0.04569  0.62970  0.74883  Biso   1.000  H
  H403     1.0000 0.74096  0.92314  0.68202  Biso   1.000  H
  H404     1.0000 0.78902  0.29575  0.54837  Biso   1.000  H
  H405     1.0000 0.97717  0.18635  0.82507  Biso   1.000  H
  H406     1.0000 0.23933  0.99224  0.85635  Biso   1.000  H
  H407     1.0000 0.26875  0.32060  0.99680  Biso   1.000  H
  H408     1.0000 0.49665  0.14073  0.75798  Biso   1.000  H
  H409     1.0000 0.29510  0.44051  0.20955  Biso   1.000  H
  H410     1.0000 0.19708  0.26353  0.47135  Biso   1.000  H
  H411     1.0000 0.49536  0.20105  0.35769  Biso   1.000  H
  H412     1.0000 0.84918  0.52031  0.27870  Biso   1.000  H
  H413     1.0000 0.66395  0.22558  0.01180  Biso   1.000  H
  H414     1.0000 0.97102  0.21349  0.18240  Biso   1.000  H
  H415     1.0000 0.18237  0.93920  0.24741  Biso   1.000  H
  H416     1.0000 0.32568  0.75972  0.56232  Biso   1.000  H
  H417     1.0000 0.98912  0.65106  0.29846  Biso   1.000  H
  H418     1.0000 0.72208  0.01265  0.33375  Biso   1.000  H
  H419     1.0000 0.83639  0.73794  0.05302  Biso   1.000  H
  H420     1.0000 0.46649  0.64214  0.24668  Biso   1.000  H
  H421     1.0000 0.71364  0.41301  0.82925  Biso   1.000  H
  H422     1.0000 0.76995  0.63966  0.55864  Biso   1.000  H
  H423     1.0000 0.55252  0.75442  0.69608  Biso   1.000  H
  H424     1.0000 0.16318  0.47568  0.76916  Biso   1.000  H
  H425     1.0000 0.34810  0.72655  0.00940  Biso   1.000  H
  H426     1.0000 0.04565  0.72742  0.85873  Biso   1.000  H
  H427     1.0000 0.84021  0.97963  0.77473  Biso   1.000  H
  H428     1.0000 0.74517  0.13466  0.55504  Biso   1.000  H
  H429     1.0000 0.04343  0.28700  0.73220  Biso   1.000  H
  H430     1.0000 0.33733  0.93848  0.75181  Biso   1.000  H
  H431     1.0000 0.16860  0.21306  0.98678  Biso   1.000  H
  H432     1.0000 0.48797  0.29562  0.79462  Biso   1.000  H
  H433     1.0000 0.28330  0.99974  0.70273  Biso   1.000  H
  H434     1.0000 0.72503  0.28983  0.05662  Biso   1.000  H
  H435     1.0000 0.01734  0.71408  0.36095  Biso   1.000  H
  H436     1.0000 0.78904  0.92147  0.83367  Biso   1.000  H
  H437     1.0000 0.24085  0.31046  0.54398  Biso   1.000  H
  H438     1.0000 0.53301  0.69624  0.19712  Biso   1.000  H
  H439     1.0000 0.22129  0.43452  0.70320  Biso   1.000  H
  H440     1.0000 0.80049  0.78179  0.97747  Biso   1.000  H
  H441     1.0000 0.55516  0.15081  0.30034  Biso   1.000  H
  H442     1.0000 0.67160  0.48827  0.78986  Biso   1.000  H
  H443     1.0000 0.26453  0.81421  0.51687  Biso   1.000  H
  H444     1.0000 0.04378  0.16614  0.22475  Biso   1.000  H
  H445     1.0000 0.67218  0.94848  0.28340  Biso   1.000  H
  H446     1.0000 0.28618  0.66122  0.05051  Biso   1.000  H
  H447     1.0000 0.98950  0.22791  0.67927  Biso   1.000  H
  H448     1.0000 0.21208  0.01977  0.20481  Biso   1.000  H
  H449     1.0000 0.82784  0.70209  0.51146  Biso   1.000  H
  H450     1.0000 0.53946  0.24640  0.86012  Biso   1.000  H
  H451     1.0000 0.80555  0.44835  0.32901  Biso   1.000  H
  H452     1.0000 0.21572  0.16231  0.05224  Biso   1.000  H
  H453     1.0000 0.47301  0.79240  0.72920  Biso   1.000  H
  H454     1.0000 0.35870  0.49690  0.25186  Biso   1.000  H
  H455     1.0000 0.68816  0.19625  0.50244  Biso   1.000  H
  H456     1.0000 0.00115  0.78747  0.79700  Biso   1.000  H
  H457     1.0000 0.67111  0.73239  0.50397  Biso   1.000  H
  H458     1.0000 0.47630  0.70312  0.84498  Biso   1.000  H
  H459     1.0000 0.82278  0.42939  0.73614  Biso   1.000  H
  H460     1.0000 0.19894  0.77021  0.06935  Biso   1.000  H
  H461     1.0000 0.97652  0.68158  0.70636  Biso   1.000  H
  H462     1.0000 0.27478  0.42451  0.86618  Biso   1.000  H
  H463     1.0000 0.84533  0.23618  0.49866  Biso   1.000  H
  H464     1.0000 0.04447  0.12934  0.78802  Biso   1.000  H
  H465     1.0000 0.68299  0.97761  0.73419  Biso   1.000  H
  H466     1.0000 0.31835  0.26123  0.05450  Biso   1.000  H
  H467     1.0000 0.54682  0.20042  0.69903  Biso   1.000  H
  H468     1.0000 0.18056  0.93985  0.80095  Biso   1.000  H
  H469     1.0000 0.35048  0.21469  0.53197  Biso   1.000  H
  H470     1.0000 0.52945  0.24271  0.19455  Biso   1.000  H
  H471     1.0000 0.19786  0.49584  0.30271  Biso   1.000  H
  H472     1.0000 0.77070  0.13096  0.99996  Biso   1.000  H
  H473     1.0000 0.04282  0.25552  0.33063  Biso   1.000  H
  H474     1.0000 0.74708  0.50372  0.17495  Biso   1.000  H
  H475     1.0000 0.22616  0.66493  0.50360  Biso   1.000  H
  H476     1.0000 0.02912  0.80971  0.25207  Biso   1.000  H
  H477     1.0000 0.32510  0.01941  0.30319  Biso   1.000  H
  H478     1.0000 0.73764  0.63944  0.96710  Biso   1.000  H
  H479     1.0000 0.45228  0.75187  0.33839  Biso   1.000  H
  H480     1.0000 0.81601  0.02089  0.22408  Biso   1.000  H
  N1       1.0000 0.69341  0.14138  0.52578  Biso   1.000  N
  N2       1.0000 0.50362  0.64659  0.19716  Biso   1.000  N
  N3       1.0000 0.17179  0.46091  0.71058  Biso   1.000  N
  N4       1.0000 0.16862  0.16417  0.01954  Biso   1.000  N
  N5       1.0000 0.00070  0.65990  0.35132  Biso   1.000  N
  N6       1.0000 0.67120  0.45298  0.83457  Biso   1.000  N
  N7       1.0000 0.82199  0.64581  0.53516  Biso   1.000  N
  N8       1.0000 0.00146  0.16430  0.18087  Biso   1.000  N
  N9       1.0000 0.33424  0.97522  0.70691  Biso   1.000  N
  N10      1.0000 0.33832  0.66583  0.02421  Biso   1.000  N
  N11      1.0000 0.52466  0.15073  0.35275  Biso   1.000  N
  N12      1.0000 0.83656  0.95366  0.83068  Biso   1.000  N
  N13      1.0000 0.31909  0.80937  0.53800  Biso   1.000  N
  N14      1.0000 0.51083  0.29567  0.85032  Biso   1.000  N
  N15      1.0000 0.84774  0.48700  0.32979  Biso   1.000  N
  N16      1.0000 0.83862  0.78468  0.01470  Biso   1.000  N
  N17      1.0000 0.01228  0.28322  0.68378  Biso   1.000  N
  N18      1.0000 0.34641  0.46794  0.20642  Biso   1.000  N
  N19      1.0000 0.19414  0.30752  0.50752  Biso   1.000  N
  N20      1.0000 0.02269  0.78285  0.85174  Biso   1.000  N
  N21      1.0000 0.67711  0.97719  0.33212  Biso   1.000  N
  N22      1.0000 0.67218  0.28380  0.03087  Biso   1.000  N
  N23      1.0000 0.51397  0.79665  0.69018  Biso   1.000  N
  N24      1.0000 0.17389  0.97789  0.20248  Biso   1.000  N
  N25      1.0000 0.81588  0.45464  0.68224  Biso   1.000  N
  N26      1.0000 0.67141  0.78802  0.52708  Biso   1.000  N
  N27      1.0000 0.50072  0.65116  0.84287  Biso   1.000  N
  N28      1.0000 0.32018  0.46123  0.85642  Biso   1.000  N
  N29      1.0000 0.19081  0.81300  0.02859  Biso   1.000  N
  N30      1.0000 0.01019  0.63505  0.70098  Biso   1.000  N
  N31      1.0000 0.68822  0.94944  0.68419  Biso   1.000  N
  N32      1.0000 0.83895  0.29057  0.51811  Biso   1.000  N
  N33      1.0000 0.00720  0.13740  0.83350  Biso   1.000  N
  N34      1.0000 0.18531  0.97058  0.85068  Biso   1.000  N
  N35      1.0000 0.31909  0.31264  0.02622  Biso   1.000  N
  N36      1.0000 0.52050  0.14850  0.70556  Biso   1.000  N
  N37      1.0000 0.19780  0.47360  0.35491  Biso   1.000  N
  N38      1.0000 0.34243  0.16101  0.51138  Biso   1.000  N
  N39      1.0000 0.51709  0.29727  0.20270  Biso   1.000  N
  N40      1.0000 0.69905  0.47338  0.18416  Biso   1.000  N
  N41      1.0000 0.81889  0.13467  0.02407  Biso   1.000  N
  N42      1.0000 0.01535  0.31053  0.33026  Biso   1.000  N
  N43      1.0000 0.32334  0.98727  0.35251  Biso   1.000  N
  N44      1.0000 0.17451  0.66081  0.52677  Biso   1.000  N
  N45      1.0000 0.99963  0.80668  0.20372  Biso   1.000  N
  N46      1.0000 0.82058  0.97645  0.18775  Biso   1.000  N
  N47      1.0000 0.69456  0.63625  0.00463  Biso   1.000  N
  N48      1.0000 0.48607  0.79962  0.33852  Biso   1.000  N
  O1       1.0000 0.35032  0.52891  0.02593  Biso   1.000  O
  O2       1.0000 0.01260  0.31295  0.55225  Biso   1.000  O
  O3       1.0000 0.54484  0.97027  0.35798  Biso   1.000  O
  O4       1.0000 0.84719  0.51185  0.51631  Biso   1.000  O
  O5       1.0000 0.50062  0.31377  0.98678  Biso   1.000  O
  O6       1.0000 0.04014  0.97669  0.17979  Biso   1.000  O
  O7       1.0000 0.15822  0.02990  0.02764  Biso   1.000  O
  O8       1.0000 0.49450  0.81988  0.55819  Biso   1.000  O
  O9       1.0000 0.97971  0.48584  0.36123  Biso   1.000  O
  O10      1.0000 0.66423  0.00990  0.50990  Biso   1.000  O
  O11      1.0000 0.01445  0.80917  0.98714  Biso   1.000  O
  O12      1.0000 0.47803  0.46939  0.17862  Biso   1.000  O
  O13      1.0000 0.65932  0.41958  0.01702  Biso   1.000  O
  O14      1.0000 0.99155  0.63163  0.48156  Biso   1.000  O
  O15      1.0000 0.47020  0.97766  0.68557  Biso   1.000  O
  O16      1.0000 0.17088  0.44001  0.52262  Biso   1.000  O
  O17      1.0000 0.51954  0.62871  0.06166  Biso   1.000  O
  O18      1.0000 0.96734  0.95658  0.85698  Biso   1.000  O
  O19      1.0000 0.84944  0.91867  0.01307  Biso   1.000  O
  O20      1.0000 0.52194  0.12725  0.48751  Biso   1.000  O
  O21      1.0000 0.03854  0.45670  0.67831  Biso   1.000  O
  O22      1.0000 0.35156  0.94142  0.53169  Biso   1.000  O
  O23      1.0000 0.99497  0.13684  0.04847  Biso   1.000  O
  O24      1.0000 0.54064  0.48037  0.85808  Biso   1.000  O
  O25      1.0000 0.95678  0.98946  0.17215  Biso   1.000  O
  O26      1.0000 0.16143  0.94710  0.02445  Biso   1.000  O
  O27      1.0000 0.99565  0.12638  0.96810  Biso   1.000  O
  O28      1.0000 0.45940  0.98132  0.35882  Biso   1.000  O
  O29      1.0000 0.65931  0.92552  0.51144  Biso   1.000  O
  O30      1.0000 0.51066  0.12741  0.56920  Biso   1.000  O
  O31      1.0000 0.56285  0.47749  0.17498  Biso   1.000  O
  O32      1.0000 0.35127  0.44590  0.03307  Biso   1.000  O
  O33      1.0000 0.50756  0.63626  0.97979  Biso   1.000  O
  O34      1.0000 0.06108  0.47667  0.36962  Biso   1.000  O
  O35      1.0000 0.85050  0.42661  0.50050  Biso   1.000  O
  O36      1.0000 0.00593  0.62909  0.56356  Biso   1.000  O
  O37      1.0000 0.05002  0.96415  0.86317  Biso   1.000  O
  O38      1.0000 0.84473  0.00193  0.01233  Biso   1.000  O
  O39      1.0000 0.00693  0.81597  0.07075  Biso   1.000  O
  O40      1.0000 0.55097  0.96666  0.67710  Biso   1.000  O
  O41      1.0000 0.35621  0.02485  0.52666  Biso   1.000  O
  O42      1.0000 0.49279  0.82237  0.47527  Biso   1.000  O
  O43      1.0000 0.45652  0.47095  0.86880  Biso   1.000  O
  O44      1.0000 0.66807  0.50413  0.00579  Biso   1.000  O
  O45      1.0000 0.49158  0.31571  0.07091  Biso   1.000  O
  O46      1.0000 0.95630  0.46304  0.66813  Biso   1.000  O
  O47      1.0000 0.16404  0.52460  0.52998  Biso   1.000  O
  O48      1.0000 0.01450  0.31955  0.46797  Biso   1.000  O
  O49      1.0000 0.99470  0.94128  0.17431  Biso   1.000  O
  O50      1.0000 0.15866  0.99025  0.98301  Biso   1.000  O
  O51      1.0000 0.95219  0.12588  0.00968  Biso   1.000  O
  O52      1.0000 0.49585  0.93725  0.35709  Biso   1.000  O
  O53      1.0000 0.66515  0.96560  0.55239  Biso   1.000  O
  O54      1.0000 0.47645  0.13454  0.52219  Biso   1.000  O
  O55      1.0000 0.52476  0.43180  0.17708  Biso   1.000  O
  O56      1.0000 0.34831  0.48482  0.98857  Biso   1.000  O
  O57      1.0000 0.55745  0.62830  0.01707  Biso   1.000  O
  O58      1.0000 0.01965  0.44159  0.36152  Biso   1.000  O
  O59      1.0000 0.84457  0.46198  0.54798  Biso   1.000  O
  O60      1.0000 0.04229  0.63195  0.51388  Biso   1.000  O
  O61      1.0000 0.00439  0.00335  0.85706  Biso   1.000  O
  O62      1.0000 0.84843  0.96114  0.05404  Biso   1.000  O
  O63      1.0000 0.05372  0.81878  0.02843  Biso   1.000  O
  O64      1.0000 0.51653  0.01231  0.68284  Biso   1.000  O
  O65      1.0000 0.35548  0.98145  0.48828  Biso   1.000  O
  O66      1.0000 0.53800  0.81396  0.51361  Biso   1.000  O
  O67      1.0000 0.49499  0.51642  0.86550  Biso   1.000  O
  O68      1.0000 0.66601  0.46611  0.05064  Biso   1.000  O
  O69      1.0000 0.45516  0.31866  0.02419  Biso   1.000  O
  O70      1.0000 0.00029  0.50136  0.67093  Biso   1.000  O
  O71      1.0000 0.16620  0.48366  0.48552  Biso   1.000  O
  O72      1.0000 0.97172  0.31623  0.50618  Biso   1.000  O
  O73      1.0000 0.99129  0.41797  0.67122  Biso   1.000  O
  O74      1.0000 0.66212  0.96535  0.46787  Biso   1.000  O
  O75      1.0000 0.47330  0.63352  0.02743  Biso   1.000  O
  O76      1.0000 0.50739  0.43098  0.86916  Biso   1.000  O
  O77      1.0000 0.15651  0.98437  0.06606  Biso   1.000  O
  O78      1.0000 0.95690  0.63080  0.53049  Biso   1.000  O
  O79      1.0000 0.50467  0.92783  0.67945  Biso   1.000  O
  O80      1.0000 0.85773  0.47982  0.46721  Biso   1.000  O
  O81      1.0000 0.03727  0.13454  0.00811  Biso   1.000  O
  O82      1.0000 0.01401  0.91823  0.86198  Biso   1.000  O
  O83      1.0000 0.35633  0.49136  0.07120  Biso   1.000  O
  O84      1.0000 0.55836  0.12206  0.53355  Biso   1.000  O
  O85      1.0000 0.01664  0.52736  0.37030  Biso   1.000  O
  O86      1.0000 0.35814  0.98417  0.57271  Biso   1.000  O
  O87      1.0000 0.53744  0.31673  0.03487  Biso   1.000  O
  O88      1.0000 0.51304  0.51591  0.17517  Biso   1.000  O
  O89      1.0000 0.85224  0.96070  0.96780  Biso   1.000  O
  O90      1.0000 0.05856  0.32249  0.51645  Biso   1.000  O
  O91      1.0000 0.50711  0.01783  0.36221  Biso   1.000  O
  O92      1.0000 0.16346  0.47961  0.57589  Biso   1.000  O
  O93      1.0000 0.97018  0.80883  0.02638  Biso   1.000  O
  O94      1.0000 0.00302  0.02555  0.17004  Biso   1.000  O
  O95      1.0000 0.66054  0.45706  0.97005  Biso   1.000  O
  O96      1.0000 0.45367  0.82238  0.52214  Biso   1.000  O
  O97      1.0000 0.48062  0.18208  0.51422  Biso   1.000  O
  O98      1.0000 0.53104  0.43201  0.22447  Biso   1.000  O
  O99      1.0000 0.21452  0.48853  0.49431  Biso   1.000  O
  O100     1.0000 0.94921  0.17346  0.00587  Biso   1.000  O
  O101     1.0000 0.01726  0.44734  0.31322  Biso   1.000  O
  O102     1.0000 0.71418  0.46003  0.04840  Biso   1.000  O
  O103     1.0000 0.03972  0.68080  0.51994  Biso   1.000  O
  O104     1.0000 0.98737  0.94501  0.22299  Biso   1.000  O
  O105     1.0000 0.30692  0.98737  0.49016  Biso   1.000  O
  O106     1.0000 0.56070  0.67561  0.00869  Biso   1.000  O
  O107     1.0000 0.48736  0.93796  0.30886  Biso   1.000  O
  O108     1.0000 0.79971  0.96245  0.05040  Biso   1.000  O
  O109     1.0000 0.53470  0.76588  0.51519  Biso   1.000  O
  O110     1.0000 0.48964  0.51647  0.81686  Biso   1.000  O
  O111     1.0000 0.79684  0.46370  0.54176  Biso   1.000  O
  O112     1.0000 0.05852  0.77054  0.03481  Biso   1.000  O
  O113     1.0000 0.00105  0.49890  0.71977  Biso   1.000  O
  O114     1.0000 0.30056  0.49199  0.98979  Biso   1.000  O
  O115     1.0000 0.97580  0.26928  0.50723  Biso   1.000  O
  O116     1.0000 0.00949  0.00131  0.80777  Biso   1.000  O
  O117     1.0000 0.71322  0.96031  0.54930  Biso   1.000  O
  O118     1.0000 0.45248  0.27023  0.02617  Biso   1.000  O
  O119     1.0000 0.52201  0.01134  0.73240  Biso   1.000  O
  O120     1.0000 0.20679  0.98833  0.98627  Biso   1.000  O
  O121     1.0000 0.03532  0.45160  0.72808  Biso   1.000  O
  O122     1.0000 0.71440  0.00436  0.50677  Biso   1.000  O
  O123     1.0000 0.52516  0.67626  0.06365  Biso   1.000  O
  O124     1.0000 0.53738  0.47846  0.81079  Biso   1.000  O
  O125     1.0000 0.20658  0.03208  0.02451  Biso   1.000  O
  O126     1.0000 0.98520  0.68067  0.48339  Biso   1.000  O
  O127     1.0000 0.47140  0.97452  0.73596  Biso   1.000  O
  O128     1.0000 0.80171  0.51165  0.50033  Biso   1.000  O
  O129     1.0000 0.99169  0.18535  0.04436  Biso   1.000  O
  O130     1.0000 0.97058  0.95551  0.80764  Biso   1.000  O
  O131     1.0000 0.30182  0.53073  0.03358  Biso   1.000  O
  O132     1.0000 0.53305  0.17413  0.48635  Biso   1.000  O
  O133     1.0000 0.98529  0.49602  0.31344  Biso   1.000  O
  O134     1.0000 0.30462  0.94645  0.53438  Biso   1.000  O
  O135     1.0000 0.49852  0.26478  0.98549  Biso   1.000  O
  O136     1.0000 0.48180  0.46519  0.22688  Biso   1.000  O
  O137     1.0000 0.80032  0.91685  0.00861  Biso   1.000  O
  O138     1.0000 0.02258  0.26580  0.54856  Biso   1.000  O
  O139     1.0000 0.54153  0.97183  0.30975  Biso   1.000  O
  O140     1.0000 0.21833  0.44359  0.52964  Biso   1.000  O
  O141     1.0000 0.01795  0.76116  0.98672  Biso   1.000  O
  O142     1.0000 0.03613  0.98633  0.22846  Biso   1.000  O
  O143     1.0000 0.70918  0.41594  0.01361  Biso   1.000  O
  O144     1.0000 0.50000  0.77142  0.55847  Biso   1.000  O
  O145     1.0000 0.56653  0.48263  0.22264  Biso   1.000  O
  O146     1.0000 0.21217  0.52745  0.53577  Biso   1.000  O
  O147     1.0000 0.51457  0.17689  0.56908  Biso   1.000  O
  O148     1.0000 0.06631  0.48351  0.32194  Biso   1.000  O
  O149     1.0000 0.71558  0.49929  0.99941  Biso   1.000  O
  O150     1.0000 0.98816  0.17365  0.96408  Biso   1.000  O
  O151     1.0000 0.95269  0.98662  0.22068  Biso   1.000  O
  O152     1.0000 0.30782  0.02961  0.53273  Biso   1.000  O
  O153     1.0000 0.00602  0.67866  0.56914  Biso   1.000  O
  O154     1.0000 0.45506  0.98556  0.30974  Biso   1.000  O
  O155     1.0000 0.79621  0.00151  0.00720  Biso   1.000  O
  O156     1.0000 0.50806  0.68300  0.97922  Biso   1.000  O
  O157     1.0000 0.45269  0.46953  0.81999  Biso   1.000  O
  O158     1.0000 0.80166  0.42646  0.49748  Biso   1.000  O
  O159     1.0000 0.48416  0.77543  0.47462  Biso   1.000  O
  O160     1.0000 0.95084  0.46513  0.71676  Biso   1.000  O
  O161     1.0000 0.30199  0.44788  0.03054  Biso   1.000  O
  O162     1.0000 0.01382  0.76669  0.07269  Biso   1.000  O
  O163     1.0000 0.05293  0.96016  0.81438  Biso   1.000  O
  O164     1.0000 0.70767  0.91905  0.51068  Biso   1.000  O
  O165     1.0000 0.01479  0.27139  0.46413  Biso   1.000  O
  O166     1.0000 0.55421  0.96089  0.72387  Biso   1.000  O
  O167     1.0000 0.21028  0.94802  0.03164  Biso   1.000  O
  O168     1.0000 0.48938  0.26698  0.07075  Biso   1.000  O
  O169     1.0000 0.99710  0.02965  0.21864  Biso   1.000  O
  O170     1.0000 0.20437  0.99449  0.07029  Biso   1.000  O
  O171     1.0000 0.03366  0.18260  0.00395  Biso   1.000  O
  O172     1.0000 0.51022  0.01852  0.31430  Biso   1.000  O
  O173     1.0000 0.71096  0.96022  0.46583  Biso   1.000  O
  O174     1.0000 0.56168  0.16929  0.53825  Biso   1.000  O
  O175     1.0000 0.51713  0.51407  0.22574  Biso   1.000  O
  O176     1.0000 0.30694  0.48860  0.07507  Biso   1.000  O
  O177     1.0000 0.47611  0.68175  0.02943  Biso   1.000  O
  O178     1.0000 0.03081  0.52938  0.32314  Biso   1.000  O
  O179     1.0000 0.80932  0.47080  0.45983  Biso   1.000  O
  O180     1.0000 0.95764  0.67849  0.53391  Biso   1.000  O
  O181     1.0000 0.01724  0.91692  0.81290  Biso   1.000  O
  O182     1.0000 0.80254  0.96061  0.96705  Biso   1.000  O
  O183     1.0000 0.97159  0.76104  0.02659  Biso   1.000  O
  O184     1.0000 0.50679  0.92749  0.72940  Biso   1.000  O
  O185     1.0000 0.30983  0.98862  0.57370  Biso   1.000  O
  O186     1.0000 0.45183  0.77393  0.52228  Biso   1.000  O
  O187     1.0000 0.50028  0.43124  0.82147  Biso   1.000  O
  O188     1.0000 0.70952  0.45020  0.96627  Biso   1.000  O
  O189     1.0000 0.53432  0.26861  0.03258  Biso   1.000  O
  O190     1.0000 0.98913  0.41639  0.71931  Biso   1.000  O
  O191     1.0000 0.21238  0.48104  0.57692  Biso   1.000  O
  O192     1.0000 0.05913  0.27468  0.50271  Biso   1.000  O
