data_image0
_cell_length_a       46.586
_cell_length_b       46.4903
_cell_length_c       46.5612
_cell_angle_alpha    90
_cell_angle_beta     90
_cell_angle_gamma    90

_symmetry_space_group_name_H-M    "P 1"
_symmetry_int_tables_number       1

loop_
  _symmetry_equiv_pos_as_xyz
  'x, y, z'

loop_
  _atom_site_label
  _atom_site_occupancy
  _atom_site_fract_x
  _atom_site_fract_y
  _atom_site_fract_z
  _atom_site_thermal_displace_type
  _atom_site_B_iso_or_equiv
  _atom_site_type_symbol
  C1       1.0000 0.57278  0.97913  0.34313  Biso   1.000  C
  C2       1.0000 0.31577  0.51994  0.03146  Biso   1.000  C
  C3       1.0000 0.00914  0.29542  0.57195  Biso   1.000  C
  C4       1.0000 0.07110  0.96707  0.20189  Biso   1.000  C
  C5       1.0000 0.81975  0.52465  0.51269  Biso   1.000  C
  C6       1.0000 0.52238  0.29072  0.97242  Biso   1.000  C
  C7       1.0000 0.95949  0.46962  0.33290  Biso   1.000  C
  C8       1.0000 0.18880  0.01605  0.00923  Biso   1.000  C
  C9       1.0000 0.51867  0.79194  0.56953  Biso   1.000  C
  C10      1.0000 0.46475  0.48143  0.20461  Biso   1.000  C
  C11      1.0000 0.68890  0.02222  0.53244  Biso   1.000  C
  C12      1.0000 0.99636  0.79022  0.96268  Biso   1.000  C
  C13      1.0000 0.44303  0.96579  0.70151  Biso   1.000  C
  C14      1.0000 0.68338  0.42689  0.00009  Biso   1.000  C
  C15      1.0000 0.00776  0.65629  0.46303  Biso   1.000  C
  C16      1.0000 0.93866  0.97808  0.84335  Biso   1.000  C
  C17      1.0000 0.18125  0.42876  0.52584  Biso   1.000  C
  C18      1.0000 0.48679  0.65520  0.06978  Biso   1.000  C
  C19      1.0000 0.04392  0.47528  0.70917  Biso   1.000  C
  C20      1.0000 0.82376  0.92917  0.02980  Biso   1.000  C
  C21      1.0000 0.51033  0.15199  0.47248  Biso   1.000  C
  C22      1.0000 0.54402  0.47009  0.83873  Biso   1.000  C
  C23      1.0000 0.33116  0.92471  0.50961  Biso   1.000  C
  C24      1.0000 0.00969  0.14787  0.07416  Biso   1.000  C
  C25      1.0000 0.32636  0.03446  0.51599  Biso   1.000  C
  C26      1.0000 0.50294  0.29505  0.07902  Biso   1.000  C
  C27      1.0000 0.07103  0.47264  0.34339  Biso   1.000  C
  C28      1.0000 0.82854  0.04049  0.03612  Biso   1.000  C
  C29      1.0000 0.00376  0.29118  0.46456  Biso   1.000  C
  C30      1.0000 0.57241  0.47885  0.19275  Biso   1.000  C
  C31      1.0000 0.18416  0.53776  0.53843  Biso   1.000  C
  C32      1.0000 0.99295  0.79108  0.06968  Biso   1.000  C
  C33      1.0000 0.46506  0.97075  0.33698  Biso   1.000  C
  C34      1.0000 0.68035  0.53607  0.01404  Biso   1.000  C
  C35      1.0000 0.49704  0.79892  0.46186  Biso   1.000  C
  C36      1.0000 0.96358  0.96179  0.20778  Biso   1.000  C
  C37      1.0000 0.69015  0.91466  0.53106  Biso   1.000  C
  C38      1.0000 0.50038  0.65150  0.96139  Biso   1.000  C
  C39      1.0000 0.93384  0.47815  0.69517  Biso   1.000  C
  C40      1.0000 0.18080  0.90809  0.01767  Biso   1.000  C
  C41      1.0000 0.00130  0.65588  0.57234  Biso   1.000  C
  C42      1.0000 0.43354  0.47029  0.84658  Biso   1.000  C
  C43      1.0000 0.82217  0.41686  0.49818  Biso   1.000  C
  C44      1.0000 0.01908  0.15470  0.96398  Biso   1.000  C
  C45      1.0000 0.55283  0.97161  0.70539  Biso   1.000  C
  C46      1.0000 0.32295  0.40897  0.03248  Biso   1.000  C
  C47      1.0000 0.50780  0.15374  0.58388  Biso   1.000  C
  C48      1.0000 0.04813  0.97893  0.83908  Biso   1.000  C
  C49      1.0000 0.99305  0.02955  0.84041  Biso   1.000  C
  C50      1.0000 0.83207  0.98051  0.08703  Biso   1.000  C
  C51      1.0000 0.04880  0.79085  0.01363  Biso   1.000  C
  C52      1.0000 0.49150  0.02141  0.70458  Biso   1.000  C
  C53      1.0000 0.33461  0.98439  0.45765  Biso   1.000  C
  C54      1.0000 0.56058  0.79566  0.50384  Biso   1.000  C
  C55      1.0000 0.48782  0.52378  0.83641  Biso   1.000  C
  C56      1.0000 0.68646  0.47489  0.06102  Biso   1.000  C
  C57      1.0000 0.45725  0.29258  0.01630  Biso   1.000  C
  C58      1.0000 0.99304  0.53054  0.70173  Biso   1.000  C
  C59      1.0000 0.18369  0.48823  0.47902  Biso   1.000  C
  C60      1.0000 0.94969  0.29007  0.52182  Biso   1.000  C
  C61      1.0000 0.01962  0.90994  0.20401  Biso   1.000  C
  C62      1.0000 0.18049  0.95486  0.95789  Biso   1.000  C
  C63      1.0000 0.96096  0.15672  0.01860  Biso   1.000  C
  C64      1.0000 0.52379  0.92200  0.33798  Biso   1.000  C
  C65      1.0000 0.69015  0.96680  0.58683  Biso   1.000  C
  C66      1.0000 0.45944  0.15703  0.52694  Biso   1.000  C
  C67      1.0000 0.51603  0.42416  0.20276  Biso   1.000  C
  C68      1.0000 0.31806  0.45802  0.98052  Biso   1.000  C
  C69      1.0000 0.54599  0.65822  0.02227  Biso   1.000  C
  C70      1.0000 0.01448  0.41641  0.33744  Biso   1.000  C
  C71      1.0000 0.81710  0.46754  0.55966  Biso   1.000  C
  C72      1.0000 0.05426  0.65781  0.52167  Biso   1.000  C
  C73      1.0000 0.01155  0.52537  0.34214  Biso   1.000  C
  C74      1.0000 0.32153  0.97632  0.56613  Biso   1.000  C
  C75      1.0000 0.56716  0.29466  0.03208  Biso   1.000  C
  C76      1.0000 0.51677  0.53023  0.19264  Biso   1.000  C
  C77      1.0000 0.82061  0.98502  0.97903  Biso   1.000  C
  C78      1.0000 0.06125  0.29693  0.51492  Biso   1.000  C
  C79      1.0000 0.51433  0.03031  0.34149  Biso   1.000  C
  C80      1.0000 0.17885  0.47994  0.58694  Biso   1.000  C
  C81      1.0000 0.93900  0.79284  0.01228  Biso   1.000  C
  C82      1.0000 0.01243  0.02045  0.20059  Biso   1.000  C
  C83      1.0000 0.68125  0.48891  0.95180  Biso   1.000  C
  C84      1.0000 0.45286  0.79817  0.52768  Biso   1.000  C
  C85      1.0000 0.98347  0.42237  0.69957  Biso   1.000  C
  C86      1.0000 0.69343  0.96963  0.47628  Biso   1.000  C
  C87      1.0000 0.43789  0.64890  0.00918  Biso   1.000  C
  C88      1.0000 0.48639  0.41601  0.84395  Biso   1.000  C
  C89      1.0000 0.18794  0.96638  0.06638  Biso   1.000  C
  C90      1.0000 0.94465  0.65464  0.51657  Biso   1.000  C
  C91      1.0000 0.50700  0.91479  0.70229  Biso   1.000  C
  C92      1.0000 0.82581  0.47589  0.45314  Biso   1.000  C
  C93      1.0000 0.06818  0.14543  0.02122  Biso   1.000  C
  C94      1.0000 0.99583  0.92241  0.84095  Biso   1.000  C
  C95      1.0000 0.32496  0.46770  0.08923  Biso   1.000  C
  C96      1.0000 0.56677  0.15344  0.52905  Biso   1.000  C
  C97      1.0000 0.68878  0.05368  0.52627  Biso   1.000  C
  C98      1.0000 0.48421  0.65425  0.10159  Biso   1.000  C
  C99      1.0000 0.07668  0.47544  0.71110  Biso   1.000  C
  C100     1.0000 0.18982  0.04801  0.01039  Biso   1.000  C
  C101     1.0000 0.00911  0.65835  0.42970  Biso   1.000  C
  C102     1.0000 0.57541  0.47707  0.83619  Biso   1.000  C
  C103     1.0000 0.81826  0.55681  0.51593  Biso   1.000  C
  C104     1.0000 0.00928  0.14683  0.10694  Biso   1.000  C
  C105     1.0000 0.41007  0.96977  0.69960  Biso   1.000  C
  C106     1.0000 0.31453  0.55156  0.03222  Biso   1.000  C
  C107     1.0000 0.50623  0.15318  0.44064  Biso   1.000  C
  C108     1.0000 0.90681  0.98229  0.84552  Biso   1.000  C
  C109     1.0000 0.33027  0.89243  0.51070  Biso   1.000  C
  C110     1.0000 0.51883  0.29192  0.94059  Biso   1.000  C
  C111     1.0000 0.92784  0.46577  0.33109  Biso   1.000  C
  C112     1.0000 0.82068  0.89647  0.02788  Biso   1.000  C
  C113     1.0000 0.00824  0.29687  0.60362  Biso   1.000  C
  C114     1.0000 0.43302  0.48496  0.20723  Biso   1.000  C
  C115     1.0000 0.18225  0.39798  0.51829  Biso   1.000  C
  C116     1.0000 0.00089  0.79034  0.93064  Biso   1.000  C
  C117     1.0000 0.60584  0.97635  0.34390  Biso   1.000  C
  C118     1.0000 0.68534  0.39472  0.99945  Biso   1.000  C
  C119     1.0000 0.52419  0.79071  0.60054  Biso   1.000  C
  C120     1.0000 0.10330  0.96671  0.19943  Biso   1.000  C
  C121     1.0000 0.83284  0.98184  0.11798  Biso   1.000  C
  C122     1.0000 0.08054  0.78876  0.01208  Biso   1.000  C
  C123     1.0000 0.99267  0.06053  0.83981  Biso   1.000  C
  C124     1.0000 0.33508  0.98562  0.42527  Biso   1.000  C
  C125     1.0000 0.59376  0.79543  0.49852  Biso   1.000  C
  C126     1.0000 0.49531  0.05294  0.70646  Biso   1.000  C
  C127     1.0000 0.69115  0.47308  0.09283  Biso   1.000  C
  C128     1.0000 0.42672  0.29047  0.00749  Biso   1.000  C
  C129     1.0000 0.48947  0.55564  0.83573  Biso   1.000  C
  C130     1.0000 0.18876  0.49014  0.44699  Biso   1.000  C
  C131     1.0000 0.91697  0.28927  0.51766  Biso   1.000  C
  C132     1.0000 0.99832  0.56157  0.70139  Biso   1.000  C
  C133     1.0000 0.17770  0.95414  0.92629  Biso   1.000  C
  C134     1.0000 0.92873  0.15802  0.01880  Biso   1.000  C
  C135     1.0000 0.01138  0.87778  0.20097  Biso   1.000  C
  C136     1.0000 0.68862  0.96876  0.61912  Biso   1.000  C
  C137     1.0000 0.42765  0.16057  0.52375  Biso   1.000  C
  C138     1.0000 0.51808  0.88976  0.33896  Biso   1.000  C
  C139     1.0000 0.31473  0.45292  0.94813  Biso   1.000  C
  C140     1.0000 0.57761  0.65867  0.02517  Biso   1.000  C
  C141     1.0000 0.50882  0.39235  0.20524  Biso   1.000  C
  C142     1.0000 0.81444  0.47501  0.59022  Biso   1.000  C
  C143     1.0000 0.08730  0.66067  0.52707  Biso   1.000  C
  C144     1.0000 0.01121  0.38443  0.33743  Biso   1.000  C
  C145     1.0000 0.33191  0.46589  0.12199  Biso   1.000  C
  C146     1.0000 0.09270  0.29746  0.51856  Biso   1.000  C
  C147     1.0000 0.51245  0.06228  0.34281  Biso   1.000  C
  C148     1.0000 0.82820  0.47797  0.42214  Biso   1.000  C
  C149     1.0000 0.59826  0.29676  0.02422  Biso   1.000  C
  C150     1.0000 0.01058  0.05251  0.19998  Biso   1.000  C
  C151     1.0000 0.19039  0.96730  0.09806  Biso   1.000  C
  C152     1.0000 0.42175  0.79710  0.53556  Biso   1.000  C
  C153     1.0000 0.01784  0.55705  0.33982  Biso   1.000  C
  C154     1.0000 0.69558  0.97354  0.44327  Biso   1.000  C
  C155     1.0000 0.90681  0.79418  0.01090  Biso   1.000  C
  C156     1.0000 0.50989  0.56124  0.19354  Biso   1.000  C
  C157     1.0000 0.68032  0.49187  0.91981  Biso   1.000  C
  C158     1.0000 0.91311  0.65397  0.51055  Biso   1.000  C
  C159     1.0000 0.51336  0.88287  0.70162  Biso   1.000  C
  C160     1.0000 0.17623  0.48200  0.61930  Biso   1.000  C
  C161     1.0000 0.40680  0.64641  0.00254  Biso   1.000  C
  C162     1.0000 0.99543  0.89123  0.83929  Biso   1.000  C
  C163     1.0000 0.81894  0.98485  0.94722  Biso   1.000  C
  C164     1.0000 0.59764  0.15134  0.53782  Biso   1.000  C
  C165     1.0000 0.98258  0.39013  0.69965  Biso   1.000  C
  C166     1.0000 0.32086  0.97483  0.59778  Biso   1.000  C
  C167     1.0000 0.10046  0.14436  0.01792  Biso   1.000  C
  C168     1.0000 0.48848  0.38352  0.84523  Biso   1.000  C
  C169     1.0000 0.98643  0.79158  0.10178  Biso   1.000  C
  C170     1.0000 0.07953  0.98036  0.83683  Biso   1.000  C
  C171     1.0000 0.82860  0.07169  0.03758  Biso   1.000  C
  C172     1.0000 0.49096  0.79540  0.43104  Biso   1.000  C
  C173     1.0000 0.58529  0.97311  0.70550  Biso   1.000  C
  C174     1.0000 0.32855  0.06838  0.51316  Biso   1.000  C
  C175     1.0000 0.50007  0.29506  0.11127  Biso   1.000  C
  C176     1.0000 0.40127  0.46789  0.84843  Biso   1.000  C
  C177     1.0000 0.67848  0.56754  0.01781  Biso   1.000  C
  C178     1.0000 0.00267  0.28993  0.43252  Biso   1.000  C
  C179     1.0000 0.90101  0.47817  0.69252  Biso   1.000  C
  C180     1.0000 0.18477  0.57007  0.53887  Biso   1.000  C
  C181     1.0000 0.01664  0.15530  0.93193  Biso   1.000  C
  C182     1.0000 0.93063  0.96398  0.20873  Biso   1.000  C
  C183     1.0000 0.18069  0.87685  0.02484  Biso   1.000  C
  C184     1.0000 0.50537  0.15136  0.61552  Biso   1.000  C
  C185     1.0000 0.43252  0.96607  0.33610  Biso   1.000  C
  C186     1.0000 0.69140  0.88266  0.53090  Biso   1.000  C
  C187     1.0000 0.50204  0.65145  0.92964  Biso   1.000  C
  C188     1.0000 0.60360  0.47712  0.19279  Biso   1.000  C
  C189     1.0000 0.32463  0.37663  0.02542  Biso   1.000  C
  C190     1.0000 0.00750  0.65537  0.60374  Biso   1.000  C
  C191     1.0000 0.10348  0.47614  0.34444  Biso   1.000  C
  C192     1.0000 0.82349  0.38517  0.49981  Biso   1.000  C
  C193     1.0000 0.84422  0.98010  0.92972  Biso   1.000  C
  C194     1.0000 0.89196  0.82236  0.01241  Biso   1.000  C
  C195     1.0000 0.99526  0.87379  0.86546  Biso   1.000  C
  C196     1.0000 0.34741  0.97486  0.61610  Biso   1.000  C
  C197     1.0000 0.40662  0.82465  0.53386  Biso   1.000  C
  C198     1.0000 0.51842  0.86797  0.67338  Biso   1.000  C
  C199     1.0000 0.65149  0.48810  0.90649  Biso   1.000  C
  C200     1.0000 0.61377  0.32439  0.02170  Biso   1.000  C
  C201     1.0000 0.49791  0.37026  0.87211  Biso   1.000  C
  C202     1.0000 0.14891  0.47942  0.63208  Biso   1.000  C
  C203     1.0000 0.10987  0.32382  0.51809  Biso   1.000  C
  C204     1.0000 0.99000  0.37463  0.67180  Biso   1.000  C
  C205     1.0000 0.16422  0.97043  0.11585  Biso   1.000  C
  C206     1.0000 0.11393  0.11606  0.01544  Biso   1.000  C
  C207     1.0000 0.01043  0.06860  0.17217  Biso   1.000  C
  C208     1.0000 0.67018  0.97332  0.42675  Biso   1.000  C
  C209     1.0000 0.61246  0.12343  0.53772  Biso   1.000  C
  C210     1.0000 0.51125  0.07755  0.36934  Biso   1.000  C
  C211     1.0000 0.36082  0.46770  0.13557  Biso   1.000  C
  C212     1.0000 0.39149  0.61817  0.00593  Biso   1.000  C
  C213     1.0000 0.49951  0.57622  0.16694  Biso   1.000  C
  C214     1.0000 0.85629  0.47727  0.40781  Biso   1.000  C
  C215     1.0000 0.89676  0.62618  0.51424  Biso   1.000  C
  C216     1.0000 0.02016  0.57562  0.36582  Biso   1.000  C
  C217     1.0000 0.09716  0.97584  0.86313  Biso   1.000  C
  C218     1.0000 0.85661  0.08421  0.03204  Biso   1.000  C
  C219     1.0000 0.98982  0.81776  0.11880  Biso   1.000  C
  C220     1.0000 0.60216  0.96910  0.67949  Biso   1.000  C
  C221     1.0000 0.35598  0.08316  0.51723  Biso   1.000  C
  C222     1.0000 0.49304  0.82371  0.41464  Biso   1.000  C
  C223     1.0000 0.38709  0.46304  0.87652  Biso   1.000  C
  C224     1.0000 0.65160  0.58272  0.02043  Biso   1.000  C
  C225     1.0000 0.50217  0.32365  0.12660  Biso   1.000  C
  C226     1.0000 0.88562  0.47788  0.66451  Biso   1.000  C
  C227     1.0000 0.15666  0.58553  0.53797  Biso   1.000  C
  C228     1.0000 0.99721  0.31653  0.41706  Biso   1.000  C
  C229     1.0000 0.91399  0.96457  0.18246  Biso   1.000  C
  C230     1.0000 0.15236  0.86233  0.02658  Biso   1.000  C
  C231     1.0000 0.01300  0.12903  0.91542  Biso   1.000  C
  C232     1.0000 0.41448  0.96689  0.36217  Biso   1.000  C
  C233     1.0000 0.66335  0.86755  0.53095  Biso   1.000  C
  C234     1.0000 0.49836  0.12445  0.62880  Biso   1.000  C
  C235     1.0000 0.61779  0.46728  0.16563  Biso   1.000  C
  C236     1.0000 0.35282  0.36333  0.01997  Biso   1.000  C
  C237     1.0000 0.49660  0.62523  0.91447  Biso   1.000  C
  C238     1.0000 0.11653  0.48184  0.37201  Biso   1.000  C
  C239     1.0000 0.85139  0.37007  0.50376  Biso   1.000  C
  C240     1.0000 0.00360  0.62937  0.62028  Biso   1.000  C
  C241     1.0000 0.59355  0.47915  0.86087  Biso   1.000  C
  C242     1.0000 0.84578  0.57403  0.51894  Biso   1.000  C
  C243     1.0000 0.52152  0.81897  0.61787  Biso   1.000  C
  C244     1.0000 0.09272  0.47627  0.68393  Biso   1.000  C
  C245     1.0000 0.34148  0.56822  0.02684  Biso   1.000  C
  C246     1.0000 0.00116  0.81830  0.91615  Biso   1.000  C
  C247     1.0000 0.89258  0.98106  0.87361  Biso   1.000  C
  C248     1.0000 0.66220  0.07046  0.52714  Biso   1.000  C
  C249     1.0000 0.00024  0.32393  0.61928  Biso   1.000  C
  C250     1.0000 0.39650  0.96975  0.67073  Biso   1.000  C
  C251     1.0000 0.16358  0.06321  0.01307  Biso   1.000  C
  C252     1.0000 0.51069  0.31851  0.92590  Biso   1.000  C
  C253     1.0000 0.41445  0.47955  0.18115  Biso   1.000  C
  C254     1.0000 0.15606  0.37928  0.51971  Biso   1.000  C
  C255     1.0000 0.50814  0.12702  0.42296  Biso   1.000  C
  C256     1.0000 0.91056  0.46603  0.35766  Biso   1.000  C
  C257     1.0000 0.66029  0.37631  0.00638  Biso   1.000  C
  C258     1.0000 0.01120  0.12033  0.12218  Biso   1.000  C
  C259     1.0000 0.11742  0.96891  0.17233  Biso   1.000  C
  C260     1.0000 0.35771  0.87717  0.51883  Biso   1.000  C
  C261     1.0000 0.01493  0.63058  0.41447  Biso   1.000  C
  C262     1.0000 0.62094  0.97284  0.37137  Biso   1.000  C
  C263     1.0000 0.84662  0.87863  0.02225  Biso   1.000  C
  C264     1.0000 0.48674  0.62775  0.11817  Biso   1.000  C
  C265     1.0000 0.99769  0.07839  0.86511  Biso   1.000  C
  C266     1.0000 0.86027  0.97809  0.13153  Biso   1.000  C
  C267     1.0000 0.09611  0.81461  0.02156  Biso   1.000  C
  C268     1.0000 0.49138  0.07118  0.68007  Biso   1.000  C
  C269     1.0000 0.36223  0.97943  0.41022  Biso   1.000  C
  C270     1.0000 0.60979  0.82013  0.50995  Biso   1.000  C
  C271     1.0000 0.49378  0.57254  0.86396  Biso   1.000  C
  C272     1.0000 0.66513  0.47001  0.11109  Biso   1.000  C
  C273     1.0000 0.40771  0.31758  0.00867  Biso   1.000  C
  C274     1.0000 0.99658  0.57796  0.67432  Biso   1.000  C
  C275     1.0000 0.16437  0.48864  0.42647  Biso   1.000  C
  C276     1.0000 0.90392  0.31668  0.51008  Biso   1.000  C
  C277     1.0000 0.00353  0.86644  0.17313  Biso   1.000  C
  C278     1.0000 0.15133  0.96308  0.91102  Biso   1.000  C
  C279     1.0000 0.91151  0.13254  0.02318  Biso   1.000  C
  C280     1.0000 0.51064  0.87333  0.36395  Biso   1.000  C
  C281     1.0000 0.66009  0.97040  0.63226  Biso   1.000  C
  C282     1.0000 0.41015  0.13511  0.52221  Biso   1.000  C
  C283     1.0000 0.50434  0.37587  0.17867  Biso   1.000  C
  C284     1.0000 0.33903  0.45350  0.93026  Biso   1.000  C
  C285     1.0000 0.59464  0.63192  0.02299  Biso   1.000  C
  C286     1.0000 0.00451  0.36838  0.36431  Biso   1.000  C
  C287     1.0000 0.83982  0.47764  0.60781  Biso   1.000  C
  C288     1.0000 0.10519  0.63536  0.53493  Biso   1.000  C
  C289     1.0000 0.35621  0.84465  0.52349  Biso   1.000  C
  C290     1.0000 0.50424  0.31657  0.89479  Biso   1.000  C
  C291     1.0000 0.87932  0.47004  0.35616  Biso   1.000  C
  C292     1.0000 0.84225  0.84823  0.02047  Biso   1.000  C
  C293     1.0000 0.99935  0.32258  0.65065  Biso   1.000  C
  C294     1.0000 0.38398  0.47489  0.18643  Biso   1.000  C
  C295     1.0000 0.16125  0.34877  0.51928  Biso   1.000  C
  C296     1.0000 0.00212  0.82034  0.88443  Biso   1.000  C
  C297     1.0000 0.65085  0.97916  0.37289  Biso   1.000  C
  C298     1.0000 0.66409  0.34560  0.01059  Biso   1.000  C
  C299     1.0000 0.52094  0.81715  0.65002  Biso   1.000  C
  C300     1.0000 0.14935  0.96691  0.17040  Biso   1.000  C
  C301     1.0000 0.66467  0.10150  0.52979  Biso   1.000  C
  C302     1.0000 0.49125  0.62932  0.14928  Biso   1.000  C
  C303     1.0000 0.12481  0.47640  0.68597  Biso   1.000  C
  C304     1.0000 0.16567  0.09447  0.01164  Biso   1.000  C
  C305     1.0000 0.01258  0.63198  0.38386  Biso   1.000  C
  C306     1.0000 0.62508  0.48341  0.85602  Biso   1.000  C
  C307     1.0000 0.84416  0.60471  0.51173  Biso   1.000  C
  C308     1.0000 0.01292  0.12277  0.15450  Biso   1.000  C
  C309     1.0000 0.36431  0.97271  0.67075  Biso   1.000  C
  C310     1.0000 0.33899  0.59864  0.01934  Biso   1.000  C
  C311     1.0000 0.50718  0.13017  0.39248  Biso   1.000  C
  C312     1.0000 0.85995  0.98276  0.87562  Biso   1.000  C
  C313     1.0000 0.16894  0.48690  0.39573  Biso   1.000  C
  C314     1.0000 0.37932  0.13694  0.52189  Biso   1.000  C
  C315     1.0000 0.50498  0.34475  0.18025  Biso   1.000  C
  C316     1.0000 0.66927  0.46912  0.14234  Biso   1.000  C
  C317     1.0000 0.88062  0.13499  0.02266  Biso   1.000  C
  C318     1.0000 0.00533  0.33765  0.36413  Biso   1.000  C
  C319     1.0000 0.36187  0.97268  0.37970  Biso   1.000  C
  C320     1.0000 0.13634  0.63875  0.53333  Biso   1.000  C
  C321     1.0000 0.99866  0.83519  0.17205  Biso   1.000  C
  C322     1.0000 0.86056  0.97601  0.16339  Biso   1.000  C
  C323     1.0000 0.62557  0.63362  0.02169  Biso   1.000  C
  C324     1.0000 0.50277  0.84285  0.36230  Biso   1.000  C
  C325     1.0000 0.83605  0.48216  0.63884  Biso   1.000  C
  C326     1.0000 0.64226  0.81994  0.50781  Biso   1.000  C
  C327     1.0000 0.49623  0.60413  0.86151  Biso   1.000  C
  C328     1.0000 0.33577  0.45747  0.90011  Biso   1.000  C
  C329     1.0000 0.12794  0.81250  0.02268  Biso   1.000  C
  C330     1.0000 0.00271  0.61049  0.67433  Biso   1.000  C
  C331     1.0000 0.65738  0.97031  0.66365  Biso   1.000  C
  C332     1.0000 0.87236  0.31693  0.51026  Biso   1.000  C
  C333     1.0000 0.00037  0.10974  0.86298  Biso   1.000  C
  C334     1.0000 0.15057  0.96796  0.87986  Biso   1.000  C
  C335     1.0000 0.37635  0.31338  0.01041  Biso   1.000  C
  C336     1.0000 0.49646  0.10109  0.68173  Biso   1.000  C
  C337     1.0000 0.64872  0.48781  0.87576  Biso   1.000  C
  C338     1.0000 0.86555  0.62600  0.50919  Biso   1.000  C
  C339     1.0000 0.51820  0.83686  0.67322  Biso   1.000  C
  C340     1.0000 0.14791  0.47688  0.66475  Biso   1.000  C
  C341     1.0000 0.36024  0.61881  0.01097  Biso   1.000  C
  C342     1.0000 0.00085  0.84349  0.86422  Biso   1.000  C
  C343     1.0000 0.83996  0.98241  0.89879  Biso   1.000  C
  C344     1.0000 0.64294  0.12334  0.53507  Biso   1.000  C
  C345     1.0000 0.99440  0.34310  0.67213  Biso   1.000  C
  C346     1.0000 0.34391  0.97370  0.64753  Biso   1.000  C
  C347     1.0000 0.14564  0.11761  0.01286  Biso   1.000  C
  C348     1.0000 0.50059  0.33819  0.87274  Biso   1.000  C
  C349     1.0000 0.36114  0.47073  0.16632  Biso   1.000  C
  C350     1.0000 0.14075  0.32542  0.52021  Biso   1.000  C
  C351     1.0000 0.51034  0.10874  0.37083  Biso   1.000  C
  C352     1.0000 0.85631  0.47312  0.37647  Biso   1.000  C
  C353     1.0000 0.64493  0.32354  0.01755  Biso   1.000  C
  C354     1.0000 0.01233  0.10122  0.17511  Biso   1.000  C
  C355     1.0000 0.16895  0.96832  0.14662  Biso   1.000  C
  C356     1.0000 0.37618  0.82365  0.53080  Biso   1.000  C
  C357     1.0000 0.01415  0.60778  0.36386  Biso   1.000  C
  C358     1.0000 0.67188  0.97686  0.39530  Biso   1.000  C
  C359     1.0000 0.86095  0.82386  0.01569  Biso   1.000  C
  C360     1.0000 0.49686  0.60681  0.16898  Biso   1.000  C
  C361     1.0000 0.00653  0.13035  0.88530  Biso   1.000  C
  C362     1.0000 0.88270  0.97050  0.18488  Biso   1.000  C
  C363     1.0000 0.15212  0.83151  0.02532  Biso   1.000  C
  C364     1.0000 0.50030  0.12363  0.65977  Biso   1.000  C
  C365     1.0000 0.38316  0.96813  0.35901  Biso   1.000  C
  C366     1.0000 0.66456  0.83922  0.51667  Biso   1.000  C
  C367     1.0000 0.49756  0.62675  0.88225  Biso   1.000  C
  C368     1.0000 0.64898  0.46936  0.16461  Biso   1.000  C
  C369     1.0000 0.35402  0.33196  0.01533  Biso   1.000  C
  C370     1.0000 0.00439  0.63058  0.65176  Biso   1.000  C
  C371     1.0000 0.14826  0.48433  0.37300  Biso   1.000  C
  C372     1.0000 0.85018  0.33856  0.50780  Biso   1.000  C
  C373     1.0000 0.99260  0.81527  0.15022  Biso   1.000  C
  C374     1.0000 0.12729  0.97434  0.85929  Biso   1.000  C
  C375     1.0000 0.85785  0.11505  0.02749  Biso   1.000  C
  C376     1.0000 0.49700  0.82234  0.38347  Biso   1.000  C
  C377     1.0000 0.63428  0.97191  0.68354  Biso   1.000  C
  C378     1.0000 0.35580  0.11543  0.52019  Biso   1.000  C
  C379     1.0000 0.50479  0.32265  0.15834  Biso   1.000  C
  C380     1.0000 0.35567  0.46185  0.87736  Biso   1.000  C
  C381     1.0000 0.64952  0.61387  0.02169  Biso   1.000  C
  C382     1.0000 0.00308  0.31681  0.38580  Biso   1.000  C
  C383     1.0000 0.85495  0.48063  0.66218  Biso   1.000  C
  C384     1.0000 0.15780  0.61696  0.53554  Biso   1.000  C
  C385     1.0000 0.19348  0.10954  0.00936  Biso   1.000  C
  C386     1.0000 0.01157  0.14953  0.17025  Biso   1.000  C
  C387     1.0000 0.16709  0.96248  0.19599  Biso   1.000  C
  C388     1.0000 0.69218  0.11685  0.52840  Biso   1.000  C
  C389     1.0000 0.50638  0.15765  0.37858  Biso   1.000  C
  C390     1.0000 0.66762  0.98559  0.34839  Biso   1.000  C
  C391     1.0000 0.31128  0.61314  0.01712  Biso   1.000  C
  C392     1.0000 0.49324  0.65568  0.16434  Biso   1.000  C
  C393     1.0000 0.37043  0.47468  0.21444  Biso   1.000  C
  C394     1.0000 0.81796  0.61862  0.50371  Biso   1.000  C
  C395     1.0000 0.00681  0.65736  0.36719  Biso   1.000  C
  C396     1.0000 0.86349  0.46822  0.32887  Biso   1.000  C
  C397     1.0000 0.81406  0.83622  0.02483  Biso   1.000  C
  C398     1.0000 0.00715  0.79425  0.86709  Biso   1.000  C
  C399     1.0000 0.84164  0.98622  0.85002  Biso   1.000  C
  C400     1.0000 0.32847  0.82930  0.52118  Biso   1.000  C
  C401     1.0000 0.52192  0.78938  0.66516  Biso   1.000  C
  C402     1.0000 0.34738  0.97419  0.69732  Biso   1.000  C
  C403     1.0000 0.69206  0.33245  0.00795  Biso   1.000  C
  C404     1.0000 0.50529  0.28929  0.87954  Biso   1.000  C
  C405     1.0000 0.63788  0.48068  0.82868  Biso   1.000  C
  C406     1.0000 0.18945  0.33541  0.51949  Biso   1.000  C
  C407     1.0000 0.00236  0.29632  0.66614  Biso   1.000  C
  C408     1.0000 0.13900  0.47196  0.71397  Biso   1.000  C
  C409     1.0000 0.14183  0.97702  0.83179  Biso   1.000  C
  C410     1.0000 0.83147  0.13267  0.02588  Biso   1.000  C
  C411     1.0000 0.98934  0.78691  0.16388  Biso   1.000  C
  C412     1.0000 0.64862  0.97537  0.71095  Biso   1.000  C
  C413     1.0000 0.33006  0.13298  0.51760  Biso   1.000  C
  C414     1.0000 0.49635  0.79520  0.36732  Biso   1.000  C
  C415     1.0000 0.33783  0.46314  0.85091  Biso   1.000  C
  C416     1.0000 0.67624  0.63194  0.02225  Biso   1.000  C
  C417     1.0000 0.50444  0.29647  0.17448  Biso   1.000  C
  C418     1.0000 0.83693  0.48376  0.68784  Biso   1.000  C
  C419     1.0000 0.18464  0.63367  0.53590  Biso   1.000  C
  C420     1.0000 0.00739  0.28919  0.37076  Biso   1.000  C
  C421     1.0000 0.86744  0.97083  0.21249  Biso   1.000  C
  C422     1.0000 0.17713  0.81423  0.02342  Biso   1.000  C
  C423     1.0000 0.00433  0.15800  0.86951  Biso   1.000  C
  C424     1.0000 0.36931  0.96704  0.33139  Biso   1.000  C
  C425     1.0000 0.69063  0.82356  0.50831  Biso   1.000  C
  C426     1.0000 0.50558  0.14894  0.67721  Biso   1.000  C
  C427     1.0000 0.66641  0.47657  0.18903  Biso   1.000  C
  C428     1.0000 0.32770  0.31429  0.01538  Biso   1.000  C
  C429     1.0000 0.50045  0.65322  0.86726  Biso   1.000  C
  C430     1.0000 0.16621  0.48172  0.34721  Biso   1.000  C
  C431     1.0000 0.82244  0.32200  0.50748  Biso   1.000  C
  C432     1.0000 0.00767  0.65755  0.66653  Biso   1.000  C
  C433     1.0000 0.99487  0.12485  0.83659  Biso   1.000  C
  C434     1.0000 0.83468  0.97917  0.18028  Biso   1.000  C
  C435     1.0000 0.14082  0.78323  0.01700  Biso   1.000  C
  C436     1.0000 0.50334  0.11587  0.70951  Biso   1.000  C
  C437     1.0000 0.33581  0.97377  0.36313  Biso   1.000  C
  C438     1.0000 0.65598  0.79498  0.49474  Biso   1.000  C
  C439     1.0000 0.49803  0.61848  0.83416  Biso   1.000  C
  C440     1.0000 0.69720  0.47474  0.15556  Biso   1.000  C
  C441     1.0000 0.36355  0.28527  0.00887  Biso   1.000  C
  C442     1.0000 0.00644  0.62608  0.70113  Biso   1.000  C
  C443     1.0000 0.19698  0.48597  0.38302  Biso   1.000  C
  C444     1.0000 0.85516  0.29030  0.51420  Biso   1.000  C
  C445     1.0000 0.99920  0.81608  0.19728  Biso   1.000  C
  C446     1.0000 0.17537  0.96783  0.86229  Biso   1.000  C
  C447     1.0000 0.86647  0.16304  0.01840  Biso   1.000  C
  C448     1.0000 0.50605  0.82735  0.33630  Biso   1.000  C
  C449     1.0000 0.68349  0.97109  0.67984  Biso   1.000  C
  C450     1.0000 0.36447  0.16359  0.51906  Biso   1.000  C
  C451     1.0000 0.50815  0.32891  0.20645  Biso   1.000  C
  C452     1.0000 0.30826  0.45647  0.88589  Biso   1.000  C
  C453     1.0000 0.64076  0.66139  0.02217  Biso   1.000  C
  C454     1.0000 0.01011  0.32143  0.33803  Biso   1.000  C
  C455     1.0000 0.80739  0.48631  0.65150  Biso   1.000  C
  C456     1.0000 0.15077  0.66678  0.53186  Biso   1.000  C
  C457     1.0000 0.00879  0.62093  0.33587  Biso   1.000  C
  C458     1.0000 0.31613  0.97432  0.66166  Biso   1.000  C
  C459     1.0000 0.66281  0.29761  0.01880  Biso   1.000  C
  C460     1.0000 0.50247  0.62266  0.19526  Biso   1.000  C
  C461     1.0000 0.81234  0.98656  0.88580  Biso   1.000  C
  C462     1.0000 0.15743  0.29948  0.52229  Biso   1.000  C
  C463     1.0000 0.51253  0.12500  0.34492  Biso   1.000  C
  C464     1.0000 0.17412  0.47479  0.68169  Biso   1.000  C
  C465     1.0000 0.84115  0.79797  0.01553  Biso   1.000  C
  C466     1.0000 0.01105  0.11665  0.20098  Biso   1.000  C
  C467     1.0000 0.67390  0.48749  0.85838  Biso   1.000  C
  C468     1.0000 0.36062  0.79625  0.53293  Biso   1.000  C
  C469     1.0000 0.99276  0.32681  0.69907  Biso   1.000  C
  C470     1.0000 0.69858  0.98304  0.38150  Biso   1.000  C
  C471     1.0000 0.34404  0.64484  0.00720  Biso   1.000  C
  C472     1.0000 0.49390  0.32137  0.84683  Biso   1.000  C
  C473     1.0000 0.19671  0.96523  0.15956  Biso   1.000  C
  C474     1.0000 0.85065  0.65113  0.49811  Biso   1.000  C
  C475     1.0000 0.51608  0.82008  0.69975  Biso   1.000  C
  C476     1.0000 0.82994  0.47553  0.35964  Biso   1.000  C
  C477     1.0000 0.16270  0.14432  0.01022  Biso   1.000  C
  C478     1.0000 0.00375  0.82856  0.83582  Biso   1.000  C
  C479     1.0000 0.33584  0.46896  0.18409  Biso   1.000  C
  C480     1.0000 0.66013  0.15006  0.53605  Biso   1.000  C
  C481     1.0000 0.37380  0.76930  0.53805  Biso   1.000  C
  C482     1.0000 0.48551  0.33472  0.81996  Biso   1.000  C
  C483     1.0000 0.80224  0.47697  0.37518  Biso   1.000  C
  C484     1.0000 0.85578  0.77011  0.01128  Biso   1.000  C
  C485     1.0000 0.98323  0.34205  0.72523  Biso   1.000  C
  C486     1.0000 0.30750  0.46664  0.17044  Biso   1.000  C
  C487     1.0000 0.14130  0.27209  0.52577  Biso   1.000  C
  C488     1.0000 0.00146  0.84422  0.80827  Biso   1.000  C
  C489     1.0000 0.72445  0.98551  0.39925  Biso   1.000  C
  C490     1.0000 0.64778  0.27149  0.02270  Biso   1.000  C
  C491     1.0000 0.51134  0.83529  0.72786  Biso   1.000  C
  C492     1.0000 0.22241  0.96475  0.14054  Biso   1.000  C
  C493     1.0000 0.64531  0.17817  0.54456  Biso   1.000  C
  C494     1.0000 0.51267  0.60762  0.22027  Biso   1.000  C
  C495     1.0000 0.20101  0.47475  0.66564  Biso   1.000  C
  C496     1.0000 0.14696  0.17147  0.01095  Biso   1.000  C
  C497     1.0000 0.01032  0.60296  0.30934  Biso   1.000  C
  C498     1.0000 0.70341  0.49100  0.87001  Biso   1.000  C
  C499     1.0000 0.86622  0.67747  0.49443  Biso   1.000  C
  C500     1.0000 0.01225  0.10128  0.22894  Biso   1.000  C
  C501     1.0000 0.28991  0.97521  0.64331  Biso   1.000  C
  C502     1.0000 0.35839  0.67204  0.99858  Biso   1.000  C
  C503     1.0000 0.51223  0.11100  0.31672  Biso   1.000  C
  C504     1.0000 0.78584  0.98896  0.90280  Biso   1.000  C
  C505     1.0000 0.62091  0.47810  0.80342  Biso   1.000  C
  C506     1.0000 0.78993  0.60146  0.50176  Biso   1.000  C
  C507     1.0000 0.52885  0.76229  0.64735  Biso   1.000  C
  C508     1.0000 0.12203  0.46872  0.74019  Biso   1.000  C
  C509     1.0000 0.28516  0.59739  0.02146  Biso   1.000  C
  C510     1.0000 0.00603  0.76583  0.88158  Biso   1.000  C
  C511     1.0000 0.85641  0.98845  0.82154  Biso   1.000  C
  C512     1.0000 0.71845  0.10073  0.52306  Biso   1.000  C
  C513     1.0000 0.01199  0.26972  0.65104  Biso   1.000  C
  C514     1.0000 0.36169  0.97564  0.72505  Biso   1.000  C
  C515     1.0000 0.22024  0.09297  0.00979  Biso   1.000  C
  C516     1.0000 0.51336  0.26300  0.89380  Biso   1.000  C
  C517     1.0000 0.38792  0.47959  0.23894  Biso   1.000  C
  C518     1.0000 0.21481  0.35309  0.51655  Biso   1.000  C
  C519     1.0000 0.50316  0.18415  0.39502  Biso   1.000  C
  C520     1.0000 0.88114  0.46412  0.30333  Biso   1.000  C
  C521     1.0000 0.71701  0.35007  0.99910  Biso   1.000  C
  C522     1.0000 0.00768  0.17558  0.15445  Biso   1.000  C
  C523     1.0000 0.15065  0.95915  0.22303  Biso   1.000  C
  C524     1.0000 0.30158  0.84446  0.51506  Biso   1.000  C
  C525     1.0000 0.00002  0.68418  0.38359  Biso   1.000  C
  C526     1.0000 0.65377  0.98751  0.32032  Biso   1.000  C
  C527     1.0000 0.78826  0.85415  0.02990  Biso   1.000  C
  C528     1.0000 0.48517  0.68251  0.14920  Biso   1.000  C
  C529     1.0000 0.80361  0.11969  0.03182  Biso   1.000  C
  C530     1.0000 0.98338  0.76042  0.14784  Biso   1.000  C
  C531     1.0000 0.12518  0.98154  0.80533  Biso   1.000  C
  C532     1.0000 0.30221  0.11716  0.51306  Biso   1.000  C
  C533     1.0000 0.49024  0.76839  0.38401  Biso   1.000  C
  C534     1.0000 0.63059  0.97467  0.73643  Biso   1.000  C
  C535     1.0000 0.70254  0.61593  0.02116  Biso   1.000  C
  C536     1.0000 0.50021  0.26861  0.15885  Biso   1.000  C
  C537     1.0000 0.35214  0.47020  0.82372  Biso   1.000  C
  C538     1.0000 0.21313  0.61819  0.53775  Biso   1.000  C
  C539     1.0000 0.01082  0.26170  0.38710  Biso   1.000  C
  C540     1.0000 0.85091  0.48311  0.71626  Biso   1.000  C
  C541     1.0000 0.20587  0.82922  0.02523  Biso   1.000  C
  C542     1.0000 0.00818  0.18400  0.88667  Biso   1.000  C
  C543     1.0000 0.88394  0.96546  0.23904  Biso   1.000  C
  C544     1.0000 0.71844  0.83846  0.51318  Biso   1.000  C
  C545     1.0000 0.50775  0.17720  0.66360  Biso   1.000  C
  C546     1.0000 0.38612  0.96319  0.30430  Biso   1.000  C
  C547     1.0000 0.30037  0.32712  0.02145  Biso   1.000  C
  C548     1.0000 0.50507  0.67937  0.88367  Biso   1.000  C
  C549     1.0000 0.65121  0.48459  0.21678  Biso   1.000  C
  C550     1.0000 0.79534  0.33750  0.50175  Biso   1.000  C
  C551     1.0000 0.01049  0.68493  0.64877  Biso   1.000  C
  C552     1.0000 0.15227  0.47588  0.31962  Biso   1.000  C
  C553     1.0000 0.98634  0.10811  0.81135  Biso   1.000  C
  C554     1.0000 0.80795  0.98682  0.16576  Biso   1.000  C
  C555     1.0000 0.12491  0.75877  0.00779  Biso   1.000  C
  C556     1.0000 0.50425  0.09962  0.73723  Biso   1.000  C
  C557     1.0000 0.30887  0.97921  0.37727  Biso   1.000  C
  C558     1.0000 0.63737  0.77187  0.48330  Biso   1.000  C
  C559     1.0000 0.49263  0.60222  0.80768  Biso   1.000  C
  C560     1.0000 0.72388  0.47539  0.13672  Biso   1.000  C
  C561     1.0000 0.38061  0.25918  0.00429  Biso   1.000  C
  C562     1.0000 0.00608  0.60911  0.72878  Biso   1.000  C
  C563     1.0000 0.21989  0.48876  0.40307  Biso   1.000  C
  C564     1.0000 0.86956  0.26387  0.52253  Biso   1.000  C
  C565     1.0000 0.00639  0.82919  0.22450  Biso   1.000  C
  C566     1.0000 0.20365  0.96077  0.87687  Biso   1.000  C
  C567     1.0000 0.88386  0.18851  0.01133  Biso   1.000  C
  C568     1.0000 0.51798  0.84303  0.31215  Biso   1.000  C
  C569     1.0000 0.71136  0.97470  0.66712  Biso   1.000  C
  C570     1.0000 0.38244  0.19030  0.51813  Biso   1.000  C
  C571     1.0000 0.51306  0.34608  0.23333  Biso   1.000  C
  C572     1.0000 0.28219  0.45073  0.90405  Biso   1.000  C
  C573     1.0000 0.62422  0.68789  0.02365  Biso   1.000  C
  C574     1.0000 0.01408  0.33503  0.31097  Biso   1.000  C
  C575     1.0000 0.78217  0.48549  0.63203  Biso   1.000  C
  C576     1.0000 0.13203  0.69154  0.53022  Biso   1.000  C
  C577     1.0000 0.30507  0.46557  0.13967  Biso   1.000  C
  C578     1.0000 0.10956  0.27107  0.52275  Biso   1.000  C
  C579     1.0000 0.51191  0.07946  0.31485  Biso   1.000  C
  C580     1.0000 0.80127  0.47766  0.40616  Biso   1.000  C
  C581     1.0000 0.61615  0.27050  0.02369  Biso   1.000  C
  C582     1.0000 0.01233  0.06900  0.22817  Biso   1.000  C
  C583     1.0000 0.21900  0.96591  0.10923  Biso   1.000  C
  C584     1.0000 0.40649  0.76960  0.54038  Biso   1.000  C
  C585     1.0000 0.01239  0.57060  0.31184  Biso   1.000  C
  C586     1.0000 0.72315  0.98177  0.43036  Biso   1.000  C
  C587     1.0000 0.88877  0.76770  0.00977  Biso   1.000  C
  C588     1.0000 0.51689  0.57679  0.22012  Biso   1.000  C
  C589     1.0000 0.70625  0.49328  0.90150  Biso   1.000  C
  C590     1.0000 0.89772  0.67823  0.49846  Biso   1.000  C
  C591     1.0000 0.51255  0.86760  0.72846  Biso   1.000  C
  C592     1.0000 0.20253  0.48107  0.63568  Biso   1.000  C
  C593     1.0000 0.39027  0.67255  0.99613  Biso   1.000  C
  C594     1.0000 0.99702  0.87652  0.81062  Biso   1.000  C
  C595     1.0000 0.79040  0.98777  0.93419  Biso   1.000  C
  C596     1.0000 0.61362  0.17798  0.54245  Biso   1.000  C
  C597     1.0000 0.97740  0.37271  0.72608  Biso   1.000  C
  C598     1.0000 0.29213  0.97550  0.61115  Biso   1.000  C
  C599     1.0000 0.11637  0.17091  0.01787  Biso   1.000  C
  C600     1.0000 0.48107  0.36628  0.81951  Biso   1.000  C
  C601     1.0000 0.20404  0.95181  0.90862  Biso   1.000  C
  C602     1.0000 0.91478  0.18489  0.01165  Biso   1.000  C
  C603     1.0000 0.01234  0.86010  0.22626  Biso   1.000  C
  C604     1.0000 0.71472  0.97355  0.63587  Biso   1.000  C
  C605     1.0000 0.41392  0.18952  0.52206  Biso   1.000  C
  C606     1.0000 0.52302  0.87490  0.31239  Biso   1.000  C
  C607     1.0000 0.28579  0.45020  0.93689  Biso   1.000  C
  C608     1.0000 0.59174  0.68804  0.02561  Biso   1.000  C
  C609     1.0000 0.51097  0.37724  0.23217  Biso   1.000  C
  C610     1.0000 0.78582  0.47779  0.60176  Biso   1.000  C
  C611     1.0000 0.10156  0.68855  0.52558  Biso   1.000  C
  C612     1.0000 0.01452  0.36688  0.31051  Biso   1.000  C
  C613     1.0000 0.80641  0.98413  0.13444  Biso   1.000  C
  C614     1.0000 0.09470  0.76177  0.00432  Biso   1.000  C
  C615     1.0000 0.98711  0.07694  0.81231  Biso   1.000  C
  C616     1.0000 0.30817  0.98497  0.40908  Biso   1.000  C
  C617     1.0000 0.60633  0.77257  0.48361  Biso   1.000  C
  C618     1.0000 0.50028  0.06739  0.73391  Biso   1.000  C
  C619     1.0000 0.72161  0.47603  0.10613  Biso   1.000  C
  C620     1.0000 0.41302  0.26221  0.00505  Biso   1.000  C
  C621     1.0000 0.48810  0.57074  0.80802  Biso   1.000  C
  C622     1.0000 0.21721  0.49192  0.43443  Biso   1.000  C
  C623     1.0000 0.90094  0.26292  0.52518  Biso   1.000  C
  C624     1.0000 0.00247  0.57646  0.72793  Biso   1.000  C
  C625     1.0000 0.01522  0.18357  0.91710  Biso   1.000  C
  C626     1.0000 0.91539  0.96458  0.23761  Biso   1.000  C
  C627     1.0000 0.20750  0.85965  0.02335  Biso   1.000  C
  C628     1.0000 0.50811  0.17781  0.63190  Biso   1.000  C
  C629     1.0000 0.41741  0.96337  0.30826  Biso   1.000  C
  C630     1.0000 0.71975  0.86920  0.52372  Biso   1.000  C
  C631     1.0000 0.50433  0.68022  0.91530  Biso   1.000  C
  C632     1.0000 0.61985  0.48623  0.21807  Biso   1.000  C
  C633     1.0000 0.29892  0.35920  0.02974  Biso   1.000  C
  C634     1.0000 0.01069  0.68364  0.61834  Biso   1.000  C
  C635     1.0000 0.12075  0.47415  0.31827  Biso   1.000  C
  C636     1.0000 0.79610  0.36790  0.49673  Biso   1.000  C
  C637     1.0000 0.98130  0.76292  0.11550  Biso   1.000  C
  C638     1.0000 0.09414  0.98338  0.80837  Biso   1.000  C
  C639     1.0000 0.80320  0.08873  0.03857  Biso   1.000  C
  C640     1.0000 0.48853  0.76795  0.41500  Biso   1.000  C
  C641     1.0000 0.59897  0.97419  0.73480  Biso   1.000  C
  C642     1.0000 0.30135  0.08517  0.51022  Biso   1.000  C
  C643     1.0000 0.49985  0.26860  0.12808  Biso   1.000  C
  C644     1.0000 0.38394  0.47155  0.82214  Biso   1.000  C
  C645     1.0000 0.70416  0.58488  0.01920  Biso   1.000  C
  C646     1.0000 0.00803  0.26146  0.41870  Biso   1.000  C
  C647     1.0000 0.88193  0.48061  0.71864  Biso   1.000  C
  C648     1.0000 0.21280  0.58656  0.53990  Biso   1.000  C
  C649     1.0000 0.00227  0.68442  0.41485  Biso   1.000  C
  C650     1.0000 0.39388  0.97398  0.72624  Biso   1.000  C
  C651     1.0000 0.71338  0.38171  0.99503  Biso   1.000  C
  C652     1.0000 0.48293  0.68197  0.11695  Biso   1.000  C
  C653     1.0000 0.88840  0.98891  0.81961  Biso   1.000  C
  C654     1.0000 0.21050  0.38393  0.51572  Biso   1.000  C
  C655     1.0000 0.50462  0.18144  0.42679  Biso   1.000  C
  C656     1.0000 0.09088  0.47126  0.73987  Biso   1.000  C
  C657     1.0000 0.79148  0.88485  0.02981  Biso   1.000  C
  C658     1.0000 0.00557  0.17478  0.12273  Biso   1.000  C
  C659     1.0000 0.58922  0.47660  0.80716  Biso   1.000  C
  C660     1.0000 0.30227  0.87603  0.50785  Biso   1.000  C
  C661     1.0000 0.01499  0.26990  0.61977  Biso   1.000  C
  C662     1.0000 0.62266  0.98298  0.31763  Biso   1.000  C
  C663     1.0000 0.28647  0.56628  0.02736  Biso   1.000  C
  C664     1.0000 0.52144  0.26463  0.92467  Biso   1.000  C
  C665     1.0000 0.11927  0.96214  0.22576  Biso   1.000  C
  C666     1.0000 0.79024  0.57020  0.50750  Biso   1.000  C
  C667     1.0000 0.52823  0.76334  0.61542  Biso   1.000  C
  C668     1.0000 0.91169  0.46535  0.30419  Biso   1.000  C
  C669     1.0000 0.21847  0.06131  0.00971  Biso   1.000  C
  C670     1.0000 0.00564  0.76440  0.91331  Biso   1.000  C
  C671     1.0000 0.41970  0.48394  0.23528  Biso   1.000  C
  C672     1.0000 0.71735  0.06987  0.52325  Biso   1.000  C
  C673     1.0000 0.18771  0.97438  0.81610  Biso   1.000  C
  C674     1.0000 0.82115  0.18004  0.01465  Biso   1.000  C
  C675     1.0000 0.99118  0.76915  0.21003  Biso   1.000  C
  C676     1.0000 0.69349  0.97642  0.72685  Biso   1.000  C
  C677     1.0000 0.31707  0.17966  0.52031  Biso   1.000  C
  C678     1.0000 0.49983  0.78050  0.31984  Biso   1.000  C
  C679     1.0000 0.29040  0.45914  0.83822  Biso   1.000  C
  C680     1.0000 0.68512  0.67950  0.02105  Biso   1.000  C
  C681     1.0000 0.50943  0.28173  0.22210  Biso   1.000  C
  C682     1.0000 0.78933  0.48970  0.69932  Biso   1.000  C
  C683     1.0000 0.19867  0.67931  0.53082  Biso   1.000  C
  C684     1.0000 0.01241  0.27276  0.32543  Biso   1.000  C
  C685     1.0000 0.82321  0.98269  0.22798  Biso   1.000  C
  C686     1.0000 0.18629  0.76684  0.01654  Biso   1.000  C
  C687     1.0000 0.99778  0.17344  0.82324  Biso   1.000  C
  C688     1.0000 0.32273  0.96868  0.31562  Biso   1.000  C
  C689     1.0000 0.70124  0.77625  0.49534  Biso   1.000  C
  C690     1.0000 0.50624  0.16297  0.72459  Biso   1.000  C
  C691     1.0000 0.71134  0.48343  0.20256  Biso   1.000  C
  C692     1.0000 0.31748  0.26700  0.01107  Biso   1.000  C
  C693     1.0000 0.50290  0.66371  0.81895  Biso   1.000  C
  C694     1.0000 0.21272  0.47881  0.33688  Biso   1.000  C
  C695     1.0000 0.80858  0.27670  0.51762  Biso   1.000  C
  C696     1.0000 0.01229  0.67227  0.71376  Biso   1.000  C
  C697     1.0000 0.71472  0.99105  0.33517  Biso   1.000  C
  C698     1.0000 0.29516  0.65828  0.01138  Biso   1.000  C
  C699     1.0000 0.00097  0.28207  0.71310  Biso   1.000  C
  C700     1.0000 0.21474  0.96052  0.20370  Biso   1.000  C
  C701     1.0000 0.80439  0.66381  0.49138  Biso   1.000  C
  C702     1.0000 0.49815  0.27614  0.83376  Biso   1.000  C
  C703     1.0000 0.81738  0.47653  0.31185  Biso   1.000  C
  C704     1.0000 0.21082  0.15551  0.00699  Biso   1.000  C
  C705     1.0000 0.51796  0.77210  0.71079  Biso   1.000  C
  C706     1.0000 0.32252  0.46965  0.23083  Biso   1.000  C
  C707     1.0000 0.70582  0.16417  0.53440  Biso   1.000  C
  C708     1.0000 0.01051  0.78071  0.82128  Biso   1.000  C
  C709     1.0000 0.30014  0.97887  0.70873  Biso   1.000  C
  C710     1.0000 0.70903  0.28588  0.01186  Biso   1.000  C
  C711     1.0000 0.99736  0.66677  0.32101  Biso   1.000  C
  C712     1.0000 0.79402  0.98649  0.83978  Biso   1.000  C
  C713     1.0000 0.20553  0.28980  0.52342  Biso   1.000  C
  C714     1.0000 0.49739  0.67015  0.21005  Biso   1.000  C
  C715     1.0000 0.18452  0.46675  0.72795  Biso   1.000  C
  C716     1.0000 0.79530  0.79110  0.02340  Biso   1.000  C
  C717     1.0000 0.51112  0.17213  0.33176  Biso   1.000  C
  C718     1.0000 0.68257  0.48695  0.80982  Biso   1.000  C
  C719     1.0000 0.31392  0.78336  0.52573  Biso   1.000  C
  C720     1.0000 0.01080  0.16364  0.21631  Biso   1.000  C
  C721     1.0000 0.49009  0.78577  0.28989  Biso   1.000  C
  C722     1.0000 0.29520  0.44543  0.80889  Biso   1.000  C
  C723     1.0000 0.77967  0.28465  0.53081  Biso   1.000  C
  C724     1.0000 0.99693  0.73785  0.20442  Biso   1.000  C
  C725     1.0000 0.76431  0.50889  0.69479  Biso   1.000  C
  C726     1.0000 0.28942  0.26969  0.99641  Biso   1.000  C
  C727     1.0000 0.99499  0.24597  0.32840  Biso   1.000  C
  C728     1.0000 0.21699  0.98504  0.82117  Biso   1.000  C
  C729     1.0000 0.69316  0.74629  0.50043  Biso   1.000  C
  C730     1.0000 0.49683  0.28560  0.25129  Biso   1.000  C
  C731     1.0000 0.72091  0.96119  0.72907  Biso   1.000  C
  C732     1.0000 0.21533  0.77035  0.00128  Biso   1.000  C
  C733     1.0000 0.48750  0.15919  0.74999  Biso   1.000  C
  C734     1.0000 0.70789  0.46612  0.22921  Biso   1.000  C
  C735     1.0000 0.19577  0.70285  0.51100  Biso   1.000  C
  C736     1.0000 0.02195  0.19331  0.82251  Biso   1.000  C
  C737     1.0000 0.23965  0.46311  0.34169  Biso   1.000  C
  C738     1.0000 0.71120  0.67802  0.03769  Biso   1.000  C
  C739     1.0000 0.03003  0.66789  0.74046  Biso   1.000  C
  C740     1.0000 0.79285  0.97397  0.22475  Biso   1.000  C
  C741     1.0000 0.29138  0.17952  0.50222  Biso   1.000  C
  C742     1.0000 0.51932  0.65628  0.79245  Biso   1.000  C
  C743     1.0000 0.29517  0.95445  0.32003  Biso   1.000  C
  C744     1.0000 0.82557  0.20823  0.02762  Biso   1.000  C
  C745     1.0000 0.00928  0.69556  0.32062  Biso   1.000  C
  C746     1.0000 0.27300  0.99641  0.70383  Biso   1.000  C
  C747     1.0000 0.73921  0.29353  0.01986  Biso   1.000  C
  C748     1.0000 0.50583  0.70046  0.20364  Biso   1.000  C
  C749     1.0000 0.76593  0.97354  0.84781  Biso   1.000  C
  C750     1.0000 0.23475  0.29726  0.53534  Biso   1.000  C
  C751     1.0000 0.53037  0.17182  0.30718  Biso   1.000  C
  C752     1.0000 0.20973  0.44776  0.72380  Biso   1.000  C
  C753     1.0000 0.76590  0.79907  0.01307  Biso   1.000  C
  C754     1.0000 0.02880  0.18964  0.21348  Biso   1.000  C
  C755     1.0000 0.67862  0.46787  0.78286  Biso   1.000  C
  C756     1.0000 0.30726  0.76579  0.55070  Biso   1.000  C
  C757     1.0000 0.98640  0.25396  0.70806  Biso   1.000  C
  C758     1.0000 0.71080  0.00842  0.30782  Biso   1.000  C
  C759     1.0000 0.27388  0.66089  0.03490  Biso   1.000  C
  C760     1.0000 0.50906  0.27932  0.80427  Biso   1.000  C
  C761     1.0000 0.24136  0.97567  0.19975  Biso   1.000  C
  C762     1.0000 0.80818  0.68671  0.46992  Biso   1.000  C
  C763     1.0000 0.50384  0.74357  0.70343  Biso   1.000  C
  C764     1.0000 0.79322  0.49825  0.31468  Biso   1.000  C
  C765     1.0000 0.23406  0.15468  0.02653  Biso   1.000  C
  C766     1.0000 0.99289  0.78131  0.79529  Biso   1.000  C
  C767     1.0000 0.32570  0.48778  0.25750  Biso   1.000  C
  C768     1.0000 0.69816  0.19302  0.52314  Biso   1.000  C
  C769     1.0000 0.49368  0.69353  0.82079  Biso   1.000  C
  C770     1.0000 0.78925  0.47111  0.72409  Biso   1.000  C
  C771     1.0000 0.72989  0.78153  0.48348  Biso   1.000  C
  C772     1.0000 0.99574  0.69778  0.71184  Biso   1.000  C
  C773     1.0000 0.26107  0.46967  0.84428  Biso   1.000  C
  C774     1.0000 0.17924  0.73720  0.02826  Biso   1.000  C
  C775     1.0000 0.97660  0.17609  0.80011  Biso   1.000  C
  C776     1.0000 0.68542  0.99397  0.75205  Biso   1.000  C
  C777     1.0000 0.81281  0.24549  0.50821  Biso   1.000  C
  C778     1.0000 0.52535  0.18845  0.72422  Biso   1.000  C
  C779     1.0000 0.18102  0.96452  0.78637  Biso   1.000  C
  C780     1.0000 0.32338  0.23892  0.02541  Biso   1.000  C
  C781     1.0000 0.52519  0.25384  0.21646  Biso   1.000  C
  C782     1.0000 0.21041  0.49396  0.30935  Biso   1.000  C
  C783     1.0000 0.31977  0.20503  0.53900  Biso   1.000  C
  C784     1.0000 0.03121  0.27577  0.30038  Biso   1.000  C
  C785     1.0000 0.73731  0.50165  0.19739  Biso   1.000  C
  C786     1.0000 0.79475  0.17469  0.99884  Biso   1.000  C
  C787     1.0000 0.97548  0.77601  0.23743  Biso   1.000  C
  C788     1.0000 0.32996  0.97943  0.28686  Biso   1.000  C
  C789     1.0000 0.22418  0.67865  0.55136  Biso   1.000  C
  C790     1.0000 0.51134  0.75137  0.32472  Biso   1.000  C
  C791     1.0000 0.83014  0.99798  0.25594  Biso   1.000  C
  C792     1.0000 0.68225  0.70645  0.00312  Biso   1.000  C
  C793     1.0000 0.48997  0.19639  0.33174  Biso   1.000  C
  C794     1.0000 0.29646  0.45167  0.22698  Biso   1.000  C
  C795     1.0000 0.20162  0.25996  0.51274  Biso   1.000  C
  C796     1.0000 0.99351  0.16290  0.24224  Biso   1.000  C
  C797     1.0000 0.81944  0.46044  0.28437  Biso   1.000  C
  C798     1.0000 0.70542  0.25778  0.00099  Biso   1.000  C
  C799     1.0000 0.97677  0.65909  0.29820  Biso   1.000  C
  C800     1.0000 0.21257  0.94164  0.22994  Biso   1.000  C
  C801     1.0000 0.29384  0.78335  0.50143  Biso   1.000  C
  C802     1.0000 0.49064  0.66430  0.24015  Biso   1.000  C
  C803     1.0000 0.74378  0.97651  0.33894  Biso   1.000  C
  C804     1.0000 0.79890  0.76202  0.03651  Biso   1.000  C
  C805     1.0000 0.52943  0.77535  0.74164  Biso   1.000  C
  C806     1.0000 0.70598  0.50935  0.80863  Biso   1.000  C
  C807     1.0000 0.77887  0.66457  0.51001  Biso   1.000  C
  C808     1.0000 0.02866  0.75538  0.82627  Biso   1.000  C
  C809     1.0000 0.18107  0.48302  0.75462  Biso   1.000  C
  C810     1.0000 0.29203  0.67718  0.98688  Biso   1.000  C
  C811     1.0000 0.01292  0.28651  0.74147  Biso   1.000  C
  C812     1.0000 0.79688  0.99932  0.81019  Biso   1.000  C
  C813     1.0000 0.73581  0.15884  0.54307  Biso   1.000  C
  C814     1.0000 0.48449  0.24748  0.83765  Biso   1.000  C
  C815     1.0000 0.30147  0.96530  0.73800  Biso   1.000  C
  C816     1.0000 0.20894  0.18012  0.98736  Biso   1.000  C
  C817     1.0000 0.02479  0.21504  0.80031  Biso   1.000  C
  C818     1.0000 0.77172  0.98108  0.24472  Biso   1.000  C
  C819     1.0000 0.23465  0.74648  0.99852  Biso   1.000  C
  C820     1.0000 0.48693  0.18011  0.77175  Biso   1.000  C
  C821     1.0000 0.27678  0.95159  0.29670  Biso   1.000  C
  C822     1.0000 0.71188  0.72435  0.49348  Biso   1.000  C
  C823     1.0000 0.52240  0.67740  0.77028  Biso   1.000  C
  C824     1.0000 0.72934  0.46926  0.25003  Biso   1.000  C
  C825     1.0000 0.27007  0.24697  0.99661  Biso   1.000  C
  C826     1.0000 0.02944  0.68965  0.76192  Biso   1.000  C
  C827     1.0000 0.26071  0.46047  0.31876  Biso   1.000  C
  C828     1.0000 0.76039  0.26185  0.53765  Biso   1.000  C
  C829     1.0000 0.99130  0.71751  0.22676  Biso   1.000  C
  C830     1.0000 0.23697  0.98757  0.79834  Biso   1.000  C
  C831     1.0000 0.80285  0.22866  0.02634  Biso   1.000  C
  C832     1.0000 0.48803  0.76480  0.26902  Biso   1.000  C
  C833     1.0000 0.73655  0.96227  0.75430  Biso   1.000  C
  C834     1.0000 0.27172  0.20209  0.50329  Biso   1.000  C
  C835     1.0000 0.49630  0.26370  0.27139  Biso   1.000  C
  C836     1.0000 0.27258  0.44379  0.78912  Biso   1.000  C
  C837     1.0000 0.73123  0.70057  0.03581  Biso   1.000  C
  C838     1.0000 0.99474  0.22603  0.30646  Biso   1.000  C
  C839     1.0000 0.74202  0.50807  0.71525  Biso   1.000  C
  C840     1.0000 0.21634  0.72495  0.51362  Biso   1.000  C
  C841     1.0000 0.20283  0.96748  0.76490  Biso   1.000  C
  C842     1.0000 0.77213  0.19511  0.99760  Biso   1.000  C
  C843     1.0000 0.97160  0.75525  0.25915  Biso   1.000  C
  C844     1.0000 0.70284  0.99456  0.77688  Biso   1.000  C
  C845     1.0000 0.29955  0.22693  0.53860  Biso   1.000  C
  C846     1.0000 0.51045  0.73166  0.30266  Biso   1.000  C
  C847     1.0000 0.24002  0.46945  0.82278  Biso   1.000  C
  C848     1.0000 0.70197  0.73024  0.00550  Biso   1.000  C
  C849     1.0000 0.52295  0.23246  0.23782  Biso   1.000  C
  C850     1.0000 0.76462  0.47045  0.74244  Biso   1.000  C
  C851     1.0000 0.24563  0.69915  0.54857  Biso   1.000  C
  C852     1.0000 0.03222  0.25311  0.27994  Biso   1.000  C
  C853     1.0000 0.80840  0.00272  0.27604  Biso   1.000  C
  C854     1.0000 0.19846  0.71458  0.02022  Biso   1.000  C
  C855     1.0000 0.97825  0.19806  0.78027  Biso   1.000  C
  C856     1.0000 0.30851  0.97576  0.26482  Biso   1.000  C
  C857     1.0000 0.74882  0.75958  0.48002  Biso   1.000  C
  C858     1.0000 0.52464  0.20787  0.74717  Biso   1.000  C
  C859     1.0000 0.75656  0.50339  0.22031  Biso   1.000  C
  C860     1.0000 0.30356  0.21561  0.02216  Biso   1.000  C
  C861     1.0000 0.49747  0.71318  0.79830  Biso   1.000  C
  C862     1.0000 0.23049  0.49032  0.28769  Biso   1.000  C
  C863     1.0000 0.79059  0.22588  0.51292  Biso   1.000  C
  C864     1.0000 0.99390  0.71663  0.73334  Biso   1.000  C
  C865     1.0000 0.69817  0.47019  0.75939  Biso   1.000  C
  C866     1.0000 0.78655  0.70808  0.46623  Biso   1.000  C
  C867     1.0000 0.50084  0.72181  0.72335  Biso   1.000  C
  C868     1.0000 0.22664  0.44492  0.74775  Biso   1.000  C
  C869     1.0000 0.25072  0.68077  0.03302  Biso   1.000  C
  C870     1.0000 0.99626  0.76067  0.77443  Biso   1.000  C
  C871     1.0000 0.74387  0.97337  0.82830  Biso   1.000  C
  C872     1.0000 0.71835  0.21580  0.52353  Biso   1.000  C
  C873     1.0000 0.98692  0.23273  0.73054  Biso   1.000  C
  C874     1.0000 0.24999  0.99504  0.72306  Biso   1.000  C
  C875     1.0000 0.25531  0.17524  0.02771  Biso   1.000  C
  C876     1.0000 0.51031  0.25874  0.78312  Biso   1.000  C
  C877     1.0000 0.30221  0.48895  0.27626  Biso   1.000  C
  C878     1.0000 0.25673  0.27551  0.53490  Biso   1.000  C
  C879     1.0000 0.53218  0.19469  0.28625  Biso   1.000  C
  C880     1.0000 0.77476  0.50367  0.29246  Biso   1.000  C
  C881     1.0000 0.76071  0.27272  0.01905  Biso   1.000  C
  C882     1.0000 0.03055  0.21131  0.23498  Biso   1.000  C
  C883     1.0000 0.26339  0.97434  0.21992  Biso   1.000  C
  C884     1.0000 0.28343  0.74734  0.54963  Biso   1.000  C
  C885     1.0000 0.99941  0.71473  0.29875  Biso   1.000  C
  C886     1.0000 0.73227  0.00912  0.28659  Biso   1.000  C
  C887     1.0000 0.74267  0.77932  0.01594  Biso   1.000  C
  C888     1.0000 0.50697  0.72142  0.22500  Biso   1.000  C
  C889     1.0000 0.76521  0.97925  0.31848  Biso   1.000  C
  C890     1.0000 0.26766  0.69518  0.98608  Biso   1.000  C
  C891     1.0000 0.01489  0.26435  0.76164  Biso   1.000  C
  C892     1.0000 0.23472  0.94166  0.25034  Biso   1.000  C
  C893     1.0000 0.75839  0.68643  0.50603  Biso   1.000  C
  C894     1.0000 0.48606  0.22588  0.81563  Biso   1.000  C
  C895     1.0000 0.80079  0.46771  0.26247  Biso   1.000  C
  C896     1.0000 0.23154  0.19990  0.98734  Biso   1.000  C
  C897     1.0000 0.52643  0.75231  0.76113  Biso   1.000  C
  C898     1.0000 0.27423  0.45333  0.24702  Biso   1.000  C
  C899     1.0000 0.75416  0.18370  0.54628  Biso   1.000  C
  C900     1.0000 0.03006  0.73539  0.80478  Biso   1.000  C
  C901     1.0000 0.27806  0.96521  0.75611  Biso   1.000  C
  C902     1.0000 0.72701  0.23741  0.00022  Biso   1.000  C
  C903     1.0000 0.96988  0.67906  0.27570  Biso   1.000  C
  C904     1.0000 0.77428  0.99573  0.79005  Biso   1.000  C
  C905     1.0000 0.22396  0.23986  0.51319  Biso   1.000  C
  C906     1.0000 0.49278  0.68718  0.26145  Biso   1.000  C
  C907     1.0000 0.20152  0.48219  0.77588  Biso   1.000  C
  C908     1.0000 0.77648  0.74289  0.03343  Biso   1.000  C
  C909     1.0000 0.49005  0.21679  0.30958  Biso   1.000  C
  C910     1.0000 0.72526  0.51046  0.78440  Biso   1.000  C
  C911     1.0000 0.27042  0.76409  0.50207  Biso   1.000  C
  C912     1.0000 0.99639  0.18391  0.26211  Biso   1.000  C
  C913     1.0000 0.74260  0.49021  0.73888  Biso   1.000  C
  C914     1.0000 0.73934  0.73087  0.48373  Biso   1.000  C
  C915     1.0000 0.50789  0.70397  0.77208  Biso   1.000  C
  C916     1.0000 0.24563  0.45740  0.79529  Biso   1.000  C
  C917     1.0000 0.22504  0.71939  0.00765  Biso   1.000  C
  C918     1.0000 0.01000  0.71332  0.75912  Biso   1.000  C
  C919     1.0000 0.72851  0.98000  0.77700  Biso   1.000  C
  C920     1.0000 0.76691  0.23295  0.52927  Biso   1.000  C
  C921     1.0000 0.00148  0.21644  0.78025  Biso   1.000  C
  C922     1.0000 0.22970  0.97811  0.77101  Biso   1.000  C
  C923     1.0000 0.27673  0.22030  0.00859  Biso   1.000  C
  C924     1.0000 0.50480  0.20484  0.76955  Biso   1.000  C
  C925     1.0000 0.25532  0.47344  0.29227  Biso   1.000  C
  C926     1.0000 0.27486  0.22612  0.52052  Biso   1.000  C
  C927     1.0000 0.51260  0.23873  0.26567  Biso   1.000  C
  C928     1.0000 0.75409  0.48651  0.24458  Biso   1.000  C
  C929     1.0000 0.77644  0.22153  0.01173  Biso   1.000  C
  C930     1.0000 0.01376  0.22919  0.28252  Biso   1.000  C
  C931     1.0000 0.28195  0.96290  0.26882  Biso   1.000  C
  C932     1.0000 0.24060  0.72374  0.53115  Biso   1.000  C
  C933     1.0000 0.97784  0.72651  0.25229  Biso   1.000  C
  C934     1.0000 0.78013  0.99302  0.27074  Biso   1.000  C
  C935     1.0000 0.72633  0.72726  0.02199  Biso   1.000  C
  C936     1.0000 0.50032  0.73845  0.27539  Biso   1.000  C
  C937     1.0000 0.75549  0.24469  0.01063  Biso   1.000  C
  C938     1.0000 0.97881  0.70708  0.27793  Biso   1.000  C
  C939     1.0000 0.25286  0.97864  0.74821  Biso   1.000  C
  C940     1.0000 0.25192  0.24792  0.52289  Biso   1.000  C
  C941     1.0000 0.49920  0.71539  0.25338  Biso   1.000  C
  C942     1.0000 0.74935  0.98301  0.80015  Biso   1.000  C
  C943     1.0000 0.74872  0.75152  0.02477  Biso   1.000  C
  C944     1.0000 0.51048  0.21593  0.28741  Biso   1.000  C
  C945     1.0000 0.22404  0.46166  0.77214  Biso   1.000  C
  C946     1.0000 0.26586  0.74440  0.52549  Biso   1.000  C
  C947     1.0000 0.01460  0.20790  0.26011  Biso   1.000  C
  C948     1.0000 0.72019  0.49097  0.76132  Biso   1.000  C
  C949     1.0000 0.24721  0.69667  0.00789  Biso   1.000  C
  C950     1.0000 0.00144  0.23808  0.75744  Biso   1.000  C
  C951     1.0000 0.75806  0.99360  0.29295  Biso   1.000  C
  C952     1.0000 0.76223  0.70744  0.48399  Biso   1.000  C
  C953     1.0000 0.50135  0.23047  0.79052  Biso   1.000  C
  C954     1.0000 0.26038  0.95783  0.24454  Biso   1.000  C
  C955     1.0000 0.25375  0.19889  0.00890  Biso   1.000  C
  C956     1.0000 0.51182  0.72681  0.75122  Biso   1.000  C
  C957     1.0000 0.77797  0.48697  0.26635  Biso   1.000  C
  C958     1.0000 0.74521  0.21035  0.53451  Biso   1.000  C
  C959     1.0000 0.01297  0.73756  0.77955  Biso   1.000  C
  C960     1.0000 0.27786  0.47160  0.27034  Biso   1.000  C
  Cu1      1.0000 0.99228  0.47413  0.67512  Biso   1.000  Cu
  Cu2      1.0000 0.66418  0.96755  0.53181  Biso   1.000  Cu
  Cu3      1.0000 0.49262  0.62636  0.01621  Biso   1.000  Cu
  Cu4      1.0000 0.48939  0.47299  0.86921  Biso   1.000  Cu
  Cu5      1.0000 0.15724  0.96342  0.01332  Biso   1.000  Cu
  Cu6      1.0000 0.00105  0.62840  0.51839  Biso   1.000  Cu
  Cu7      1.0000 0.49709  0.96785  0.67654  Biso   1.000  Cu
  Cu8      1.0000 0.85066  0.46827  0.50838  Biso   1.000  Cu
  Cu9      1.0000 0.01290  0.12460  0.01723  Biso   1.000  Cu
  Cu10     1.0000 0.99635  0.97811  0.86650  Biso   1.000  Cu
  Cu11     1.0000 0.34677  0.46686  0.03180  Biso   1.000  Cu
  Cu12     1.0000 0.51193  0.12827  0.52738  Biso   1.000  Cu
  Cu13     1.0000 0.01199  0.47081  0.36811  Biso   1.000  Cu
  Cu14     1.0000 0.35526  0.98018  0.51357  Biso   1.000  Cu
  Cu15     1.0000 0.51068  0.32138  0.02595  Biso   1.000  Cu
  Cu16     1.0000 0.51590  0.47573  0.17030  Biso   1.000  Cu
  Cu17     1.0000 0.85312  0.98178  0.02979  Biso   1.000  Cu
  Cu18     1.0000 0.00248  0.32148  0.51784  Biso   1.000  Cu
  Cu19     1.0000 0.51775  0.97488  0.36867  Biso   1.000  Cu
  Cu20     1.0000 0.15571  0.48475  0.53107  Biso   1.000  Cu
  Cu21     1.0000 0.99502  0.81787  0.01537  Biso   1.000  Cu
  Cu22     1.0000 0.01401  0.96515  0.17393  Biso   1.000  Cu
  Cu23     1.0000 0.65401  0.47876  0.00761  Biso   1.000  Cu
  Cu24     1.0000 0.50771  0.82409  0.51748  Biso   1.000  Cu
  Cu25     1.0000 0.21140  0.95867  0.01079  Biso   1.000  Cu
  Cu26     1.0000 0.01662  0.17754  0.02044  Biso   1.000  Cu
  Cu27     1.0000 0.01980  0.96619  0.23000  Biso   1.000  Cu
  Cu28     1.0000 0.71829  0.96906  0.53329  Biso   1.000  Cu
  Cu29     1.0000 0.51426  0.18200  0.52772  Biso   1.000  Cu
  Cu30     1.0000 0.52107  0.97665  0.31354  Biso   1.000  Cu
  Cu31     1.0000 0.29198  0.46321  0.03775  Biso   1.000  Cu
  Cu32     1.0000 0.49035  0.68037  0.01731  Biso   1.000  Cu
  Cu33     1.0000 0.52081  0.47946  0.22519  Biso   1.000  Cu
  Cu34     1.0000 0.79522  0.47051  0.50493  Biso   1.000  Cu
  Cu35     1.0000 0.00085  0.68369  0.51758  Biso   1.000  Cu
  Cu36     1.0000 0.01471  0.47049  0.31313  Biso   1.000  Cu
  Cu37     1.0000 0.79927  0.98547  0.03560  Biso   1.000  Cu
  Cu38     1.0000 0.99291  0.76462  0.01650  Biso   1.000  Cu
  Cu39     1.0000 0.99171  0.97829  0.81290  Biso   1.000  Cu
  Cu40     1.0000 0.30193  0.97811  0.50943  Biso   1.000  Cu
  Cu41     1.0000 0.50575  0.77024  0.51360  Biso   1.000  Cu
  Cu42     1.0000 0.49749  0.96795  0.73106  Biso   1.000  Cu
  Cu43     1.0000 0.71011  0.48453  0.00426  Biso   1.000  Cu
  Cu44     1.0000 0.51259  0.26463  0.02590  Biso   1.000  Cu
  Cu45     1.0000 0.48641  0.46907  0.81504  Biso   1.000  Cu
  Cu46     1.0000 0.21067  0.48204  0.53629  Biso   1.000  Cu
  Cu47     1.0000 0.00613  0.26807  0.52013  Biso   1.000  Cu
  Cu48     1.0000 0.98653  0.47665  0.72847  Biso   1.000  Cu
  H1       1.0000 0.28003  0.73188  0.56671  Biso   1.000  H
  H2       1.0000 0.51888  0.26467  0.76211  Biso   1.000  H
  H3       1.0000 0.75836  0.52043  0.29171  Biso   1.000  H
  H4       1.0000 0.72119  0.78836  0.01369  Biso   1.000  H
  H5       1.0000 0.97689  0.21077  0.72574  Biso   1.000  H
  H6       1.0000 0.30194  0.50193  0.29508  Biso   1.000  H
  H7       1.0000 0.27683  0.28151  0.54680  Biso   1.000  H
  H8       1.0000 0.98473  0.76445  0.75365  Biso   1.000  H
  H9       1.0000 0.72999  0.02283  0.26815  Biso   1.000  H
  H10      1.0000 0.78261  0.27937  0.02346  Biso   1.000  H
  H11      1.0000 0.49055  0.70177  0.71945  Biso   1.000  H
  H12      1.0000 0.28511  0.98536  0.21499  Biso   1.000  H
  H13      1.0000 0.71371  0.23746  0.51478  Biso   1.000  H
  H14      1.0000 0.51720  0.74130  0.21994  Biso   1.000  H
  H15      1.0000 0.24383  0.42675  0.74669  Biso   1.000  H
  H16      1.0000 0.27097  0.17363  0.04530  Biso   1.000  H
  H17      1.0000 0.00916  0.73731  0.29881  Biso   1.000  H
  H18      1.0000 0.69533  0.45769  0.74018  Biso   1.000  H
  H19      1.0000 0.79066  0.72488  0.44917  Biso   1.000  H
  H20      1.0000 0.04462  0.22885  0.23044  Biso   1.000  H
  H21      1.0000 0.23007  0.00715  0.71733  Biso   1.000  H
  H22      1.0000 0.23671  0.68334  0.05128  Biso   1.000  H
  H23      1.0000 0.54848  0.19756  0.27006  Biso   1.000  H
  H24      1.0000 0.72397  0.96074  0.83171  Biso   1.000  H
  H25      1.0000 0.25876  0.99233  0.80295  Biso   1.000  H
  H26      1.0000 0.80542  0.24761  0.03945  Biso   1.000  H
  H27      1.0000 0.99501  0.69411  0.22333  Biso   1.000  H
  H28      1.0000 0.75462  0.94852  0.75456  Biso   1.000  H
  H29      1.0000 0.25511  0.19899  0.48572  Biso   1.000  H
  H30      1.0000 0.47745  0.76860  0.24868  Biso   1.000  H
  H31      1.0000 0.27887  0.43010  0.76920  Biso   1.000  H
  H32      1.0000 0.75203  0.69658  0.04482  Biso   1.000  H
  H33      1.0000 0.48717  0.26934  0.29257  Biso   1.000  H
  H34      1.0000 0.72537  0.52370  0.71109  Biso   1.000  H
  H35      1.0000 0.20954  0.74564  0.50054  Biso   1.000  H
  H36      1.0000 0.97764  0.20873  0.30927  Biso   1.000  H
  H37      1.0000 0.74820  0.97276  0.24140  Biso   1.000  H
  H38      1.0000 0.25516  0.74963  0.98705  Biso   1.000  H
  H39      1.0000 0.04186  0.22925  0.79757  Biso   1.000  H
  H40      1.0000 0.25630  0.94109  0.30356  Biso   1.000  H
  H41      1.0000 0.70505  0.70139  0.49780  Biso   1.000  H
  H42      1.0000 0.47394  0.17624  0.79109  Biso   1.000  H
  H43      1.0000 0.72638  0.45710  0.27029  Biso   1.000  H
  H44      1.0000 0.24996  0.25102  0.98659  Biso   1.000  H
  H45      1.0000 0.53773  0.67326  0.75311  Biso   1.000  H
  H46      1.0000 0.28001  0.44876  0.32432  Biso   1.000  H
  H47      1.0000 0.74095  0.26405  0.54910  Biso   1.000  H
  H48      1.0000 0.04136  0.68478  0.78199  Biso   1.000  H
  H49      1.0000 0.22602  0.50180  0.26654  Biso   1.000  H
  H50      1.0000 0.30283  0.24363  0.55436  Biso   1.000  H
  H51      1.0000 0.53119  0.21121  0.23244  Biso   1.000  H
  H52      1.0000 0.77629  0.51695  0.21637  Biso   1.000  H
  H53      1.0000 0.75355  0.19077  0.98413  Biso   1.000  H
  H54      1.0000 0.04782  0.25550  0.26258  Biso   1.000  H
  H55      1.0000 0.31451  0.98322  0.24397  Biso   1.000  H
  H56      1.0000 0.26634  0.69700  0.56204  Biso   1.000  H
  H57      1.0000 0.96122  0.75948  0.27909  Biso   1.000  H
  H58      1.0000 0.81454  0.01119  0.29700  Biso   1.000  H
  H59      1.0000 0.69929  0.74997  0.99438  Biso   1.000  H
  H60      1.0000 0.52097  0.71144  0.30633  Biso   1.000  H
  H61      1.0000 0.76144  0.45339  0.75997  Biso   1.000  H
  H62      1.0000 0.77157  0.76212  0.47355  Biso   1.000  H
  H63      1.0000 0.49064  0.73528  0.79817  Biso   1.000  H
  H64      1.0000 0.21915  0.47660  0.82766  Biso   1.000  H
  H65      1.0000 0.19262  0.69267  0.02589  Biso   1.000  H
  H66      1.0000 0.97458  0.73072  0.73194  Biso   1.000  H
  H67      1.0000 0.69456  0.00875  0.79335  Biso   1.000  H
  H68      1.0000 0.79227  0.20418  0.50270  Biso   1.000  H
  H69      1.0000 0.96079  0.19879  0.76429  Biso   1.000  H
  H70      1.0000 0.19867  0.96113  0.74290  Biso   1.000  H
  H71      1.0000 0.30971  0.19442  0.03192  Biso   1.000  H
  H72      1.0000 0.53934  0.22675  0.74675  Biso   1.000  H
  H73      1.0000 0.74378  0.52526  0.78307  Biso   1.000  H
  H74      1.0000 0.74002  0.68763  0.52035  Biso   1.000  H
  H75      1.0000 0.53624  0.75242  0.78120  Biso   1.000  H
  H76      1.0000 0.19907  0.49654  0.79517  Biso   1.000  H
  H77      1.0000 0.26545  0.70899  0.96641  Biso   1.000  H
  H78      1.0000 0.04584  0.71716  0.80878  Biso   1.000  H
  H79      1.0000 0.77621  0.00856  0.77043  Biso   1.000  H
  H80      1.0000 0.77451  0.18401  0.55811  Biso   1.000  H
  H81      1.0000 0.02729  0.26689  0.78264  Biso   1.000  H
  H82      1.0000 0.27805  0.95231  0.77619  Biso   1.000  H
  H83      1.0000 0.23101  0.21871  0.97229  Biso   1.000  H
  H84      1.0000 0.47999  0.20388  0.82241  Biso   1.000  H
  H85      1.0000 0.25315  0.44109  0.24630  Biso   1.000  H
  H86      1.0000 0.21685  0.21870  0.50669  Biso   1.000  H
  H87      1.0000 0.47516  0.23415  0.31174  Biso   1.000  H
  H88      1.0000 0.80127  0.45712  0.24140  Biso   1.000  H
  H89      1.0000 0.72220  0.21635  0.99036  Biso   1.000  H
  H90      1.0000 0.98266  0.18011  0.28126  Biso   1.000  H
  H91      1.0000 0.23009  0.93045  0.27080  Biso   1.000  H
  H92      1.0000 0.25260  0.76138  0.48640  Biso   1.000  H
  H93      1.0000 0.95401  0.67400  0.25902  Biso   1.000  H
  H94      1.0000 0.78490  0.96555  0.32186  Biso   1.000  H
  H95      1.0000 0.78102  0.72095  0.03814  Biso   1.000  H
  H96      1.0000 0.48901  0.68282  0.28340  Biso   1.000  H
  H97      1.0000 0.86399  0.97527  0.94013  Biso   1.000  H
  H98      1.0000 0.90402  0.84282  0.01151  Biso   1.000  H
  H99      1.0000 0.99380  0.88438  0.88638  Biso   1.000  H
  H100     1.0000 0.36739  0.97577  0.60327  Biso   1.000  H
  H101     1.0000 0.41617  0.84569  0.53884  Biso   1.000  H
  H102     1.0000 0.51970  0.87897  0.65310  Biso   1.000  H
  H103     1.0000 0.62998  0.48744  0.91697  Biso   1.000  H
  H104     1.0000 0.60122  0.34580  0.02118  Biso   1.000  H
  H105     1.0000 0.50424  0.38408  0.89226  Biso   1.000  H
  H106     1.0000 0.13042  0.48563  0.61828  Biso   1.000  H
  H107     1.0000 0.09822  0.34304  0.51243  Biso   1.000  H
  H108     1.0000 0.99280  0.38676  0.65231  Biso   1.000  H
  H109     1.0000 0.14277  0.97443  0.10658  Biso   1.000  H
  H110     1.0000 0.10143  0.09553  0.01355  Biso   1.000  H
  H111     1.0000 0.00791  0.05883  0.15080  Biso   1.000  H
  H112     1.0000 0.64977  0.97023  0.43852  Biso   1.000  H
  H113     1.0000 0.59947  0.10400  0.53721  Biso   1.000  H
  H114     1.0000 0.51097  0.06314  0.38906  Biso   1.000  H
  H115     1.0000 0.38119  0.46887  0.12342  Biso   1.000  H
  H116     1.0000 0.40335  0.59887  0.01191  Biso   1.000  H
  H117     1.0000 0.49614  0.56364  0.14793  Biso   1.000  H
  H118     1.0000 0.87791  0.47943  0.41744  Biso   1.000  H
  H119     1.0000 0.90969  0.60715  0.52225  Biso   1.000  H
  H120     1.0000 0.02394  0.56553  0.38596  Biso   1.000  H
  H121     1.0000 0.08642  0.97213  0.88338  Biso   1.000  H
  H122     1.0000 0.87589  0.07174  0.03111  Biso   1.000  H
  H123     1.0000 0.99560  0.83861  0.10905  Biso   1.000  H
  H124     1.0000 0.59379  0.96715  0.65697  Biso   1.000  H
  H125     1.0000 0.37521  0.06894  0.52203  Biso   1.000  H
  H126     1.0000 0.49324  0.84490  0.42364  Biso   1.000  H
  H127     1.0000 0.40046  0.46103  0.89648  Biso   1.000  H
  H128     1.0000 0.63093  0.57075  0.01799  Biso   1.000  H
  H129     1.0000 0.49804  0.34508  0.11619  Biso   1.000  H
  H130     1.0000 0.89831  0.47795  0.64369  Biso   1.000  H
  H131     1.0000 0.13515  0.57470  0.54154  Biso   1.000  H
  H132     1.0000 0.99266  0.33702  0.42846  Biso   1.000  H
  H133     1.0000 0.92516  0.96759  0.16235  Biso   1.000  H
  H134     1.0000 0.13282  0.87450  0.02425  Biso   1.000  H
  H135     1.0000 0.01317  0.10784  0.92442  Biso   1.000  H
  H136     1.0000 0.42745  0.96893  0.38230  Biso   1.000  H
  H137     1.0000 0.64313  0.87407  0.54246  Biso   1.000  H
  H138     1.0000 0.49465  0.10564  0.61553  Biso   1.000  H
  H139     1.0000 0.60630  0.46428  0.14547  Biso   1.000  H
  H140     1.0000 0.37180  0.37717  0.02023  Biso   1.000  H
  H141     1.0000 0.49783  0.60286  0.92473  Biso   1.000  H
  H142     1.0000 0.10307  0.48326  0.39177  Biso   1.000  H
  H143     1.0000 0.87086  0.38415  0.50384  Biso   1.000  H
  H144     1.0000 0.00554  0.60891  0.60785  Biso   1.000  H
  H145     1.0000 0.58254  0.47802  0.88068  Biso   1.000  H
  H146     1.0000 0.86715  0.56438  0.52574  Biso   1.000  H
  H147     1.0000 0.51883  0.83829  0.60414  Biso   1.000  H
  H148     1.0000 0.08332  0.47699  0.66257  Biso   1.000  H
  H149     1.0000 0.36264  0.55912  0.02974  Biso   1.000  H
  H150     1.0000 0.99675  0.83798  0.92908  Biso   1.000  H
  H151     1.0000 0.90417  0.97454  0.89299  Biso   1.000  H
  H152     1.0000 0.64182  0.05824  0.52728  Biso   1.000  H
  H153     1.0000 0.99822  0.34284  0.60580  Biso   1.000  H
  H154     1.0000 0.40924  0.96615  0.65098  Biso   1.000  H
  H155     1.0000 0.14364  0.05256  0.01064  Biso   1.000  H
  H156     1.0000 0.51137  0.33957  0.93720  Biso   1.000  H
  H157     1.0000 0.42148  0.48290  0.15925  Biso   1.000  H
  H158     1.0000 0.13428  0.38702  0.52392  Biso   1.000  H
  H159     1.0000 0.51197  0.10574  0.43382  Biso   1.000  H
  H160     1.0000 0.92056  0.46676  0.37996  Biso   1.000  H
  H161     1.0000 0.63868  0.38863  0.01125  Biso   1.000  H
  H162     1.0000 0.01126  0.09905  0.10921  Biso   1.000  H
  H163     1.0000 0.10526  0.97566  0.15303  Biso   1.000  H
  H164     1.0000 0.37693  0.89025  0.51737  Biso   1.000  H
  H165     1.0000 0.02500  0.61209  0.42596  Biso   1.000  H
  H166     1.0000 0.60872  0.96635  0.39047  Biso   1.000  H
  H167     1.0000 0.86922  0.88683  0.02003  Biso   1.000  H
  H168     1.0000 0.48640  0.60588  0.10777  Biso   1.000  H
  H169     1.0000 0.00226  0.06947  0.88609  Biso   1.000  H
  H170     1.0000 0.88114  0.97786  0.11916  Biso   1.000  H
  H171     1.0000 0.08545  0.83550  0.02643  Biso   1.000  H
  H172     1.0000 0.48492  0.06239  0.65974  Biso   1.000  H
  H173     1.0000 0.38551  0.98172  0.41910  Biso   1.000  H
  H174     1.0000 0.59810  0.83842  0.52104  Biso   1.000  H
  H175     1.0000 0.49454  0.56139  0.88476  Biso   1.000  H
  H176     1.0000 0.64380  0.46691  0.10019  Biso   1.000  H
  H177     1.0000 0.41764  0.33802  0.01007  Biso   1.000  H
  H178     1.0000 0.99221  0.56769  0.65311  Biso   1.000  H
  H179     1.0000 0.14064  0.49175  0.43558  Biso   1.000  H
  H180     1.0000 0.91714  0.33537  0.50521  Biso   1.000  H
  H181     1.0000 0.00085  0.87934  0.15250  Biso   1.000  H
  H182     1.0000 0.13081  0.96597  0.92296  Biso   1.000  H
  H183     1.0000 0.92387  0.11405  0.03030  Biso   1.000  H
  H184     1.0000 0.50860  0.88485  0.38417  Biso   1.000  H
  H185     1.0000 0.64165  0.96980  0.61769  Biso   1.000  H
  H186     1.0000 0.41962  0.11426  0.52311  Biso   1.000  H
  H187     1.0000 0.50346  0.38502  0.15643  Biso   1.000  H
  H188     1.0000 0.36006  0.45359  0.93983  Biso   1.000  H
  H189     1.0000 0.58115  0.61150  0.02078  Biso   1.000  H
  H190     1.0000 0.99811  0.37808  0.38527  Biso   1.000  H
  H191     1.0000 0.86208  0.47423  0.59910  Biso   1.000  H
  H192     1.0000 0.09575  0.61321  0.53612  Biso   1.000  H
  H193     1.0000 0.28129  0.83260  0.51228  Biso   1.000  H
  H194     1.0000 0.51355  0.24275  0.88246  Biso   1.000  H
  H195     1.0000 0.87151  0.46687  0.28192  Biso   1.000  H
  H196     1.0000 0.76605  0.84550  0.03427  Biso   1.000  H
  H197     1.0000 0.01645  0.24834  0.66190  Biso   1.000  H
  H198     1.0000 0.38036  0.47974  0.26076  Biso   1.000  H
  H199     1.0000 0.23623  0.34396  0.51293  Biso   1.000  H
  H200     1.0000 0.00595  0.74362  0.87009  Biso   1.000  H
  H201     1.0000 0.66666  0.98708  0.29990  Biso   1.000  H
  H202     1.0000 0.73908  0.34143  0.99700  Biso   1.000  H
  H203     1.0000 0.53347  0.74144  0.65611  Biso   1.000  H
  H204     1.0000 0.16353  0.95590  0.24325  Biso   1.000  H
  H205     1.0000 0.73861  0.11226  0.52096  Biso   1.000  H
  H206     1.0000 0.48073  0.70334  0.16022  Biso   1.000  H
  H207     1.0000 0.13162  0.46399  0.76110  Biso   1.000  H
  H208     1.0000 0.24209  0.10440  0.00943  Biso   1.000  H
  H209     1.0000 0.99544  0.70538  0.37263  Biso   1.000  H
  H210     1.0000 0.62605  0.47770  0.78086  Biso   1.000  H
  H211     1.0000 0.76961  0.61128  0.49478  Biso   1.000  H
  H212     1.0000 0.00197  0.19650  0.16335  Biso   1.000  H
  H213     1.0000 0.34872  0.97802  0.74400  Biso   1.000  H
  H214     1.0000 0.26510  0.60872  0.01978  Biso   1.000  H
  H215     1.0000 0.50506  0.20498  0.38392  Biso   1.000  H
  H216     1.0000 0.84505  0.99125  0.80109  Biso   1.000  H
  H217     1.0000 0.24289  0.48903  0.39578  Biso   1.000  H
  H218     1.0000 0.37306  0.21144  0.51661  Biso   1.000  H
  H219     1.0000 0.51631  0.33412  0.25469  Biso   1.000  H
  H220     1.0000 0.74460  0.47672  0.14810  Biso   1.000  H
  H221     1.0000 0.87589  0.21061  0.00557  Biso   1.000  H
  H222     1.0000 0.01484  0.32204  0.29173  Biso   1.000  H
  H223     1.0000 0.28739  0.98095  0.36556  Biso   1.000  H
  H224     1.0000 0.14100  0.71328  0.53383  Biso   1.000  H
  H225     1.0000 0.00876  0.81653  0.24421  Biso   1.000  H
  H226     1.0000 0.78887  0.99412  0.17755  Biso   1.000  H
  H227     1.0000 0.63447  0.70978  0.02298  Biso   1.000  H
  H228     1.0000 0.52556  0.83062  0.29377  Biso   1.000  H
  H229     1.0000 0.76088  0.49113  0.63967  Biso   1.000  H
  H230     1.0000 0.64939  0.75349  0.47444  Biso   1.000  H
  H231     1.0000 0.49059  0.61345  0.78702  Biso   1.000  H
  H232     1.0000 0.26033  0.44971  0.89260  Biso   1.000  H
  H233     1.0000 0.13590  0.73782  0.00307  Biso   1.000  H
  H234     1.0000 0.00600  0.61850  0.75084  Biso   1.000  H
  H235     1.0000 0.72926  0.97557  0.68019  Biso   1.000  H
  H236     1.0000 0.86032  0.24352  0.53123  Biso   1.000  H
  H237     1.0000 0.98407  0.11965  0.79170  Biso   1.000  H
  H238     1.0000 0.22564  0.95796  0.86590  Biso   1.000  H
  H239     1.0000 0.36844  0.23845  0.00546  Biso   1.000  H
  H240     1.0000 0.50921  0.10878  0.75776  Biso   1.000  H
  H241     1.0000 0.72035  0.48948  0.85535  Biso   1.000  H
  H242     1.0000 0.85380  0.69538  0.48802  Biso   1.000  H
  H243     1.0000 0.50806  0.82356  0.74897  Biso   1.000  H
  H244     1.0000 0.22085  0.47160  0.67719  Biso   1.000  H
  H245     1.0000 0.34613  0.69183  0.99479  Biso   1.000  H
  H246     1.0000 0.00309  0.83318  0.78627  Biso   1.000  H
  H247     1.0000 0.76382  0.99195  0.89597  Biso   1.000  H
  H248     1.0000 0.65465  0.19981  0.54731  Biso   1.000  H
  H249     1.0000 0.98219  0.32920  0.74524  Biso   1.000  H
  H250     1.0000 0.26791  0.97238  0.65270  Biso   1.000  H
  H251     1.0000 0.15847  0.19256  0.01085  Biso   1.000  H
  H252     1.0000 0.47877  0.32107  0.80131  Biso   1.000  H
  H253     1.0000 0.28848  0.46663  0.18332  Biso   1.000  H
  H254     1.0000 0.15268  0.25185  0.53195  Biso   1.000  H
  H255     1.0000 0.50937  0.12361  0.29742  Biso   1.000  H
  H256     1.0000 0.78296  0.47906  0.36199  Biso   1.000  H
  H257     1.0000 0.66136  0.25228  0.02358  Biso   1.000  H
  H258     1.0000 0.01296  0.11308  0.24938  Biso   1.000  H
  H259     1.0000 0.24310  0.95969  0.15118  Biso   1.000  H
  H260     1.0000 0.36066  0.74974  0.54088  Biso   1.000  H
  H261     1.0000 0.00850  0.61437  0.28862  Biso   1.000  H
  H262     1.0000 0.74372  0.99272  0.38959  Biso   1.000  H
  H263     1.0000 0.84354  0.74989  0.01122  Biso   1.000  H
  H264     1.0000 0.52100  0.61783  0.23877  Biso   1.000  H
  H265     1.0000 0.00779  0.20631  0.87775  Biso   1.000  H
  H266     1.0000 0.87421  0.96770  0.26137  Biso   1.000  H
  H267     1.0000 0.22742  0.81902  0.02856  Biso   1.000  H
  H268     1.0000 0.50969  0.19663  0.67661  Biso   1.000  H
  H269     1.0000 0.37647  0.96152  0.28234  Biso   1.000  H
  H270     1.0000 0.74020  0.82586  0.50922  Biso   1.000  H
  H271     1.0000 0.50906  0.70021  0.87422  Biso   1.000  H
  H272     1.0000 0.66249  0.48940  0.23607  Biso   1.000  H
  H273     1.0000 0.28009  0.31451  0.02153  Biso   1.000  H
  H274     1.0000 0.01265  0.70536  0.66083  Biso   1.000  H
  H275     1.0000 0.16739  0.47500  0.30184  Biso   1.000  H
  H276     1.0000 0.77395  0.32737  0.49978  Biso   1.000  H
  H277     1.0000 0.97815  0.73959  0.15817  Biso   1.000  H
  H278     1.0000 0.13392  0.98319  0.78233  Biso   1.000  H
  H279     1.0000 0.78361  0.13099  0.02815  Biso   1.000  H
  H280     1.0000 0.48361  0.74975  0.37030  Biso   1.000  H
  H281     1.0000 0.63807  0.97091  0.75940  Biso   1.000  H
  H282     1.0000 0.28250  0.12920  0.50957  Biso   1.000  H
  H283     1.0000 0.49823  0.24742  0.16980  Biso   1.000  H
  H284     1.0000 0.33777  0.47389  0.80432  Biso   1.000  H
  H285     1.0000 0.72319  0.62553  0.01960  Biso   1.000  H
  H286     1.0000 0.01589  0.24238  0.37556  Biso   1.000  H
  H287     1.0000 0.83763  0.48900  0.73547  Biso   1.000  H
  H288     1.0000 0.23382  0.63057  0.54186  Biso   1.000  H
  H289     1.0000 0.10343  0.19139  0.02032  Biso   1.000  H
  H290     1.0000 0.01154  0.05716  0.24788  Biso   1.000  H
  H291     1.0000 0.23802  0.96671  0.09399  Biso   1.000  H
  H292     1.0000 0.60263  0.19837  0.54641  Biso   1.000  H
  H293     1.0000 0.50995  0.06813  0.29387  Biso   1.000  H
  H294     1.0000 0.74180  0.98392  0.44362  Biso   1.000  H
  H295     1.0000 0.40009  0.69237  0.98944  Biso   1.000  H
  H296     1.0000 0.52560  0.56737  0.23972  Biso   1.000  H
  H297     1.0000 0.28400  0.46078  0.13038  Biso   1.000  H
  H298     1.0000 0.91010  0.69735  0.49359  Biso   1.000  H
  H299     1.0000 0.00814  0.55894  0.29045  Biso   1.000  H
  H300     1.0000 0.78024  0.48052  0.41477  Biso   1.000  H
  H301     1.0000 0.89735  0.74532  0.00828  Biso   1.000  H
  H302     1.0000 0.99380  0.88808  0.79090  Biso   1.000  H
  H303     1.0000 0.77171  0.98820  0.94958  Biso   1.000  H
  H304     1.0000 0.42016  0.74802  0.54001  Biso   1.000  H
  H305     1.0000 0.51368  0.87616  0.75052  Biso   1.000  H
  H306     1.0000 0.27311  0.97642  0.59698  Biso   1.000  H
  H307     1.0000 0.60295  0.25083  0.02196  Biso   1.000  H
  H308     1.0000 0.47229  0.37532  0.79845  Biso   1.000  H
  H309     1.0000 0.72754  0.49595  0.91099  Biso   1.000  H
  H310     1.0000 0.09638  0.25078  0.52334  Biso   1.000  H
  H311     1.0000 0.97278  0.38285  0.74748  Biso   1.000  H
  H312     1.0000 0.22264  0.48564  0.62394  Biso   1.000  H
  H313     1.0000 0.22434  0.94344  0.91619  Biso   1.000  H
  H314     1.0000 0.92782  0.20512  0.00840  Biso   1.000  H
  H315     1.0000 0.01878  0.86948  0.24786  Biso   1.000  H
  H316     1.0000 0.73665  0.97514  0.62518  Biso   1.000  H
  H317     1.0000 0.42910  0.20890  0.52124  Biso   1.000  H
  H318     1.0000 0.53343  0.88532  0.29205  Biso   1.000  H
  H319     1.0000 0.26557  0.45074  0.95074  Biso   1.000  H
  H320     1.0000 0.57834  0.70744  0.02180  Biso   1.000  H
  H321     1.0000 0.51179  0.39089  0.25129  Biso   1.000  H
  H322     1.0000 0.76480  0.47666  0.59075  Biso   1.000  H
  H323     1.0000 0.08750  0.70671  0.52079  Biso   1.000  H
  H324     1.0000 0.02128  0.37687  0.28979  Biso   1.000  H
  H325     1.0000 0.78531  0.98838  0.12194  Biso   1.000  H
  H326     1.0000 0.08196  0.74444  0.99812  Biso   1.000  H
  H327     1.0000 0.98334  0.06326  0.79339  Biso   1.000  H
  H328     1.0000 0.28967  0.99328  0.42075  Biso   1.000  H
  H329     1.0000 0.59200  0.75612  0.47607  Biso   1.000  H
  H330     1.0000 0.50041  0.05650  0.75569  Biso   1.000  H
  H331     1.0000 0.74181  0.47638  0.09328  Biso   1.000  H
  H332     1.0000 0.42531  0.24119  0.00363  Biso   1.000  H
  H333     1.0000 0.48415  0.55785  0.78863  Biso   1.000  H
  H334     1.0000 0.23732  0.49503  0.44651  Biso   1.000  H
  H335     1.0000 0.91270  0.24391  0.53208  Biso   1.000  H
  H336     1.0000 0.00085  0.56549  0.74959  Biso   1.000  H
  H337     1.0000 0.02517  0.20264  0.92715  Biso   1.000  H
  H338     1.0000 0.92752  0.96644  0.25801  Biso   1.000  H
  H339     1.0000 0.22901  0.86922  0.02110  Biso   1.000  H
  H340     1.0000 0.51115  0.19955  0.61936  Biso   1.000  H
  H341     1.0000 0.43163  0.96171  0.28744  Biso   1.000  H
  H342     1.0000 0.73947  0.88226  0.52670  Biso   1.000  H
  H343     1.0000 0.50724  0.69933  0.92747  Biso   1.000  H
  H344     1.0000 0.60988  0.49100  0.23991  Biso   1.000  H
  H345     1.0000 0.27866  0.36917  0.03520  Biso   1.000  H
  H346     1.0000 0.01187  0.70240  0.60575  Biso   1.000  H
  H347     1.0000 0.11040  0.46738  0.29640  Biso   1.000  H
  H348     1.0000 0.77628  0.37924  0.49523  Biso   1.000  H
  H349     1.0000 0.97707  0.74264  0.10344  Biso   1.000  H
  H350     1.0000 0.07953  0.98459  0.78982  Biso   1.000  H
  H351     1.0000 0.78333  0.07786  0.04686  Biso   1.000  H
  H352     1.0000 0.48316  0.74719  0.42666  Biso   1.000  H
  H353     1.0000 0.58715  0.97690  0.75537  Biso   1.000  H
  H354     1.0000 0.28175  0.07497  0.50226  Biso   1.000  H
  H355     1.0000 0.50338  0.24812  0.11741  Biso   1.000  H
  H356     1.0000 0.39464  0.47490  0.80116  Biso   1.000  H
  H357     1.0000 0.72644  0.57523  0.01622  Biso   1.000  H
  H358     1.0000 0.01077  0.23999  0.43072  Biso   1.000  H
  H359     1.0000 0.89142  0.47975  0.74064  Biso   1.000  H
  H360     1.0000 0.23150  0.57219  0.54399  Biso   1.000  H
  H361     1.0000 0.99834  0.70334  0.42724  Biso   1.000  H
  H362     1.0000 0.40560  0.97624  0.74637  Biso   1.000  H
  H363     1.0000 0.73217  0.39281  0.98604  Biso   1.000  H
  H364     1.0000 0.47772  0.70276  0.10499  Biso   1.000  H
  H365     1.0000 0.89893  0.98990  0.79743  Biso   1.000  H
  H366     1.0000 0.22946  0.39787  0.51043  Biso   1.000  H
  H367     1.0000 0.50396  0.20184  0.44032  Biso   1.000  H
  H368     1.0000 0.07938  0.46799  0.76012  Biso   1.000  H
  H369     1.0000 0.77415  0.90078  0.03380  Biso   1.000  H
  H370     1.0000 0.00444  0.19428  0.11024  Biso   1.000  H
  H371     1.0000 0.57329  0.47563  0.78878  Biso   1.000  H
  H372     1.0000 0.28435  0.88584  0.49636  Biso   1.000  H
  H373     1.0000 0.02261  0.24985  0.60828  Biso   1.000  H
  H374     1.0000 0.61364  0.98473  0.29640  Biso   1.000  H
  H375     1.0000 0.26517  0.55395  0.02966  Biso   1.000  H
  H376     1.0000 0.52869  0.24559  0.93517  Biso   1.000  H
  H377     1.0000 0.10859  0.96241  0.24639  Biso   1.000  H
  H378     1.0000 0.77055  0.55750  0.50737  Biso   1.000  H
  H379     1.0000 0.53410  0.74265  0.60464  Biso   1.000  H
  H380     1.0000 0.92087  0.46278  0.28310  Biso   1.000  H
  H381     1.0000 0.23956  0.05193  0.01050  Biso   1.000  H
  H382     1.0000 0.00147  0.74289  0.92258  Biso   1.000  H
  H383     1.0000 0.43061  0.48795  0.25658  Biso   1.000  H
  H384     1.0000 0.73706  0.05726  0.52015  Biso   1.000  H
  H385     1.0000 0.24694  0.45291  0.36155  Biso   1.000  H
  H386     1.0000 0.28514  0.16067  0.48791  Biso   1.000  H
  H387     1.0000 0.48538  0.30578  0.25825  Biso   1.000  H
  H388     1.0000 0.68858  0.45411  0.23224  Biso   1.000  H
  H389     1.0000 0.84627  0.21413  0.03839  Biso   1.000  H
  H390     1.0000 0.97951  0.24213  0.34569  Biso   1.000  H
  H391     1.0000 0.29233  0.94722  0.34250  Biso   1.000  H
  H392     1.0000 0.17785  0.70256  0.49346  Biso   1.000  H
  H393     1.0000 0.00797  0.73033  0.18555  Biso   1.000  H
  H394     1.0000 0.78570  0.96313  0.20599  Biso   1.000  H
  H395     1.0000 0.71570  0.65972  0.05164  Biso   1.000  H
  H396     1.0000 0.47811  0.80644  0.28509  Biso   1.000  H
  H397     1.0000 0.76289  0.52323  0.67769  Biso   1.000  H
  H398     1.0000 0.67282  0.73928  0.51010  Biso   1.000  H
  H399     1.0000 0.52782  0.63499  0.78971  Biso   1.000  H
  H400     1.0000 0.31591  0.43566  0.80252  Biso   1.000  H
  H401     1.0000 0.22267  0.79095  0.99313  Biso   1.000  H
  H402     1.0000 0.04190  0.64815  0.74272  Biso   1.000  H
  H403     1.0000 0.72964  0.94814  0.71052  Biso   1.000  H
  H404     1.0000 0.77227  0.30708  0.53729  Biso   1.000  H
  H405     1.0000 0.03858  0.19209  0.83956  Biso   1.000  H
  H406     1.0000 0.22475  0.99476  0.84240  Biso   1.000  H
  H407     1.0000 0.28220  0.28780  0.98451  Biso   1.000  H
  H408     1.0000 0.47426  0.13993  0.75372  Biso   1.000  H
  H409     1.0000 0.29422  0.43589  0.20938  Biso   1.000  H
  H410     1.0000 0.18094  0.25268  0.50221  Biso   1.000  H
  H411     1.0000 0.47474  0.20042  0.34905  Biso   1.000  H
  H412     1.0000 0.83402  0.44349  0.27944  Biso   1.000  H
  H413     1.0000 0.68581  0.24995  0.99036  Biso   1.000  H
  H414     1.0000 0.97646  0.14634  0.24813  Biso   1.000  H
  H415     1.0000 0.19527  0.92764  0.23268  Biso   1.000  H
  H416     1.0000 0.29312  0.79752  0.48262  Biso   1.000  H
  H417     1.0000 0.96869  0.63722  0.29745  Biso   1.000  H
  H418     1.0000 0.74718  0.96213  0.35850  Biso   1.000  H
  H419     1.0000 0.81943  0.75503  0.04667  Biso   1.000  H
  H420     1.0000 0.48671  0.64236  0.24986  Biso   1.000  H
  H421     1.0000 0.70729  0.52728  0.82358  Biso   1.000  H
  H422     1.0000 0.77536  0.64976  0.52876  Biso   1.000  H
  H423     1.0000 0.54069  0.79416  0.74938  Biso   1.000  H
  H424     1.0000 0.16348  0.49846  0.75701  Biso   1.000  H
  H425     1.0000 0.30715  0.67654  0.96899  Biso   1.000  H
  H426     1.0000 0.04336  0.75189  0.84538  Biso   1.000  H
  H427     1.0000 0.81492  0.01198  0.80341  Biso   1.000  H
  H428     1.0000 0.73854  0.13866  0.55318  Biso   1.000  H
  H429     1.0000 0.02268  0.30585  0.74788  Biso   1.000  H
  H430     1.0000 0.31843  0.95005  0.74355  Biso   1.000  H
  H431     1.0000 0.19059  0.18302  0.97305  Biso   1.000  H
  H432     1.0000 0.47422  0.24138  0.85820  Biso   1.000  H
  H433     1.0000 0.27104  0.01075  0.68454  Biso   1.000  H
  H434     1.0000 0.74474  0.31510  0.02934  Biso   1.000  H
  H435     1.0000 0.02603  0.70350  0.33484  Biso   1.000  H
  H436     1.0000 0.76225  0.96223  0.86862  Biso   1.000  H
  H437     1.0000 0.23828  0.31965  0.54733  Biso   1.000  H
  H438     1.0000 0.51385  0.70844  0.18323  Biso   1.000  H
  H439     1.0000 0.21543  0.43621  0.70281  Biso   1.000  H
  H440     1.0000 0.75989  0.81896  0.00077  Biso   1.000  H
  H441     1.0000 0.54660  0.15405  0.30721  Biso   1.000  H
  H442     1.0000 0.66126  0.45149  0.78076  Biso   1.000  H
  H443     1.0000 0.32029  0.76812  0.56966  Biso   1.000  H
  H444     1.0000 0.04305  0.19234  0.19383  Biso   1.000  H
  H445     1.0000 0.69040  0.02091  0.30347  Biso   1.000  H
  H446     1.0000 0.27704  0.64721  0.05456  Biso   1.000  H
  H447     1.0000 0.97520  0.24879  0.68711  Biso   1.000  H
  H448     1.0000 0.24666  0.98890  0.18180  Biso   1.000  H
  H449     1.0000 0.82606  0.68450  0.45493  Biso   1.000  H
  H450     1.0000 0.51905  0.30071  0.79823  Biso   1.000  H
  H451     1.0000 0.79072  0.51304  0.33347  Biso   1.000  H
  H452     1.0000 0.23473  0.13767  0.04264  Biso   1.000  H
  H453     1.0000 0.49498  0.73777  0.68320  Biso   1.000  H
  H454     1.0000 0.34426  0.50299  0.26250  Biso   1.000  H
  H455     1.0000 0.67679  0.19659  0.51211  Biso   1.000  H
  H456     1.0000 0.97742  0.79820  0.79092  Biso   1.000  H
  H457     1.0000 0.73675  0.80394  0.47817  Biso   1.000  H
  H458     1.0000 0.48376  0.70116  0.83945  Biso   1.000  H
  H459     1.0000 0.80774  0.45857  0.72949  Biso   1.000  H
  H460     1.0000 0.15974  0.73299  0.04049  Biso   1.000  H
  H461     1.0000 0.98493  0.70495  0.69188  Biso   1.000  H
  H462     1.0000 0.25710  0.47796  0.86650  Biso   1.000  H
  H463     1.0000 0.83115  0.23872  0.49713  Biso   1.000  H
  H464     1.0000 0.95647  0.16342  0.80062  Biso   1.000  H
  H465     1.0000 0.66400  0.00645  0.75140  Biso   1.000  H
  H466     1.0000 0.34090  0.23625  0.03931  Biso   1.000  H
  H467     1.0000 0.54058  0.19309  0.70589  Biso   1.000  H
  H468     1.0000 0.16162  0.95432  0.78107  Biso   1.000  H
  H469     1.0000 0.33818  0.20954  0.55137  Biso   1.000  H
  H470     1.0000 0.53534  0.24612  0.19574  Biso   1.000  H
  H471     1.0000 0.19216  0.50849  0.30494  Biso   1.000  H
  H472     1.0000 0.78979  0.15446  0.98836  Biso   1.000  H
  H473     1.0000 0.04537  0.29424  0.29718  Biso   1.000  H
  H474     1.0000 0.73909  0.51502  0.17730  Biso   1.000  H
  H475     1.0000 0.22691  0.66328  0.56866  Biso   1.000  H
  H476     1.0000 0.96714  0.79808  0.24149  Biso   1.000  H
  H477     1.0000 0.34989  0.99146  0.27864  Biso   1.000  H
  H478     1.0000 0.66412  0.70715  0.98948  Biso   1.000  H
  H479     1.0000 0.52020  0.74638  0.34569  Biso   1.000  H
  H480     1.0000 0.85025  0.00877  0.26136  Biso   1.000  H
  N1       1.0000 0.68704  0.14427  0.53316  Biso   1.000  N
  N2       1.0000 0.49863  0.64997  0.19115  Biso   1.000  N
  N3       1.0000 0.16627  0.47026  0.70765  Biso   1.000  N
  N4       1.0000 0.18970  0.13716  0.00698  Biso   1.000  N
  N5       1.0000 0.00563  0.64877  0.34085  Biso   1.000  N
  N6       1.0000 0.66612  0.48475  0.83137  Biso   1.000  N
  N7       1.0000 0.82376  0.64559  0.49751  Biso   1.000  N
  N8       1.0000 0.01091  0.14413  0.19672  Biso   1.000  N
  N9       1.0000 0.32081  0.97708  0.68958  Biso   1.000  N
  N10      1.0000 0.31616  0.64009  0.01209  Biso   1.000  N
  N11      1.0000 0.51047  0.15270  0.35026  Biso   1.000  N
  N12      1.0000 0.81470  0.98616  0.85755  Biso   1.000  N
  N13      1.0000 0.33293  0.80271  0.52719  Biso   1.000  N
  N14      1.0000 0.49789  0.29473  0.85275  Biso   1.000  N
  N15      1.0000 0.83576  0.47352  0.33264  Biso   1.000  N
  N16      1.0000 0.81609  0.80863  0.02131  Biso   1.000  N
  N17      1.0000 0.99992  0.30078  0.69336  Biso   1.000  N
  N18      1.0000 0.34198  0.47010  0.21063  Biso   1.000  N
  N19      1.0000 0.18454  0.30725  0.52140  Biso   1.000  N
  N20      1.0000 0.00739  0.80028  0.84034  Biso   1.000  N
  N21      1.0000 0.69462  0.98613  0.35411  Biso   1.000  N
  N22      1.0000 0.68966  0.30434  0.01320  Biso   1.000  N
  N23      1.0000 0.51914  0.79280  0.69275  Biso   1.000  N
  N24      1.0000 0.19322  0.96193  0.18658  Biso   1.000  N
  N25      1.0000 0.81024  0.48806  0.68045  Biso   1.000  N
  N26      1.0000 0.68426  0.79793  0.49818  Biso   1.000  N
  N27      1.0000 0.50100  0.64536  0.83976  Biso   1.000  N
  N28      1.0000 0.31121  0.45860  0.85826  Biso   1.000  N
  N29      1.0000 0.16808  0.78753  0.01804  Biso   1.000  N
  N30      1.0000 0.00997  0.65299  0.69444  Biso   1.000  N
  N31      1.0000 0.67600  0.97465  0.70637  Biso   1.000  N
  N32      1.0000 0.82798  0.29606  0.51326  Biso   1.000  N
  N33      1.0000 0.99808  0.15237  0.84171  Biso   1.000  N
  N34      1.0000 0.16915  0.97388  0.83594  Biso   1.000  N
  N35      1.0000 0.33592  0.28760  0.01214  Biso   1.000  N
  N36      1.0000 0.50522  0.14350  0.70462  Biso   1.000  N
  N37      1.0000 0.19321  0.48223  0.35540  Biso   1.000  N
  N38      1.0000 0.33682  0.15989  0.51883  Biso   1.000  N
  N39      1.0000 0.50773  0.30057  0.20163  Biso   1.000  N
  N40      1.0000 0.69333  0.47722  0.18303  Biso   1.000  N
  N41      1.0000 0.83828  0.15884  0.01935  Biso   1.000  N
  N42      1.0000 0.01086  0.29374  0.34308  Biso   1.000  N
  N43      1.0000 0.34186  0.97052  0.33592  Biso   1.000  N
  N44      1.0000 0.17852  0.66039  0.53287  Biso   1.000  N
  N45      1.0000 0.99431  0.78919  0.19138  Biso   1.000  N
  N46      1.0000 0.84117  0.97703  0.20768  Biso   1.000  N
  N47      1.0000 0.66804  0.65850  0.02116  Biso   1.000  N
  N48      1.0000 0.50038  0.79983  0.33982  Biso   1.000  N
  O1       1.0000 0.34066  0.50792  0.02767  Biso   1.000  O
  O2       1.0000 0.00417  0.31964  0.55835  Biso   1.000  O
  O3       1.0000 0.56072  0.97837  0.36750  Biso   1.000  O
  O4       1.0000 0.84442  0.51174  0.51508  Biso   1.000  O
  O5       1.0000 0.52202  0.31484  0.98514  Biso   1.000  O
  O6       1.0000 0.05649  0.96801  0.17805  Biso   1.000  O
  O7       1.0000 0.16462  0.00459  0.01076  Biso   1.000  O
  O8       1.0000 0.51238  0.81631  0.55936  Biso   1.000  O
  O9       1.0000 0.97110  0.47086  0.35804  Biso   1.000  O
  O10      1.0000 0.66428  0.01019  0.53230  Biso   1.000  O
  O11      1.0000 0.99452  0.81561  0.97463  Biso   1.000  O
  O12      1.0000 0.47474  0.47630  0.17895  Biso   1.000  O
  O13      1.0000 0.65810  0.43741  0.00219  Biso   1.000  O
  O14      1.0000 0.00676  0.63215  0.47464  Biso   1.000  O
  O15      1.0000 0.45676  0.96465  0.67808  Biso   1.000  O
  O16      1.0000 0.15715  0.44176  0.52597  Biso   1.000  O
  O17      1.0000 0.48886  0.63078  0.05814  Biso   1.000  O
  O18      1.0000 0.95339  0.97954  0.86732  Biso   1.000  O
  O19      1.0000 0.84977  0.93979  0.03057  Biso   1.000  O
  O20      1.0000 0.50742  0.12739  0.48548  Biso   1.000  O
  O21      1.0000 0.03405  0.47446  0.68299  Biso   1.000  O
  O22      1.0000 0.35571  0.93809  0.51485  Biso   1.000  O
  O23      1.0000 0.00825  0.12393  0.06021  Biso   1.000  O
  O24      1.0000 0.53111  0.47278  0.86370  Biso   1.000  O
  O25      1.0000 0.97468  0.95860  0.18289  Biso   1.000  O
  O26      1.0000 0.15729  0.92140  0.01409  Biso   1.000  O
  O27      1.0000 0.01679  0.12971  0.97524  Biso   1.000  O
  O28      1.0000 0.47661  0.96874  0.36144  Biso   1.000  O
  O29      1.0000 0.66529  0.92597  0.53114  Biso   1.000  O
  O30      1.0000 0.51320  0.13050  0.57045  Biso   1.000  O
  O31      1.0000 0.55789  0.47877  0.16895  Biso   1.000  O
  O32      1.0000 0.34663  0.42364  0.03251  Biso   1.000  O
  O33      1.0000 0.49764  0.62717  0.97379  Biso   1.000  O
  O34      1.0000 0.05584  0.47230  0.36678  Biso   1.000  O
  O35      1.0000 0.84731  0.42911  0.49900  Biso   1.000  O
  O36      1.0000 0.00142  0.63148  0.56025  Biso   1.000  O
  O37      1.0000 0.03754  0.97816  0.86454  Biso   1.000  O
  O38      1.0000 0.85177  0.02578  0.03483  Biso   1.000  O
  O39      1.0000 0.99432  0.81466  0.05644  Biso   1.000  O
  O40      1.0000 0.53992  0.97551  0.68154  Biso   1.000  O
  O41      1.0000 0.34980  0.02156  0.51954  Biso   1.000  O
  O42      1.0000 0.49947  0.82308  0.47454  Biso   1.000  O
  O43      1.0000 0.44892  0.47195  0.86948  Biso   1.000  O
  O44      1.0000 0.65570  0.52259  0.01328  Biso   1.000  O
  O45      1.0000 0.50312  0.31982  0.06698  Biso   1.000  O
  O46      1.0000 0.94982  0.47868  0.67214  Biso   1.000  O
  O47      1.0000 0.15923  0.52653  0.53479  Biso   1.000  O
  O48      1.0000 0.00100  0.31640  0.47559  Biso   1.000  O
  O49      1.0000 0.01817  0.92298  0.17943  Biso   1.000  O
  O50      1.0000 0.15700  0.95784  0.97251  Biso   1.000  O
  O51      1.0000 0.97004  0.13110  0.01549  Biso   1.000  O
  O52      1.0000 0.52156  0.93481  0.36170  Biso   1.000  O
  O53      1.0000 0.66511  0.96720  0.57312  Biso   1.000  O
  O54      1.0000 0.47159  0.13197  0.52789  Biso   1.000  O
  O55      1.0000 0.52060  0.43339  0.17749  Biso   1.000  O
  O56      1.0000 0.34315  0.46294  0.99173  Biso   1.000  O
  O57      1.0000 0.53511  0.63306  0.02120  Biso   1.000  O
  O58      1.0000 0.01619  0.42838  0.36162  Biso   1.000  O
  O59      1.0000 0.84184  0.46435  0.54870  Biso   1.000  O
  O60      1.0000 0.04376  0.63119  0.52059  Biso   1.000  O
  O61      1.0000 0.99591  0.01797  0.86508  Biso   1.000  O
  O62      1.0000 0.85658  0.98005  0.07317  Biso   1.000  O
  O63      1.0000 0.03720  0.81566  0.01171  Biso   1.000  O
  O64      1.0000 0.49212  0.01127  0.67916  Biso   1.000  O
  O65      1.0000 0.35882  0.98555  0.47018  Biso   1.000  O
  O66      1.0000 0.54944  0.81995  0.50745  Biso   1.000  O
  O67      1.0000 0.48990  0.51212  0.86126  Biso   1.000  O
  O68      1.0000 0.66090  0.47468  0.05143  Biso   1.000  O
  O69      1.0000 0.46769  0.31748  0.02099  Biso   1.000  O
  O70      1.0000 0.99230  0.51707  0.67754  Biso   1.000  O
  O71      1.0000 0.15821  0.48790  0.48950  Biso   1.000  O
  O72      1.0000 0.96077  0.31557  0.51905  Biso   1.000  O
  O73      1.0000 0.98772  0.43390  0.67500  Biso   1.000  O
  O74      1.0000 0.66895  0.96786  0.48850  Biso   1.000  O
  O75      1.0000 0.44990  0.62487  0.01233  Biso   1.000  O
  O76      1.0000 0.48919  0.43072  0.86722  Biso   1.000  O
  O77      1.0000 0.16266  0.96493  0.05567  Biso   1.000  O
  O78      1.0000 0.95709  0.62948  0.52001  Biso   1.000  O
  O79      1.0000 0.50779  0.92958  0.67944  Biso   1.000  O
  O80      1.0000 0.84920  0.47871  0.46660  Biso   1.000  O
  O81      1.0000 0.05365  0.12317  0.02026  Biso   1.000  O
  O82      1.0000 0.99420  0.93379  0.86607  Biso   1.000  O
  O83      1.0000 0.34736  0.47158  0.07335  Biso   1.000  O
  O84      1.0000 0.55390  0.13010  0.52523  Biso   1.000  O
  O85      1.0000 0.00894  0.51381  0.36633  Biso   1.000  O
  O86      1.0000 0.34658  0.97858  0.55512  Biso   1.000  O
  O87      1.0000 0.55397  0.31891  0.03289  Biso   1.000  O
  O88      1.0000 0.51425  0.51715  0.16935  Biso   1.000  O
  O89      1.0000 0.84577  0.98088  0.98899  Biso   1.000  O
  O90      1.0000 0.04800  0.32118  0.51278  Biso   1.000  O
  O91      1.0000 0.51737  0.01825  0.36502  Biso   1.000  O
  O92      1.0000 0.15447  0.48196  0.57366  Biso   1.000  O
  O93      1.0000 0.95209  0.81674  0.01146  Biso   1.000  O
  O94      1.0000 0.00930  0.00711  0.17675  Biso   1.000  O
  O95      1.0000 0.65760  0.48541  0.96537  Biso   1.000  O
  O96      1.0000 0.46468  0.82346  0.52387  Biso   1.000  O
  O97      1.0000 0.47256  0.18121  0.52658  Biso   1.000  O
  O98      1.0000 0.51553  0.43960  0.22540  Biso   1.000  O
  O99      1.0000 0.20805  0.48803  0.49319  Biso   1.000  O
  O100     1.0000 0.97552  0.17937  0.01822  Biso   1.000  O
  O101     1.0000 0.01664  0.42820  0.31270  Biso   1.000  O
  O102     1.0000 0.70809  0.47810  0.04510  Biso   1.000  O
  O103     1.0000 0.03982  0.68077  0.51992  Biso   1.000  O
  O104     1.0000 0.02217  0.92222  0.22872  Biso   1.000  O
  O105     1.0000 0.31004  0.98141  0.46828  Biso   1.000  O
  O106     1.0000 0.53353  0.68276  0.02224  Biso   1.000  O
  O107     1.0000 0.52856  0.93365  0.31418  Biso   1.000  O
  O108     1.0000 0.80723  0.98136  0.07530  Biso   1.000  O
  O109     1.0000 0.54638  0.77255  0.50307  Biso   1.000  O
  O110     1.0000 0.48690  0.51006  0.81281  Biso   1.000  O
  O111     1.0000 0.79314  0.46655  0.54654  Biso   1.000  O
  O112     1.0000 0.03469  0.76725  0.01765  Biso   1.000  O
  O113     1.0000 0.99055  0.51762  0.72623  Biso   1.000  O
  O114     1.0000 0.29355  0.45781  0.99453  Biso   1.000  O
  O115     1.0000 0.96504  0.26668  0.52471  Biso   1.000  O
  O116     1.0000 0.98594  0.01671  0.81729  Biso   1.000  O
  O117     1.0000 0.71470  0.96719  0.57417  Biso   1.000  O
  O118     1.0000 0.47197  0.26821  0.01391  Biso   1.000  O
  O119     1.0000 0.49098  0.00613  0.72812  Biso   1.000  O
  O120     1.0000 0.20572  0.95425  0.96830  Biso   1.000  O
  O121     1.0000 0.02964  0.47613  0.73217  Biso   1.000  O
  O122     1.0000 0.71327  0.01035  0.53243  Biso   1.000  O
  O123     1.0000 0.48661  0.67963  0.05727  Biso   1.000  O
  O124     1.0000 0.52975  0.46391  0.81571  Biso   1.000  O
  O125     1.0000 0.21276  0.00202  0.00799  Biso   1.000  O
  O126     1.0000 0.00750  0.68183  0.47568  Biso   1.000  O
  O127     1.0000 0.45341  0.96330  0.72654  Biso   1.000  O
  O128     1.0000 0.79505  0.51323  0.50892  Biso   1.000  O
  O129     1.0000 0.01240  0.17262  0.06291  Biso   1.000  O
  O130     1.0000 0.94939  0.97731  0.81787  Biso   1.000  O
  O131     1.0000 0.29134  0.50606  0.03542  Biso   1.000  O
  O132     1.0000 0.51757  0.17595  0.48527  Biso   1.000  O
  O133     1.0000 0.97310  0.47038  0.30974  Biso   1.000  O
  O134     1.0000 0.30627  0.93675  0.50501  Biso   1.000  O
  O135     1.0000 0.52177  0.26589  0.98498  Biso   1.000  O
  O136     1.0000 0.47860  0.48295  0.22811  Biso   1.000  O
  O137     1.0000 0.80055  0.94459  0.03154  Biso   1.000  O
  O138     1.0000 0.01011  0.27155  0.56056  Biso   1.000  O
  O139     1.0000 0.56167  0.98059  0.31746  Biso   1.000  O
  O140     1.0000 0.20534  0.44080  0.53080  Biso   1.000  O
  O141     1.0000 0.99227  0.76690  0.97552  Biso   1.000  O
  O142     1.0000 0.06185  0.96687  0.22710  Biso   1.000  O
  O143     1.0000 0.70749  0.44115  0.99828  Biso   1.000  O
  O144     1.0000 0.51751  0.76914  0.55392  Biso   1.000  O
  O145     1.0000 0.56119  0.48021  0.21730  Biso   1.000  O
  O146     1.0000 0.20862  0.52504  0.53702  Biso   1.000  O
  O147     1.0000 0.50998  0.17844  0.57186  Biso   1.000  O
  O148     1.0000 0.05987  0.47020  0.31816  Biso   1.000  O
  O149     1.0000 0.70535  0.52546  0.00971  Biso   1.000  O
  O150     1.0000 0.02275  0.17907  0.97818  Biso   1.000  O
  O151     1.0000 0.97696  0.96475  0.23168  Biso   1.000  O
  O152     1.0000 0.30277  0.02261  0.51194  Biso   1.000  O
  O153     1.0000 0.99655  0.67989  0.56040  Biso   1.000  O
  O154     1.0000 0.47849  0.97373  0.31379  Biso   1.000  O
  O155     1.0000 0.80297  0.02805  0.03712  Biso   1.000  O
  O156     1.0000 0.49941  0.67694  0.97342  Biso   1.000  O
  O157     1.0000 0.44329  0.46887  0.82029  Biso   1.000  O
  O158     1.0000 0.79736  0.42779  0.49798  Biso   1.000  O
  O159     1.0000 0.49637  0.77463  0.47298  Biso   1.000  O
  O160     1.0000 0.94386  0.47891  0.72088  Biso   1.000  O
  O161     1.0000 0.29866  0.42038  0.03879  Biso   1.000  O
  O162     1.0000 0.99460  0.76693  0.05769  Biso   1.000  O
  O163     1.0000 0.03382  0.98079  0.81574  Biso   1.000  O
  O164     1.0000 0.71393  0.92852  0.53295  Biso   1.000  O
  O165     1.0000 0.00408  0.26858  0.47913  Biso   1.000  O
  O166     1.0000 0.53908  0.96816  0.72958  Biso   1.000  O
  O167     1.0000 0.20695  0.91860  0.01745  Biso   1.000  O
  O168     1.0000 0.50530  0.26927  0.06776  Biso   1.000  O
  O169     1.0000 0.01958  0.00726  0.22394  Biso   1.000  O
  O170     1.0000 0.21118  0.96463  0.05166  Biso   1.000  O
  O171     1.0000 0.05799  0.17133  0.02258  Biso   1.000  O
  O172     1.0000 0.51597  0.01872  0.31664  Biso   1.000  O
  O173     1.0000 0.71749  0.96930  0.49067  Biso   1.000  O
  O174     1.0000 0.55632  0.17868  0.52673  Biso   1.000  O
  O175     1.0000 0.52110  0.52051  0.21796  Biso   1.000  O
  O176     1.0000 0.29853  0.46329  0.08144  Biso   1.000  O
  O177     1.0000 0.44997  0.67313  0.01225  Biso   1.000  O
  O178     1.0000 0.01426  0.51139  0.31826  Biso   1.000  O
  O179     1.0000 0.80081  0.47314  0.46351  Biso   1.000  O
  O180     1.0000 0.95854  0.67997  0.51324  Biso   1.000  O
  O181     1.0000 0.99620  0.93557  0.81692  Biso   1.000  O
  O182     1.0000 0.79770  0.98936  0.99463  Biso   1.000  O
  O183     1.0000 0.94925  0.76814  0.01497  Biso   1.000  O
  O184     1.0000 0.50097  0.92565  0.72706  Biso   1.000  O
  O185     1.0000 0.29845  0.97282  0.55109  Biso   1.000  O
  O186     1.0000 0.46541  0.77355  0.52376  Biso   1.000  O
  O187     1.0000 0.48601  0.42635  0.81864  Biso   1.000  O
  O188     1.0000 0.70668  0.49026  0.96238  Biso   1.000  O
  O189     1.0000 0.55433  0.26874  0.03364  Biso   1.000  O
  O190     1.0000 0.98384  0.43334  0.72556  Biso   1.000  O
  O191     1.0000 0.20364  0.47742  0.57602  Biso   1.000  O
  O192     1.0000 0.04820  0.27278  0.51650  Biso   1.000  O
