data_image0
_cell_length_a       46.8044
_cell_length_b       46.7827
_cell_length_c       46.6103
_cell_angle_alpha    90
_cell_angle_beta     90
_cell_angle_gamma    90

_symmetry_space_group_name_H-M    "P 1"
_symmetry_int_tables_number       1

loop_
  _symmetry_equiv_pos_as_xyz
  'x, y, z'

loop_
  _atom_site_label
  _atom_site_occupancy
  _atom_site_fract_x
  _atom_site_fract_y
  _atom_site_fract_z
  _atom_site_thermal_displace_type
  _atom_site_B_iso_or_equiv
  _atom_site_type_symbol
  C1       1.0000 0.56360  0.97784  0.34139  Biso   1.000  C
  C2       1.0000 0.33307  0.53061  0.02422  Biso   1.000  C
  C3       1.0000 0.02173  0.30343  0.58222  Biso   1.000  C
  C4       1.0000 0.06484  0.97181  0.20331  Biso   1.000  C
  C5       1.0000 0.83041  0.53516  0.52742  Biso   1.000  C
  C6       1.0000 0.52921  0.31801  0.95576  Biso   1.000  C
  C7       1.0000 0.95822  0.47891  0.35141  Biso   1.000  C
  C8       1.0000 0.19439  0.02815  0.01977  Biso   1.000  C
  C9       1.0000 0.52235  0.80940  0.59788  Biso   1.000  C
  C10      1.0000 0.45736  0.47971  0.20217  Biso   1.000  C
  C11      1.0000 0.69812  0.03019  0.51522  Biso   1.000  C
  C12      1.0000 0.00849  0.80793  0.95936  Biso   1.000  C
  C13      1.0000 0.47115  0.98979  0.71294  Biso   1.000  C
  C14      1.0000 0.70118  0.43277  0.03113  Biso   1.000  C
  C15      1.0000 0.02236  0.66620  0.46710  Biso   1.000  C
  C16      1.0000 0.96840  0.00139  0.84140  Biso   1.000  C
  C17      1.0000 0.20104  0.43587  0.52514  Biso   1.000  C
  C18      1.0000 0.51304  0.65873  0.09491  Biso   1.000  C
  C19      1.0000 0.07875  0.49012  0.70416  Biso   1.000  C
  C20      1.0000 0.83383  0.93517  0.01702  Biso   1.000  C
  C21      1.0000 0.52322  0.15741  0.45425  Biso   1.000  C
  C22      1.0000 0.57364  0.49990  0.83967  Biso   1.000  C
  C23      1.0000 0.33231  0.93332  0.54875  Biso   1.000  C
  C24      1.0000 0.02451  0.16178  0.08456  Biso   1.000  C
  C25      1.0000 0.33494  0.04298  0.52900  Biso   1.000  C
  C26      1.0000 0.50874  0.30809  0.06190  Biso   1.000  C
  C27      1.0000 0.06784  0.47985  0.34942  Biso   1.000  C
  C28      1.0000 0.83332  0.04470  0.02068  Biso   1.000  C
  C29      1.0000 0.01362  0.29920  0.47345  Biso   1.000  C
  C30      1.0000 0.56750  0.46592  0.20572  Biso   1.000  C
  C31      1.0000 0.20241  0.54698  0.52511  Biso   1.000  C
  C32      1.0000 0.01643  0.79960  0.06711  Biso   1.000  C
  C33      1.0000 0.45408  0.96553  0.34335  Biso   1.000  C
  C34      1.0000 0.69826  0.54346  0.02579  Biso   1.000  C
  C35      1.0000 0.50829  0.79772  0.48951  Biso   1.000  C
  C36      1.0000 0.95669  0.98376  0.19804  Biso   1.000  C
  C37      1.0000 0.69838  0.92254  0.51646  Biso   1.000  C
  C38      1.0000 0.51707  0.67026  0.98810  Biso   1.000  C
  C39      1.0000 0.96818  0.49767  0.70680  Biso   1.000  C
  C40      1.0000 0.19553  0.92127  0.04183  Biso   1.000  C
  C41      1.0000 0.00370  0.66926  0.57402  Biso   1.000  C
  C42      1.0000 0.46439  0.50489  0.84177  Biso   1.000  C
  C43      1.0000 0.83241  0.42370  0.52576  Biso   1.000  C
  C44      1.0000 0.01660  0.16803  0.97708  Biso   1.000  C
  C45      1.0000 0.57751  0.00885  0.70107  Biso   1.000  C
  C46      1.0000 0.33395  0.42252  0.02001  Biso   1.000  C
  C47      1.0000 0.52455  0.16715  0.56385  Biso   1.000  C
  C48      1.0000 0.07835  0.99116  0.84450  Biso   1.000  C
  C49      1.0000 0.02883  0.05048  0.84464  Biso   1.000  C
  C50      1.0000 0.82705  0.98244  0.07069  Biso   1.000  C
  C51      1.0000 0.06564  0.80278  0.01252  Biso   1.000  C
  C52      1.0000 0.51400  0.05329  0.69935  Biso   1.000  C
  C53      1.0000 0.33660  0.97547  0.48374  Biso   1.000  C
  C54      1.0000 0.56696  0.80243  0.53423  Biso   1.000  C
  C55      1.0000 0.51965  0.55608  0.85079  Biso   1.000  C
  C56      1.0000 0.69423  0.49185  0.08045  Biso   1.000  C
  C57      1.0000 0.46502  0.30870  0.99597  Biso   1.000  C
  C58      1.0000 0.02690  0.54753  0.70538  Biso   1.000  C
  C59      1.0000 0.19777  0.49065  0.47006  Biso   1.000  C
  C60      1.0000 0.96577  0.30141  0.53216  Biso   1.000  C
  C61      1.0000 0.00368  0.92319  0.19835  Biso   1.000  C
  C62      1.0000 0.19440  0.96681  0.97933  Biso   1.000  C
  C63      1.0000 0.96601  0.16473  0.03163  Biso   1.000  C
  C64      1.0000 0.51414  0.91703  0.35129  Biso   1.000  C
  C65      1.0000 0.69985  0.98027  0.57275  Biso   1.000  C
  C66      1.0000 0.47034  0.16700  0.50974  Biso   1.000  C
  C67      1.0000 0.50460  0.41883  0.19762  Biso   1.000  C
  C68      1.0000 0.33690  0.47797  0.96593  Biso   1.000  C
  C69      1.0000 0.56976  0.66576  0.04544  Biso   1.000  C
  C70      1.0000 0.01494  0.42721  0.34875  Biso   1.000  C
  C71      1.0000 0.83569  0.47738  0.58253  Biso   1.000  C
  C72      1.0000 0.06657  0.66881  0.52672  Biso   1.000  C
  C73      1.0000 0.01353  0.53303  0.35013  Biso   1.000  C
  C74      1.0000 0.33570  0.99415  0.59202  Biso   1.000  C
  C75      1.0000 0.57209  0.30967  0.02131  Biso   1.000  C
  C76      1.0000 0.51956  0.52645  0.20793  Biso   1.000  C
  C77      1.0000 0.83636  0.99012  0.96386  Biso   1.000  C
  C78      1.0000 0.07401  0.30448  0.52597  Biso   1.000  C
  C79      1.0000 0.50004  0.02559  0.33723  Biso   1.000  C
  C80      1.0000 0.20321  0.49238  0.57729  Biso   1.000  C
  C81      1.0000 0.95925  0.80684  0.02225  Biso   1.000  C
  C82      1.0000 0.01652  0.02940  0.20662  Biso   1.000  C
  C83      1.0000 0.69856  0.48555  0.97098  Biso   1.000  C
  C84      1.0000 0.45927  0.80513  0.55249  Biso   1.000  C
  C85      1.0000 0.01863  0.43784  0.70160  Biso   1.000  C
  C86      1.0000 0.69607  0.97242  0.46383  Biso   1.000  C
  C87      1.0000 0.46093  0.66149  0.03667  Biso   1.000  C
  C88      1.0000 0.51511  0.44844  0.83740  Biso   1.000  C
  C89      1.0000 0.19829  0.98525  0.08580  Biso   1.000  C
  C90      1.0000 0.95747  0.66660  0.51046  Biso   1.000  C
  C91      1.0000 0.53610  0.94705  0.71052  Biso   1.000  C
  C92      1.0000 0.83105  0.48057  0.47433  Biso   1.000  C
  C93      1.0000 0.07473  0.16201  0.02627  Biso   1.000  C
  C94      1.0000 0.01803  0.94283  0.83621  Biso   1.000  C
  C95      1.0000 0.33190  0.47429  0.07672  Biso   1.000  C
  C96      1.0000 0.57755  0.16041  0.50720  Biso   1.000  C
  C97      1.0000 0.70032  0.06148  0.52107  Biso   1.000  C
  C98      1.0000 0.51521  0.65953  0.12602  Biso   1.000  C
  C99      1.0000 0.11102  0.49318  0.70437  Biso   1.000  C
  C100     1.0000 0.19522  0.06084  0.01858  Biso   1.000  C
  C101     1.0000 0.02307  0.66456  0.43540  Biso   1.000  C
  C102     1.0000 0.60617  0.50481  0.84023  Biso   1.000  C
  C103     1.0000 0.83230  0.56736  0.52086  Biso   1.000  C
  C104     1.0000 0.02435  0.16271  0.11810  Biso   1.000  C
  C105     1.0000 0.43934  0.98815  0.71478  Biso   1.000  C
  C106     1.0000 0.33354  0.56211  0.02818  Biso   1.000  C
  C107     1.0000 0.51991  0.15460  0.42161  Biso   1.000  C
  C108     1.0000 0.93691  0.99706  0.83758  Biso   1.000  C
  C109     1.0000 0.33148  0.90232  0.55571  Biso   1.000  C
  C110     1.0000 0.52738  0.31979  0.92299  Biso   1.000  C
  C111     1.0000 0.92650  0.48510  0.35087  Biso   1.000  C
  C112     1.0000 0.83439  0.90275  0.01955  Biso   1.000  C
  C113     1.0000 0.01846  0.30698  0.61468  Biso   1.000  C
  C114     1.0000 0.42472  0.48010  0.20264  Biso   1.000  C
  C115     1.0000 0.20050  0.40302  0.52748  Biso   1.000  C
  C116     1.0000 0.00432  0.81166  0.92800  Biso   1.000  C
  C117     1.0000 0.59652  0.97634  0.34061  Biso   1.000  C
  C118     1.0000 0.70032  0.40168  0.03818  Biso   1.000  C
  C119     1.0000 0.52861  0.81187  0.63022  Biso   1.000  C
  C120     1.0000 0.09612  0.97368  0.20772  Biso   1.000  C
  C121     1.0000 0.82481  0.97785  0.10303  Biso   1.000  C
  C122     1.0000 0.09609  0.79973  0.02048  Biso   1.000  C
  C123     1.0000 0.02662  0.08196  0.84552  Biso   1.000  C
  C124     1.0000 0.33473  0.96861  0.45167  Biso   1.000  C
  C125     1.0000 0.59788  0.80171  0.52440  Biso   1.000  C
  C126     1.0000 0.50964  0.08534  0.69663  Biso   1.000  C
  C127     1.0000 0.69398  0.49094  0.11315  Biso   1.000  C
  C128     1.0000 0.43305  0.30641  0.99621  Biso   1.000  C
  C129     1.0000 0.52027  0.58657  0.85392  Biso   1.000  C
  C130     1.0000 0.19809  0.48594  0.43860  Biso   1.000  C
  C131     1.0000 0.93330  0.29963  0.53446  Biso   1.000  C
  C132     1.0000 0.02035  0.57966  0.70370  Biso   1.000  C
  C133     1.0000 0.19603  0.96377  0.94786  Biso   1.000  C
  C134     1.0000 0.93417  0.16727  0.02515  Biso   1.000  C
  C135     1.0000 0.00377  0.89055  0.19663  Biso   1.000  C
  C136     1.0000 0.70066  0.98162  0.60411  Biso   1.000  C
  C137     1.0000 0.43734  0.16677  0.50928  Biso   1.000  C
  C138     1.0000 0.51706  0.88531  0.35568  Biso   1.000  C
  C139     1.0000 0.33801  0.48243  0.93421  Biso   1.000  C
  C140     1.0000 0.60162  0.66768  0.04658  Biso   1.000  C
  C141     1.0000 0.49900  0.38715  0.19645  Biso   1.000  C
  C142     1.0000 0.83780  0.48354  0.61382  Biso   1.000  C
  C143     1.0000 0.09851  0.66974  0.53070  Biso   1.000  C
  C144     1.0000 0.01068  0.39411  0.34778  Biso   1.000  C
  C145     1.0000 0.33056  0.47308  0.10815  Biso   1.000  C
  C146     1.0000 0.10555  0.30570  0.52905  Biso   1.000  C
  C147     1.0000 0.49287  0.05773  0.33494  Biso   1.000  C
  C148     1.0000 0.83069  0.47579  0.44274  Biso   1.000  C
  C149     1.0000 0.60198  0.30954  0.03374  Biso   1.000  C
  C150     1.0000 0.01710  0.06134  0.20989  Biso   1.000  C
  C151     1.0000 0.19862  0.98386  0.11688  Biso   1.000  C
  C152     1.0000 0.42654  0.80605  0.55862  Biso   1.000  C
  C153     1.0000 0.01822  0.56389  0.34875  Biso   1.000  C
  C154     1.0000 0.69583  0.96503  0.43227  Biso   1.000  C
  C155     1.0000 0.92723  0.80836  0.02776  Biso   1.000  C
  C156     1.0000 0.52215  0.55875  0.21374  Biso   1.000  C
  C157     1.0000 0.69806  0.48665  0.93948  Biso   1.000  C
  C158     1.0000 0.92523  0.66592  0.51228  Biso   1.000  C
  C159     1.0000 0.53631  0.91478  0.71266  Biso   1.000  C
  C160     1.0000 0.20521  0.49065  0.60845  Biso   1.000  C
  C161     1.0000 0.42859  0.65752  0.03615  Biso   1.000  C
  C162     1.0000 0.01947  0.91063  0.83672  Biso   1.000  C
  C163     1.0000 0.83937  0.99091  0.93220  Biso   1.000  C
  C164     1.0000 0.61029  0.15960  0.50842  Biso   1.000  C
  C165     1.0000 0.01721  0.40662  0.70269  Biso   1.000  C
  C166     1.0000 0.33827  0.99013  0.62410  Biso   1.000  C
  C167     1.0000 0.10668  0.15989  0.02305  Biso   1.000  C
  C168     1.0000 0.51772  0.41684  0.83392  Biso   1.000  C
  C169     1.0000 0.01406  0.79773  0.09997  Biso   1.000  C
  C170     1.0000 0.11023  0.98675  0.84710  Biso   1.000  C
  C171     1.0000 0.83376  0.07669  0.02475  Biso   1.000  C
  C172     1.0000 0.50696  0.79402  0.45684  Biso   1.000  C
  C173     1.0000 0.60926  0.01381  0.69902  Biso   1.000  C
  C174     1.0000 0.33654  0.07584  0.52924  Biso   1.000  C
  C175     1.0000 0.50910  0.30322  0.09367  Biso   1.000  C
  C176     1.0000 0.43251  0.50469  0.84194  Biso   1.000  C
  C177     1.0000 0.69756  0.57449  0.03240  Biso   1.000  C
  C178     1.0000 0.00868  0.29774  0.44241  Biso   1.000  C
  C179     1.0000 0.93565  0.49901  0.70563  Biso   1.000  C
  C180     1.0000 0.20090  0.57952  0.52743  Biso   1.000  C
  C181     1.0000 0.01638  0.17139  0.94475  Biso   1.000  C
  C182     1.0000 0.92449  0.98390  0.19706  Biso   1.000  C
  C183     1.0000 0.19561  0.88864  0.04366  Biso   1.000  C
  C184     1.0000 0.52253  0.17059  0.59447  Biso   1.000  C
  C185     1.0000 0.42161  0.96586  0.34542  Biso   1.000  C
  C186     1.0000 0.69555  0.89238  0.50846  Biso   1.000  C
  C187     1.0000 0.51954  0.67211  0.95634  Biso   1.000  C
  C188     1.0000 0.59916  0.46839  0.20633  Biso   1.000  C
  C189     1.0000 0.33342  0.39124  0.02002  Biso   1.000  C
  C190     1.0000 0.00123  0.66890  0.60532  Biso   1.000  C
  C191     1.0000 0.10043  0.47786  0.34658  Biso   1.000  C
  C192     1.0000 0.83191  0.39130  0.52540  Biso   1.000  C
  C193     1.0000 0.86716  0.99199  0.91646  Biso   1.000  C
  C194     1.0000 0.91241  0.83559  0.02420  Biso   1.000  C
  C195     1.0000 0.01401  0.89413  0.86304  Biso   1.000  C
  C196     1.0000 0.36568  0.98983  0.63938  Biso   1.000  C
  C197     1.0000 0.41024  0.83413  0.55885  Biso   1.000  C
  C198     1.0000 0.53440  0.89609  0.68870  Biso   1.000  C
  C199     1.0000 0.67099  0.49060  0.92299  Biso   1.000  C
  C200     1.0000 0.61784  0.33703  0.03597  Biso   1.000  C
  C201     1.0000 0.52269  0.39871  0.85975  Biso   1.000  C
  C202     1.0000 0.17863  0.49106  0.62437  Biso   1.000  C
  C203     1.0000 0.12070  0.33220  0.53085  Biso   1.000  C
  C204     1.0000 0.01659  0.38966  0.67660  Biso   1.000  C
  C205     1.0000 0.17027  0.97892  0.13261  Biso   1.000  C
  C206     1.0000 0.12082  0.13314  0.02433  Biso   1.000  C
  C207     1.0000 0.02069  0.07908  0.18400  Biso   1.000  C
  C208     1.0000 0.66771  0.96240  0.41604  Biso   1.000  C
  C209     1.0000 0.62508  0.13213  0.51494  Biso   1.000  C
  C210     1.0000 0.49862  0.07610  0.35963  Biso   1.000  C
  C211     1.0000 0.35723  0.47500  0.12333  Biso   1.000  C
  C212     1.0000 0.41394  0.62932  0.03361  Biso   1.000  C
  C213     1.0000 0.52223  0.57731  0.18866  Biso   1.000  C
  C214     1.0000 0.85844  0.47788  0.42695  Biso   1.000  C
  C215     1.0000 0.90898  0.63880  0.51326  Biso   1.000  C
  C216     1.0000 0.01825  0.58074  0.37457  Biso   1.000  C
  C217     1.0000 0.12285  0.98005  0.87546  Biso   1.000  C
  C218     1.0000 0.86080  0.09175  0.02245  Biso   1.000  C
  C219     1.0000 0.01024  0.82377  0.11695  Biso   1.000  C
  C220     1.0000 0.62432  0.00718  0.67078  Biso   1.000  C
  C221     1.0000 0.36478  0.08918  0.52558  Biso   1.000  C
  C222     1.0000 0.50981  0.82067  0.43952  Biso   1.000  C
  C223     1.0000 0.41676  0.49819  0.86910  Biso   1.000  C
  C224     1.0000 0.66920  0.59191  0.03721  Biso   1.000  C
  C225     1.0000 0.50490  0.32757  0.11262  Biso   1.000  C
  C226     1.0000 0.91933  0.49598  0.67830  Biso   1.000  C
  C227     1.0000 0.17262  0.59388  0.52620  Biso   1.000  C
  C228     1.0000 0.00646  0.32464  0.42604  Biso   1.000  C
  C229     1.0000 0.90813  0.98309  0.17029  Biso   1.000  C
  C230     1.0000 0.16787  0.87347  0.03700  Biso   1.000  C
  C231     1.0000 0.02324  0.14630  0.92794  Biso   1.000  C
  C232     1.0000 0.40989  0.96870  0.37500  Biso   1.000  C
  C233     1.0000 0.66768  0.87690  0.51071  Biso   1.000  C
  C234     1.0000 0.52282  0.14585  0.61380  Biso   1.000  C
  C235     1.0000 0.61612  0.47178  0.17889  Biso   1.000  C
  C236     1.0000 0.36004  0.37744  0.01402  Biso   1.000  C
  C237     1.0000 0.51954  0.64667  0.93817  Biso   1.000  C
  C238     1.0000 0.11842  0.47783  0.37350  Biso   1.000  C
  C239     1.0000 0.85981  0.37664  0.52715  Biso   1.000  C
  C240     1.0000 0.00514  0.64336  0.62341  Biso   1.000  C
  C241     1.0000 0.62068  0.50050  0.86758  Biso   1.000  C
  C242     1.0000 0.85838  0.58507  0.51828  Biso   1.000  C
  C243     1.0000 0.53091  0.84075  0.64304  Biso   1.000  C
  C244     1.0000 0.12646  0.49133  0.67723  Biso   1.000  C
  C245     1.0000 0.36024  0.57795  0.02605  Biso   1.000  C
  C246     1.0000 0.00388  0.83984  0.91393  Biso   1.000  C
  C247     1.0000 0.91975  0.99492  0.86439  Biso   1.000  C
  C248     1.0000 0.67323  0.07759  0.52201  Biso   1.000  C
  C249     1.0000 0.01860  0.33471  0.62828  Biso   1.000  C
  C250     1.0000 0.42157  0.98787  0.68879  Biso   1.000  C
  C251     1.0000 0.16923  0.07867  0.02085  Biso   1.000  C
  C252     1.0000 0.52608  0.34564  0.90815  Biso   1.000  C
  C253     1.0000 0.40924  0.47829  0.17429  Biso   1.000  C
  C254     1.0000 0.17332  0.38732  0.52828  Biso   1.000  C
  C255     1.0000 0.51402  0.12905  0.40711  Biso   1.000  C
  C256     1.0000 0.90917  0.48302  0.37738  Biso   1.000  C
  C257     1.0000 0.67327  0.38702  0.04057  Biso   1.000  C
  C258     1.0000 0.02310  0.13490  0.13229  Biso   1.000  C
  C259     1.0000 0.11480  0.97519  0.18059  Biso   1.000  C
  C260     1.0000 0.35832  0.88655  0.55787  Biso   1.000  C
  C261     1.0000 0.02335  0.63621  0.41982  Biso   1.000  C
  C262     1.0000 0.61463  0.97361  0.36738  Biso   1.000  C
  C263     1.0000 0.86151  0.88625  0.01875  Biso   1.000  C
  C264     1.0000 0.51980  0.63106  0.14159  Biso   1.000  C
  C265     1.0000 0.03170  0.09750  0.87328  Biso   1.000  C
  C266     1.0000 0.85237  0.97657  0.11840  Biso   1.000  C
  C267     1.0000 0.11238  0.82579  0.02633  Biso   1.000  C
  C268     1.0000 0.51323  0.09980  0.66800  Biso   1.000  C
  C269     1.0000 0.36100  0.96711  0.43363  Biso   1.000  C
  C270     1.0000 0.61428  0.82833  0.52249  Biso   1.000  C
  C271     1.0000 0.51680  0.59993  0.88231  Biso   1.000  C
  C272     1.0000 0.66799  0.48648  0.12970  Biso   1.000  C
  C273     1.0000 0.41505  0.33209  0.00391  Biso   1.000  C
  C274     1.0000 0.01570  0.59451  0.67658  Biso   1.000  C
  C275     1.0000 0.17029  0.48055  0.42398  Biso   1.000  C
  C276     1.0000 0.91597  0.32625  0.53606  Biso   1.000  C
  C277     1.0000 0.00363  0.87630  0.16997  Biso   1.000  C
  C278     1.0000 0.17049  0.96763  0.93023  Biso   1.000  C
  C279     1.0000 0.91629  0.14074  0.02221  Biso   1.000  C
  C280     1.0000 0.51685  0.87105  0.38302  Biso   1.000  C
  C281     1.0000 0.67404  0.98636  0.62088  Biso   1.000  C
  C282     1.0000 0.42050  0.13932  0.51618  Biso   1.000  C
  C283     1.0000 0.49762  0.37404  0.16829  Biso   1.000  C
  C284     1.0000 0.36409  0.48970  0.91932  Biso   1.000  C
  C285     1.0000 0.61921  0.64170  0.04357  Biso   1.000  C
  C286     1.0000 0.01115  0.37817  0.37507  Biso   1.000  C
  C287     1.0000 0.86536  0.48715  0.62846  Biso   1.000  C
  C288     1.0000 0.11778  0.64386  0.52653  Biso   1.000  C
  C289     1.0000 0.35695  0.85468  0.56094  Biso   1.000  C
  C290     1.0000 0.52479  0.34548  0.87689  Biso   1.000  C
  C291     1.0000 0.87773  0.48214  0.37400  Biso   1.000  C
  C292     1.0000 0.85885  0.85610  0.02596  Biso   1.000  C
  C293     1.0000 0.01916  0.33631  0.66011  Biso   1.000  C
  C294     1.0000 0.37854  0.47537  0.17727  Biso   1.000  C
  C295     1.0000 0.17548  0.35507  0.52529  Biso   1.000  C
  C296     1.0000 0.00681  0.84106  0.88181  Biso   1.000  C
  C297     1.0000 0.64563  0.97206  0.36403  Biso   1.000  C
  C298     1.0000 0.67197  0.35589  0.03968  Biso   1.000  C
  C299     1.0000 0.53759  0.84152  0.67359  Biso   1.000  C
  C300     1.0000 0.14700  0.97461  0.18416  Biso   1.000  C
  C301     1.0000 0.67544  0.10940  0.52307  Biso   1.000  C
  C302     1.0000 0.51952  0.63110  0.17245  Biso   1.000  C
  C303     1.0000 0.15750  0.49266  0.67656  Biso   1.000  C
  C304     1.0000 0.17264  0.11009  0.02151  Biso   1.000  C
  C305     1.0000 0.02135  0.63638  0.38878  Biso   1.000  C
  C306     1.0000 0.65310  0.50215  0.86970  Biso   1.000  C
  C307     1.0000 0.85707  0.61647  0.51292  Biso   1.000  C
  C308     1.0000 0.01670  0.13309  0.16323  Biso   1.000  C
  C309     1.0000 0.38998  0.98720  0.69039  Biso   1.000  C
  C310     1.0000 0.35970  0.60881  0.02975  Biso   1.000  C
  C311     1.0000 0.51130  0.12950  0.37616  Biso   1.000  C
  C312     1.0000 0.88751  0.99571  0.86258  Biso   1.000  C
  C313     1.0000 0.17114  0.47610  0.39241  Biso   1.000  C
  C314     1.0000 0.38805  0.14045  0.51639  Biso   1.000  C
  C315     1.0000 0.49817  0.34332  0.16654  Biso   1.000  C
  C316     1.0000 0.66884  0.48200  0.16054  Biso   1.000  C
  C317     1.0000 0.88571  0.14313  0.02474  Biso   1.000  C
  C318     1.0000 0.00792  0.34673  0.37518  Biso   1.000  C
  C319     1.0000 0.35856  0.96846  0.40290  Biso   1.000  C
  C320     1.0000 0.14822  0.64446  0.53013  Biso   1.000  C
  C321     1.0000 0.00420  0.84320  0.16964  Biso   1.000  C
  C322     1.0000 0.85502  0.97616  0.14874  Biso   1.000  C
  C323     1.0000 0.64925  0.64429  0.04272  Biso   1.000  C
  C324     1.0000 0.51372  0.83932  0.38442  Biso   1.000  C
  C325     1.0000 0.86485  0.49349  0.66025  Biso   1.000  C
  C326     1.0000 0.64465  0.82573  0.51236  Biso   1.000  C
  C327     1.0000 0.51821  0.63106  0.88327  Biso   1.000  C
  C328     1.0000 0.36269  0.49184  0.88835  Biso   1.000  C
  C329     1.0000 0.14345  0.82285  0.03126  Biso   1.000  C
  C330     1.0000 0.01244  0.62592  0.67484  Biso   1.000  C
  C331     1.0000 0.67519  0.99171  0.65070  Biso   1.000  C
  C332     1.0000 0.88505  0.32476  0.53045  Biso   1.000  C
  C333     1.0000 0.02453  0.12851  0.87404  Biso   1.000  C
  C334     1.0000 0.17471  0.97378  0.89921  Biso   1.000  C
  C335     1.0000 0.38336  0.32669  0.00684  Biso   1.000  C
  C336     1.0000 0.51581  0.13177  0.66754  Biso   1.000  C
  C337     1.0000 0.67397  0.49670  0.89154  Biso   1.000  C
  C338     1.0000 0.87824  0.63883  0.51125  Biso   1.000  C
  C339     1.0000 0.53832  0.86504  0.69307  Biso   1.000  C
  C340     1.0000 0.17956  0.49280  0.65422  Biso   1.000  C
  C341     1.0000 0.38195  0.62988  0.03111  Biso   1.000  C
  C342     1.0000 0.01095  0.86337  0.86114  Biso   1.000  C
  C343     1.0000 0.86581  0.99373  0.88468  Biso   1.000  C
  C344     1.0000 0.65585  0.13124  0.51720  Biso   1.000  C
  C345     1.0000 0.01707  0.35899  0.68111  Biso   1.000  C
  C346     1.0000 0.36640  0.98826  0.67134  Biso   1.000  C
  C347     1.0000 0.15128  0.13227  0.02190  Biso   1.000  C
  C348     1.0000 0.52307  0.36788  0.85650  Biso   1.000  C
  C349     1.0000 0.35620  0.47465  0.15411  Biso   1.000  C
  C350     1.0000 0.15233  0.33346  0.52602  Biso   1.000  C
  C351     1.0000 0.50326  0.10718  0.35660  Biso   1.000  C
  C352     1.0000 0.85668  0.47895  0.39557  Biso   1.000  C
  C353     1.0000 0.64980  0.33593  0.03926  Biso   1.000  C
  C354     1.0000 0.01553  0.11005  0.18494  Biso   1.000  C
  C355     1.0000 0.17015  0.97613  0.16320  Biso   1.000  C
  C356     1.0000 0.37865  0.83312  0.56120  Biso   1.000  C
  C357     1.0000 0.01877  0.61163  0.37062  Biso   1.000  C
  C358     1.0000 0.66813  0.96993  0.38579  Biso   1.000  C
  C359     1.0000 0.88052  0.83545  0.02819  Biso   1.000  C
  C360     1.0000 0.52089  0.60886  0.19327  Biso   1.000  C
  C361     1.0000 0.02269  0.14844  0.89709  Biso   1.000  C
  C362     1.0000 0.87652  0.97793  0.17066  Biso   1.000  C
  C363     1.0000 0.16646  0.84279  0.03499  Biso   1.000  C
  C364     1.0000 0.51906  0.15050  0.64431  Biso   1.000  C
  C365     1.0000 0.37818  0.96899  0.37886  Biso   1.000  C
  C366     1.0000 0.66617  0.84656  0.50674  Biso   1.000  C
  C367     1.0000 0.51954  0.65070  0.90642  Biso   1.000  C
  C368     1.0000 0.64687  0.47583  0.18126  Biso   1.000  C
  C369     1.0000 0.35969  0.34621  0.01145  Biso   1.000  C
  C370     1.0000 0.00644  0.64762  0.65409  Biso   1.000  C
  C371     1.0000 0.14940  0.47505  0.37149  Biso   1.000  C
  C372     1.0000 0.86252  0.34501  0.52643  Biso   1.000  C
  C373     1.0000 0.00680  0.82213  0.14816  Biso   1.000  C
  C374     1.0000 0.15547  0.97889  0.87705  Biso   1.000  C
  C375     1.0000 0.86295  0.12234  0.02506  Biso   1.000  C
  C376     1.0000 0.50933  0.81825  0.40786  Biso   1.000  C
  C377     1.0000 0.65483  0.00082  0.67093  Biso   1.000  C
  C378     1.0000 0.36493  0.12025  0.52103  Biso   1.000  C
  C379     1.0000 0.50214  0.32357  0.14389  Biso   1.000  C
  C380     1.0000 0.38447  0.49760  0.86740  Biso   1.000  C
  C381     1.0000 0.67122  0.62243  0.04001  Biso   1.000  C
  C382     1.0000 0.00585  0.32440  0.39629  Biso   1.000  C
  C383     1.0000 0.88785  0.49766  0.68031  Biso   1.000  C
  C384     1.0000 0.17177  0.62411  0.53169  Biso   1.000  C
  C385     1.0000 0.19978  0.12476  0.01781  Biso   1.000  C
  C386     1.0000 0.01316  0.15879  0.17970  Biso   1.000  C
  C387     1.0000 0.16160  0.97234  0.21158  Biso   1.000  C
  C388     1.0000 0.70326  0.12418  0.52385  Biso   1.000  C
  C389     1.0000 0.51191  0.15551  0.35865  Biso   1.000  C
  C390     1.0000 0.66084  0.97418  0.33742  Biso   1.000  C
  C391     1.0000 0.33277  0.62424  0.03314  Biso   1.000  C
  C392     1.0000 0.51870  0.65747  0.18871  Biso   1.000  C
  C393     1.0000 0.36169  0.47603  0.20366  Biso   1.000  C
  C394     1.0000 0.82985  0.63075  0.50802  Biso   1.000  C
  C395     1.0000 0.01945  0.66227  0.37183  Biso   1.000  C
  C396     1.0000 0.86232  0.48481  0.34691  Biso   1.000  C
  C397     1.0000 0.83148  0.84143  0.03003  Biso   1.000  C
  C398     1.0000 0.00736  0.81550  0.86671  Biso   1.000  C
  C399     1.0000 0.87281  0.99801  0.83606  Biso   1.000  C
  C400     1.0000 0.33005  0.83919  0.56440  Biso   1.000  C
  C401     1.0000 0.54297  0.81582  0.69204  Biso   1.000  C
  C402     1.0000 0.37562  0.98638  0.71877  Biso   1.000  C
  C403     1.0000 0.69812  0.33839  0.04006  Biso   1.000  C
  C404     1.0000 0.52418  0.31903  0.86075  Biso   1.000  C
  C405     1.0000 0.66973  0.50394  0.84314  Biso   1.000  C
  C406     1.0000 0.20305  0.33896  0.52269  Biso   1.000  C
  C407     1.0000 0.01677  0.31076  0.67875  Biso   1.000  C
  C408     1.0000 0.17377  0.49803  0.70334  Biso   1.000  C
  C409     1.0000 0.17357  0.97932  0.85136  Biso   1.000  C
  C410     1.0000 0.83672  0.13949  0.02754  Biso   1.000  C
  C411     1.0000 0.00774  0.79512  0.16362  Biso   1.000  C
  C412     1.0000 0.67232  0.00648  0.69739  Biso   1.000  C
  C413     1.0000 0.33947  0.13773  0.52255  Biso   1.000  C
  C414     1.0000 0.50572  0.79012  0.39433  Biso   1.000  C
  C415     1.0000 0.36851  0.50148  0.84036  Biso   1.000  C
  C416     1.0000 0.69749  0.63811  0.04020  Biso   1.000  C
  C417     1.0000 0.50244  0.29475  0.15644  Biso   1.000  C
  C418     1.0000 0.87221  0.50124  0.70698  Biso   1.000  C
  C419     1.0000 0.19585  0.64084  0.53914  Biso   1.000  C
  C420     1.0000 0.00595  0.29683  0.38089  Biso   1.000  C
  C421     1.0000 0.86107  0.97351  0.19781  Biso   1.000  C
  C422     1.0000 0.19205  0.82534  0.03848  Biso   1.000  C
  C423     1.0000 0.01522  0.17449  0.88186  Biso   1.000  C
  C424     1.0000 0.36073  0.96934  0.35351  Biso   1.000  C
  C425     1.0000 0.69164  0.83023  0.49876  Biso   1.000  C
  C426     1.0000 0.52076  0.17843  0.65699  Biso   1.000  C
  C427     1.0000 0.66305  0.47261  0.20797  Biso   1.000  C
  C428     1.0000 0.33448  0.32779  0.01288  Biso   1.000  C
  C429     1.0000 0.52332  0.67883  0.89485  Biso   1.000  C
  C430     1.0000 0.16415  0.47515  0.34394  Biso   1.000  C
  C431     1.0000 0.83654  0.32814  0.52241  Biso   1.000  C
  C432     1.0000 0.00625  0.67527  0.66792  Biso   1.000  C
  C433     1.0000 0.01985  0.14416  0.84709  Biso   1.000  C
  C434     1.0000 0.82737  0.97293  0.16470  Biso   1.000  C
  C435     1.0000 0.15738  0.79479  0.03308  Biso   1.000  C
  C436     1.0000 0.51395  0.14836  0.69207  Biso   1.000  C
  C437     1.0000 0.33127  0.96613  0.38863  Biso   1.000  C
  C438     1.0000 0.65731  0.79866  0.50423  Biso   1.000  C
  C439     1.0000 0.52251  0.64886  0.85831  Biso   1.000  C
  C440     1.0000 0.69566  0.48237  0.17514  Biso   1.000  C
  C441     1.0000 0.36951  0.29922  0.00315  Biso   1.000  C
  C442     1.0000 0.01423  0.64278  0.70108  Biso   1.000  C
  C443     1.0000 0.19786  0.47681  0.37664  Biso   1.000  C
  C444     1.0000 0.87170  0.29736  0.52529  Biso   1.000  C
  C445     1.0000 0.00662  0.82699  0.19529  Biso   1.000  C
  C446     1.0000 0.20227  0.97325  0.88715  Biso   1.000  C
  C447     1.0000 0.87204  0.16979  0.02758  Biso   1.000  C
  C448     1.0000 0.51313  0.82224  0.35896  Biso   1.000  C
  C449     1.0000 0.70308  0.99178  0.66485  Biso   1.000  C
  C450     1.0000 0.37329  0.16743  0.51386  Biso   1.000  C
  C451     1.0000 0.49755  0.32489  0.19108  Biso   1.000  C
  C452     1.0000 0.33561  0.49215  0.87229  Biso   1.000  C
  C453     1.0000 0.66461  0.67152  0.04218  Biso   1.000  C
  C454     1.0000 0.00732  0.33167  0.34814  Biso   1.000  C
  C455     1.0000 0.83754  0.49615  0.67611  Biso   1.000  C
  C456     1.0000 0.16102  0.67048  0.53937  Biso   1.000  C
  C457     1.0000 0.01635  0.62717  0.34345  Biso   1.000  C
  C458     1.0000 0.34039  0.98848  0.68749  Biso   1.000  C
  C459     1.0000 0.66397  0.30833  0.04013  Biso   1.000  C
  C460     1.0000 0.51819  0.62278  0.21952  Biso   1.000  C
  C461     1.0000 0.83856  0.99407  0.86769  Biso   1.000  C
  C462     1.0000 0.16800  0.30572  0.52484  Biso   1.000  C
  C463     1.0000 0.50041  0.12039  0.32824  Biso   1.000  C
  C464     1.0000 0.20720  0.49534  0.66972  Biso   1.000  C
  C465     1.0000 0.86461  0.80905  0.03400  Biso   1.000  C
  C466     1.0000 0.01026  0.12395  0.21262  Biso   1.000  C
  C467     1.0000 0.70175  0.49630  0.87613  Biso   1.000  C
  C468     1.0000 0.36295  0.80579  0.56521  Biso   1.000  C
  C469     1.0000 0.01660  0.34547  0.70942  Biso   1.000  C
  C470     1.0000 0.69363  0.97108  0.36948  Biso   1.000  C
  C471     1.0000 0.36449  0.65623  0.03217  Biso   1.000  C
  C472     1.0000 0.51804  0.35301  0.82952  Biso   1.000  C
  C473     1.0000 0.19654  0.97392  0.17981  Biso   1.000  C
  C474     1.0000 0.86193  0.66539  0.50878  Biso   1.000  C
  C475     1.0000 0.54173  0.85332  0.72086  Biso   1.000  C
  C476     1.0000 0.82962  0.47874  0.37921  Biso   1.000  C
  C477     1.0000 0.16814  0.15827  0.01861  Biso   1.000  C
  C478     1.0000 0.01362  0.84839  0.83497  Biso   1.000  C
  C479     1.0000 0.33001  0.47539  0.17117  Biso   1.000  C
  C480     1.0000 0.67208  0.15785  0.51501  Biso   1.000  C
  C481     1.0000 0.37905  0.77931  0.56563  Biso   1.000  C
  C482     1.0000 0.51321  0.37106  0.80371  Biso   1.000  C
  C483     1.0000 0.80280  0.47634  0.39510  Biso   1.000  C
  C484     1.0000 0.88062  0.78148  0.03560  Biso   1.000  C
  C485     1.0000 0.01566  0.36337  0.73560  Biso   1.000  C
  C486     1.0000 0.30316  0.47809  0.15538  Biso   1.000  C
  C487     1.0000 0.15231  0.27785  0.52485  Biso   1.000  C
  C488     1.0000 0.02042  0.86428  0.80743  Biso   1.000  C
  C489     1.0000 0.72088  0.97318  0.38428  Biso   1.000  C
  C490     1.0000 0.64907  0.28125  0.03852  Biso   1.000  C
  C491     1.0000 0.54236  0.87294  0.74632  Biso   1.000  C
  C492     1.0000 0.22524  0.97642  0.16486  Biso   1.000  C
  C493     1.0000 0.65755  0.18480  0.50878  Biso   1.000  C
  C494     1.0000 0.51826  0.60314  0.24499  Biso   1.000  C
  C495     1.0000 0.23522  0.49206  0.65394  Biso   1.000  C
  C496     1.0000 0.15343  0.18546  0.01965  Biso   1.000  C
  C497     1.0000 0.01480  0.60866  0.31837  Biso   1.000  C
  C498     1.0000 0.72748  0.48927  0.89297  Biso   1.000  C
  C499     1.0000 0.87623  0.69214  0.50839  Biso   1.000  C
  C500     1.0000 0.00768  0.10510  0.23871  Biso   1.000  C
  C501     1.0000 0.31215  0.98772  0.67189  Biso   1.000  C
  C502     1.0000 0.37982  0.68429  0.03409  Biso   1.000  C
  C503     1.0000 0.49438  0.10256  0.30228  Biso   1.000  C
  C504     1.0000 0.81086  0.99012  0.88428  Biso   1.000  C
  C505     1.0000 0.65358  0.50843  0.81621  Biso   1.000  C
  C506     1.0000 0.80329  0.61295  0.51003  Biso   1.000  C
  C507     1.0000 0.54114  0.78795  0.67971  Biso   1.000  C
  C508     1.0000 0.15982  0.49780  0.73054  Biso   1.000  C
  C509     1.0000 0.30601  0.60956  0.03271  Biso   1.000  C
  C510     1.0000 0.00376  0.78686  0.88089  Biso   1.000  C
  C511     1.0000 0.89138  0.00089  0.80977  Biso   1.000  C
  C512     1.0000 0.73005  0.10835  0.52560  Biso   1.000  C
  C513     1.0000 0.01814  0.28176  0.66451  Biso   1.000  C
  C514     1.0000 0.39382  0.98586  0.74532  Biso   1.000  C
  C515     1.0000 0.22498  0.10594  0.01554  Biso   1.000  C
  C516     1.0000 0.52765  0.29172  0.87565  Biso   1.000  C
  C517     1.0000 0.37795  0.47697  0.23059  Biso   1.000  C
  C518     1.0000 0.23084  0.35544  0.52283  Biso   1.000  C
  C519     1.0000 0.52066  0.18296  0.37353  Biso   1.000  C
  C520     1.0000 0.88127  0.48680  0.32135  Biso   1.000  C
  C521     1.0000 0.72642  0.35324  0.03864  Biso   1.000  C
  C522     1.0000 0.01372  0.18745  0.16502  Biso   1.000  C
  C523     1.0000 0.14272  0.97279  0.23729  Biso   1.000  C
  C524     1.0000 0.30265  0.85525  0.56305  Biso   1.000  C
  C525     1.0000 0.01886  0.68921  0.38655  Biso   1.000  C
  C526     1.0000 0.64425  0.97729  0.31129  Biso   1.000  C
  C527     1.0000 0.80436  0.85759  0.02846  Biso   1.000  C
  C528     1.0000 0.51642  0.68540  0.17438  Biso   1.000  C
  C529     1.0000 0.80795  0.12337  0.02842  Biso   1.000  C
  C530     1.0000 0.01100  0.76833  0.14690  Biso   1.000  C
  C531     1.0000 0.16050  0.98499  0.82337  Biso   1.000  C
  C532     1.0000 0.31129  0.12462  0.53054  Biso   1.000  C
  C533     1.0000 0.50402  0.76383  0.41218  Biso   1.000  C
  C534     1.0000 0.65606  0.01542  0.72411  Biso   1.000  C
  C535     1.0000 0.72505  0.62206  0.03811  Biso   1.000  C
  C536     1.0000 0.50790  0.27003  0.13775  Biso   1.000  C
  C537     1.0000 0.38531  0.50809  0.81502  Biso   1.000  C
  C538     1.0000 0.22377  0.62697  0.53845  Biso   1.000  C
  C539     1.0000 0.00763  0.26999  0.39568  Biso   1.000  C
  C540     1.0000 0.88950  0.50681  0.73389  Biso   1.000  C
  C541     1.0000 0.21917  0.83900  0.04465  Biso   1.000  C
  C542     1.0000 0.00922  0.20022  0.89793  Biso   1.000  C
  C543     1.0000 0.87713  0.97199  0.22553  Biso   1.000  C
  C544     1.0000 0.71993  0.84458  0.49365  Biso   1.000  C
  C545     1.0000 0.51998  0.20358  0.63868  Biso   1.000  C
  C546     1.0000 0.37275  0.96918  0.32334  Biso   1.000  C
  C547     1.0000 0.30778  0.34279  0.02148  Biso   1.000  C
  C548     1.0000 0.52572  0.70462  0.91229  Biso   1.000  C
  C549     1.0000 0.64668  0.46699  0.23475  Biso   1.000  C
  C550     1.0000 0.80840  0.34222  0.51763  Biso   1.000  C
  C551     1.0000 0.00374  0.70258  0.65084  Biso   1.000  C
  C552     1.0000 0.14765  0.47593  0.31758  Biso   1.000  C
  C553     1.0000 0.01610  0.12903  0.81937  Biso   1.000  C
  C554     1.0000 0.79886  0.97233  0.15072  Biso   1.000  C
  C555     1.0000 0.13869  0.76806  0.03003  Biso   1.000  C
  C556     1.0000 0.51183  0.13510  0.72067  Biso   1.000  C
  C557     1.0000 0.30477  0.96396  0.40605  Biso   1.000  C
  C558     1.0000 0.64097  0.77181  0.50599  Biso   1.000  C
  C559     1.0000 0.52466  0.63594  0.82949  Biso   1.000  C
  C560     1.0000 0.72395  0.48457  0.15938  Biso   1.000  C
  C561     1.0000 0.38807  0.27460  0.99414  Biso   1.000  C
  C562     1.0000 0.01739  0.62738  0.72761  Biso   1.000  C
  C563     1.0000 0.22560  0.47975  0.39211  Biso   1.000  C
  C564     1.0000 0.88806  0.26968  0.52616  Biso   1.000  C
  C565     1.0000 0.00400  0.84251  0.22237  Biso   1.000  C
  C566     1.0000 0.22856  0.96550  0.90476  Biso   1.000  C
  C567     1.0000 0.88994  0.19696  0.02887  Biso   1.000  C
  C568     1.0000 0.51384  0.83686  0.33124  Biso   1.000  C
  C569     1.0000 0.72971  0.98446  0.64927  Biso   1.000  C
  C570     1.0000 0.38994  0.19398  0.50621  Biso   1.000  C
  C571     1.0000 0.49722  0.33647  0.21985  Biso   1.000  C
  C572     1.0000 0.30777  0.48738  0.88755  Biso   1.000  C
  C573     1.0000 0.64822  0.69827  0.04617  Biso   1.000  C
  C574     1.0000 0.00581  0.34766  0.31976  Biso   1.000  C
  C575     1.0000 0.80997  0.49386  0.66079  Biso   1.000  C
  C576     1.0000 0.14249  0.69626  0.54360  Biso   1.000  C
  C577     1.0000 0.30369  0.47432  0.12373  Biso   1.000  C
  C578     1.0000 0.12088  0.27807  0.52851  Biso   1.000  C
  C579     1.0000 0.49008  0.07117  0.30657  Biso   1.000  C
  C580     1.0000 0.80359  0.47496  0.42750  Biso   1.000  C
  C581     1.0000 0.61757  0.28235  0.03732  Biso   1.000  C
  C582     1.0000 0.01150  0.07376  0.23710  Biso   1.000  C
  C583     1.0000 0.22494  0.98307  0.13344  Biso   1.000  C
  C584     1.0000 0.41057  0.77945  0.56308  Biso   1.000  C
  C585     1.0000 0.01692  0.57745  0.32048  Biso   1.000  C
  C586     1.0000 0.72227  0.97029  0.41578  Biso   1.000  C
  C587     1.0000 0.91196  0.78159  0.03466  Biso   1.000  C
  C588     1.0000 0.52126  0.57235  0.24226  Biso   1.000  C
  C589     1.0000 0.72676  0.48348  0.92420  Biso   1.000  C
  C590     1.0000 0.90908  0.69217  0.50911  Biso   1.000  C
  C591     1.0000 0.53945  0.90371  0.74110  Biso   1.000  C
  C592     1.0000 0.23450  0.48995  0.62320  Biso   1.000  C
  C593     1.0000 0.41220  0.68509  0.03529  Biso   1.000  C
  C594     1.0000 0.02270  0.89534  0.80922  Biso   1.000  C
  C595     1.0000 0.81214  0.98846  0.91673  Biso   1.000  C
  C596     1.0000 0.62653  0.18659  0.50560  Biso   1.000  C
  C597     1.0000 0.01663  0.39416  0.73158  Biso   1.000  C
  C598     1.0000 0.31233  0.98644  0.64004  Biso   1.000  C
  C599     1.0000 0.12258  0.18646  0.01968  Biso   1.000  C
  C600     1.0000 0.51322  0.40290  0.80605  Biso   1.000  C
  C601     1.0000 0.22528  0.95983  0.93439  Biso   1.000  C
  C602     1.0000 0.92210  0.19510  0.02614  Biso   1.000  C
  C603     1.0000 0.00380  0.87374  0.22310  Biso   1.000  C
  C604     1.0000 0.72810  0.97847  0.61901  Biso   1.000  C
  C605     1.0000 0.42155  0.19403  0.50464  Biso   1.000  C
  C606     1.0000 0.51682  0.86897  0.32950  Biso   1.000  C
  C607     1.0000 0.31060  0.47937  0.91839  Biso   1.000  C
  C608     1.0000 0.61662  0.69651  0.04905  Biso   1.000  C
  C609     1.0000 0.49851  0.36929  0.22238  Biso   1.000  C
  C610     1.0000 0.81079  0.48582  0.62968  Biso   1.000  C
  C611     1.0000 0.11159  0.69624  0.53898  Biso   1.000  C
  C612     1.0000 0.00809  0.37921  0.32030  Biso   1.000  C
  C613     1.0000 0.79758  0.97465  0.11883  Biso   1.000  C
  C614     1.0000 0.10869  0.77144  0.02514  Biso   1.000  C
  C615     1.0000 0.01836  0.09700  0.81900  Biso   1.000  C
  C616     1.0000 0.30741  0.96438  0.43708  Biso   1.000  C
  C617     1.0000 0.61026  0.77360  0.51519  Biso   1.000  C
  C618     1.0000 0.50850  0.10345  0.72237  Biso   1.000  C
  C619     1.0000 0.72216  0.49022  0.12793  Biso   1.000  C
  C620     1.0000 0.41948  0.27832  0.99008  Biso   1.000  C
  C621     1.0000 0.52372  0.60398  0.82732  Biso   1.000  C
  C622     1.0000 0.22523  0.48411  0.42342  Biso   1.000  C
  C623     1.0000 0.91814  0.27192  0.53177  Biso   1.000  C
  C624     1.0000 0.01993  0.59666  0.73043  Biso   1.000  C
  C625     1.0000 0.00906  0.20004  0.92932  Biso   1.000  C
  C626     1.0000 0.90848  0.97957  0.22485  Biso   1.000  C
  C627     1.0000 0.22079  0.87044  0.04725  Biso   1.000  C
  C628     1.0000 0.52115  0.20000  0.60655  Biso   1.000  C
  C629     1.0000 0.40306  0.96452  0.31992  Biso   1.000  C
  C630     1.0000 0.72044  0.87643  0.49877  Biso   1.000  C
  C631     1.0000 0.52469  0.70074  0.94475  Biso   1.000  C
  C632     1.0000 0.61494  0.46533  0.23394  Biso   1.000  C
  C633     1.0000 0.30576  0.37472  0.02387  Biso   1.000  C
  C634     1.0000 0.00085  0.69875  0.62061  Biso   1.000  C
  C635     1.0000 0.11540  0.47516  0.31825  Biso   1.000  C
  C636     1.0000 0.80627  0.37330  0.52004  Biso   1.000  C
  C637     1.0000 0.01576  0.77026  0.11557  Biso   1.000  C
  C638     1.0000 0.12887  0.98900  0.82281  Biso   1.000  C
  C639     1.0000 0.80689  0.09231  0.02615  Biso   1.000  C
  C640     1.0000 0.50459  0.76578  0.44362  Biso   1.000  C
  C641     1.0000 0.62509  0.01785  0.72578  Biso   1.000  C
  C642     1.0000 0.31019  0.09265  0.53262  Biso   1.000  C
  C643     1.0000 0.51158  0.27403  0.10597  Biso   1.000  C
  C644     1.0000 0.41677  0.50905  0.81486  Biso   1.000  C
  C645     1.0000 0.72476  0.58990  0.03231  Biso   1.000  C
  C646     1.0000 0.00936  0.26951  0.42716  Biso   1.000  C
  C647     1.0000 0.91995  0.50452  0.73249  Biso   1.000  C
  C648     1.0000 0.22740  0.59619  0.53207  Biso   1.000  C
  C649     1.0000 0.01959  0.69097  0.41807  Biso   1.000  C
  C650     1.0000 0.42550  0.98682  0.74303  Biso   1.000  C
  C651     1.0000 0.72704  0.38450  0.03908  Biso   1.000  C
  C652     1.0000 0.51256  0.68555  0.14348  Biso   1.000  C
  C653     1.0000 0.92273  0.00168  0.81099  Biso   1.000  C
  C654     1.0000 0.22775  0.38679  0.52320  Biso   1.000  C
  C655     1.0000 0.52301  0.18161  0.40562  Biso   1.000  C
  C656     1.0000 0.12766  0.49735  0.73127  Biso   1.000  C
  C657     1.0000 0.80569  0.88837  0.02179  Biso   1.000  C
  C658     1.0000 0.01980  0.18974  0.13414  Biso   1.000  C
  C659     1.0000 0.62270  0.51018  0.81374  Biso   1.000  C
  C660     1.0000 0.30363  0.88697  0.55784  Biso   1.000  C
  C661     1.0000 0.01799  0.28066  0.63356  Biso   1.000  C
  C662     1.0000 0.61119  0.97696  0.31273  Biso   1.000  C
  C663     1.0000 0.30600  0.57817  0.03039  Biso   1.000  C
  C664     1.0000 0.52913  0.29144  0.90662  Biso   1.000  C
  C665     1.0000 0.11083  0.97247  0.23572  Biso   1.000  C
  C666     1.0000 0.80575  0.58127  0.51434  Biso   1.000  C
  C667     1.0000 0.53326  0.78578  0.64801  Biso   1.000  C
  C668     1.0000 0.91322  0.48833  0.32225  Biso   1.000  C
  C669     1.0000 0.22283  0.07512  0.01566  Biso   1.000  C
  C670     1.0000 0.00150  0.78438  0.91161  Biso   1.000  C
  C671     1.0000 0.40904  0.47708  0.22974  Biso   1.000  C
  C672     1.0000 0.72907  0.07624  0.52306  Biso   1.000  C
  C673     1.0000 0.22114  0.97795  0.84183  Biso   1.000  C
  C674     1.0000 0.82554  0.18596  0.03123  Biso   1.000  C
  C675     1.0000 0.01048  0.77815  0.20903  Biso   1.000  C
  C676     1.0000 0.71778  0.99838  0.71212  Biso   1.000  C
  C677     1.0000 0.32634  0.18348  0.51773  Biso   1.000  C
  C678     1.0000 0.50883  0.77304  0.34934  Biso   1.000  C
  C679     1.0000 0.32160  0.49723  0.82677  Biso   1.000  C
  C680     1.0000 0.71094  0.68431  0.03582  Biso   1.000  C
  C681     1.0000 0.49937  0.27639  0.20093  Biso   1.000  C
  C682     1.0000 0.82534  0.50349  0.72161  Biso   1.000  C
  C683     1.0000 0.20849  0.68617  0.54893  Biso   1.000  C
  C684     1.0000 0.00656  0.28444  0.33519  Biso   1.000  C
  C685     1.0000 0.81476  0.97024  0.21128  Biso   1.000  C
  C686     1.0000 0.20416  0.77832  0.03416  Biso   1.000  C
  C687     1.0000 0.01663  0.18950  0.83382  Biso   1.000  C
  C688     1.0000 0.31214  0.96972  0.34250  Biso   1.000  C
  C689     1.0000 0.70395  0.78291  0.49827  Biso   1.000  C
  C690     1.0000 0.51918  0.19834  0.70039  Biso   1.000  C
  C691     1.0000 0.70929  0.47873  0.22151  Biso   1.000  C
  C692     1.0000 0.32294  0.28106  0.00473  Biso   1.000  C
  C693     1.0000 0.52728  0.69560  0.84784  Biso   1.000  C
  C694     1.0000 0.21054  0.48109  0.33066  Biso   1.000  C
  C695     1.0000 0.82452  0.28179  0.51810  Biso   1.000  C
  C696     1.0000 0.01085  0.69136  0.71240  Biso   1.000  C
  C697     1.0000 0.70778  0.97223  0.32281  Biso   1.000  C
  C698     1.0000 0.31715  0.67050  0.03607  Biso   1.000  C
  C699     1.0000 0.01439  0.29946  0.72601  Biso   1.000  C
  C700     1.0000 0.20627  0.97231  0.22954  Biso   1.000  C
  C701     1.0000 0.81272  0.67418  0.50197  Biso   1.000  C
  C702     1.0000 0.51730  0.30529  0.81465  Biso   1.000  C
  C703     1.0000 0.81554  0.48235  0.33303  Biso   1.000  C
  C704     1.0000 0.21556  0.16948  0.01380  Biso   1.000  C
  C705     1.0000 0.54281  0.80885  0.74138  Biso   1.000  C
  C706     1.0000 0.31486  0.47949  0.21728  Biso   1.000  C
  C707     1.0000 0.72081  0.16926  0.51540  Biso   1.000  C
  C708     1.0000 0.01105  0.80195  0.82010  Biso   1.000  C
  C709     1.0000 0.33044  0.98573  0.73476  Biso   1.000  C
  C710     1.0000 0.70999  0.29043  0.04184  Biso   1.000  C
  C711     1.0000 0.01619  0.67264  0.32408  Biso   1.000  C
  C712     1.0000 0.82618  0.99680  0.81992  Biso   1.000  C
  C713     1.0000 0.21662  0.29291  0.52287  Biso   1.000  C
  C714     1.0000 0.51755  0.66819  0.23568  Biso   1.000  C
  C715     1.0000 0.22159  0.50038  0.71574  Biso   1.000  C
  C716     1.0000 0.81834  0.79527  0.03513  Biso   1.000  C
  C717     1.0000 0.50427  0.16505  0.31082  Biso   1.000  C
  C718     1.0000 0.71732  0.50128  0.82962  Biso   1.000  C
  C719     1.0000 0.31775  0.79051  0.57032  Biso   1.000  C
  C720     1.0000 0.00802  0.17207  0.22704  Biso   1.000  C
  C721     1.0000 0.53240  0.77441  0.32812  Biso   1.000  C
  C722     1.0000 0.32475  0.51798  0.80252  Biso   1.000  C
  C723     1.0000 0.79444  0.28239  0.52937  Biso   1.000  C
  C724     1.0000 0.99269  0.75286  0.20764  Biso   1.000  C
  C725     1.0000 0.79802  0.51967  0.71626  Biso   1.000  C
  C726     1.0000 0.29398  0.28656  0.99691  Biso   1.000  C
  C727     1.0000 0.99022  0.25677  0.33951  Biso   1.000  C
  C728     1.0000 0.25043  0.99160  0.84784  Biso   1.000  C
  C729     1.0000 0.73291  0.78554  0.51221  Biso   1.000  C
  C730     1.0000 0.47836  0.27472  0.22564  Biso   1.000  C
  C731     1.0000 0.73723  0.97361  0.71516  Biso   1.000  C
  C732     1.0000 0.23432  0.78377  0.02445  Biso   1.000  C
  C733     1.0000 0.50211  0.19599  0.72618  Biso   1.000  C
  C734     1.0000 0.71112  0.45656  0.24247  Biso   1.000  C
  C735     1.0000 0.20888  0.71420  0.53608  Biso   1.000  C
  C736     1.0000 0.99334  0.21074  0.83267  Biso   1.000  C
  C737     1.0000 0.23868  0.46743  0.33230  Biso   1.000  C
  C738     1.0000 0.73535  0.68382  0.05537  Biso   1.000  C
  C739     1.0000 0.03381  0.69501  0.73392  Biso   1.000  C
  C740     1.0000 0.79135  0.95003  0.21027  Biso   1.000  C
  C741     1.0000 0.29846  0.18078  0.50358  Biso   1.000  C
  C742     1.0000 0.54739  0.69353  0.82268  Biso   1.000  C
  C743     1.0000 0.29003  0.94754  0.34288  Biso   1.000  C
  C744     1.0000 0.82806  0.21075  0.05111  Biso   1.000  C
  C745     1.0000 0.03592  0.69726  0.32181  Biso   1.000  C
  C746     1.0000 0.30482  0.00437  0.73349  Biso   1.000  C
  C747     1.0000 0.73725  0.29249  0.05836  Biso   1.000  C
  C748     1.0000 0.53346  0.69625  0.23505  Biso   1.000  C
  C749     1.0000 0.83209  0.98388  0.79178  Biso   1.000  C
  C750     1.0000 0.24246  0.29476  0.54085  Biso   1.000  C
  C751     1.0000 0.51717  0.15993  0.28186  Biso   1.000  C
  C752     1.0000 0.24643  0.47986  0.71550  Biso   1.000  C
  C753     1.0000 0.79594  0.79497  0.01345  Biso   1.000  C
  C754     1.0000 0.02248  0.16773  0.25475  Biso   1.000  C
  C755     1.0000 0.71276  0.49227  0.80009  Biso   1.000  C
  C756     1.0000 0.29075  0.79326  0.58782  Biso   1.000  C
  C757     1.0000 0.99865  0.27214  0.72178  Biso   1.000  C
  C758     1.0000 0.70516  0.99000  0.29635  Biso   1.000  C
  C759     1.0000 0.29072  0.66646  0.05414  Biso   1.000  C
  C760     1.0000 0.52839  0.31194  0.78540  Biso   1.000  C
  C761     1.0000 0.23384  0.98668  0.22800  Biso   1.000  C
  C762     1.0000 0.81744  0.70064  0.48319  Biso   1.000  C
  C763     1.0000 0.52135  0.81335  0.76529  Biso   1.000  C
  C764     1.0000 0.78674  0.49589  0.33488  Biso   1.000  C
  C765     1.0000 0.24282  0.16915  0.03170  Biso   1.000  C
  C766     1.0000 0.99693  0.80691  0.79131  Biso   1.000  C
  C767     1.0000 0.31975  0.49406  0.24477  Biso   1.000  C
  C768     1.0000 0.72095  0.19088  0.49202  Biso   1.000  C
  C769     1.0000 0.50892  0.72184  0.84980  Biso   1.000  C
  C770     1.0000 0.82922  0.49216  0.75132  Biso   1.000  C
  C771     1.0000 0.69841  0.75741  0.48156  Biso   1.000  C
  C772     1.0000 0.98794  0.71151  0.71134  Biso   1.000  C
  C773     1.0000 0.29600  0.47886  0.82804  Biso   1.000  C
  C774     1.0000 0.19877  0.74998  0.04708  Biso   1.000  C
  C775     1.0000 0.03871  0.19018  0.81105  Biso   1.000  C
  C776     1.0000 0.72195  0.02056  0.73374  Biso   1.000  C
  C777     1.0000 0.83283  0.25699  0.50023  Biso   1.000  C
  C778     1.0000 0.53538  0.22516  0.69627  Biso   1.000  C
  C779     1.0000 0.21798  0.96241  0.81406  Biso   1.000  C
  C780     1.0000 0.33063  0.25198  0.01300  Biso   1.000  C
  C781     1.0000 0.51728  0.25105  0.19852  Biso   1.000  C
  C782     1.0000 0.20365  0.49764  0.30497  Biso   1.000  C
  C783     1.0000 0.33333  0.21019  0.53223  Biso   1.000  C
  C784     1.0000 0.02431  0.28579  0.30845  Biso   1.000  C
  C785     1.0000 0.73122  0.50086  0.22084  Biso   1.000  C
  C786     1.0000 0.79863  0.18421  0.01492  Biso   1.000  C
  C787     1.0000 0.03281  0.77943  0.23177  Biso   1.000  C
  C788     1.0000 0.31120  0.99190  0.32064  Biso   1.000  C
  C789     1.0000 0.23263  0.67897  0.56991  Biso   1.000  C
  C790     1.0000 0.49047  0.74825  0.35164  Biso   1.000  C
  C791     1.0000 0.81736  0.98884  0.23652  Biso   1.000  C
  C792     1.0000 0.70973  0.70952  0.01458  Biso   1.000  C
  C793     1.0000 0.49335  0.19346  0.31712  Biso   1.000  C
  C794     1.0000 0.28568  0.46363  0.21408  Biso   1.000  C
  C795     1.0000 0.21490  0.26757  0.50411  Biso   1.000  C
  C796     1.0000 0.99381  0.20097  0.22386  Biso   1.000  C
  C797     1.0000 0.82088  0.46435  0.30762  Biso   1.000  C
  C798     1.0000 0.70653  0.26532  0.02251  Biso   1.000  C
  C799     1.0000 0.99545  0.66901  0.29976  Biso   1.000  C
  C800     1.0000 0.20055  0.95658  0.25692  Biso   1.000  C
  C801     1.0000 0.32206  0.76530  0.55258  Biso   1.000  C
  C802     1.0000 0.50188  0.66228  0.26265  Biso   1.000  C
  C803     1.0000 0.73206  0.95049  0.32368  Biso   1.000  C
  C804     1.0000 0.81743  0.77312  0.05766  Biso   1.000  C
  C805     1.0000 0.55976  0.78352  0.74366  Biso   1.000  C
  C806     1.0000 0.74598  0.51477  0.83610  Biso   1.000  C
  C807     1.0000 0.78253  0.67115  0.51186  Biso   1.000  C
  C808     1.0000 0.02404  0.77270  0.82360  Biso   1.000  C
  C809     1.0000 0.21849  0.52146  0.73868  Biso   1.000  C
  C810     1.0000 0.31989  0.69745  0.01871  Biso   1.000  C
  C811     1.0000 0.03097  0.30333  0.75299  Biso   1.000  C
  C812     1.0000 0.79786  0.00801  0.82495  Biso   1.000  C
  C813     1.0000 0.74663  0.16777  0.53478  Biso   1.000  C
  C814     1.0000 0.50763  0.27650  0.81716  Biso   1.000  C
  C815     1.0000 0.33459  0.96706  0.76011  Biso   1.000  C
  C816     1.0000 0.21047  0.19462  0.99559  Biso   1.000  C
  C817     1.0000 0.99299  0.23194  0.81122  Biso   1.000  C
  C818     1.0000 0.77246  0.94853  0.23446  Biso   1.000  C
  C819     1.0000 0.25538  0.76150  0.02540  Biso   1.000  C
  C820     1.0000 0.50211  0.21675  0.74699  Biso   1.000  C
  C821     1.0000 0.26991  0.94724  0.31999  Biso   1.000  C
  C822     1.0000 0.75423  0.76418  0.50643  Biso   1.000  C
  C823     1.0000 0.54858  0.71598  0.80210  Biso   1.000  C
  C824     1.0000 0.73339  0.45801  0.26391  Biso   1.000  C
  C825     1.0000 0.27308  0.26585  0.99925  Biso   1.000  C
  C826     1.0000 0.03187  0.71758  0.75319  Biso   1.000  C
  C827     1.0000 0.25775  0.46705  0.30972  Biso   1.000  C
  C828     1.0000 0.77783  0.25732  0.52527  Biso   1.000  C
  C829     1.0000 0.99568  0.73137  0.23040  Biso   1.000  C
  C830     1.0000 0.27228  0.99354  0.82520  Biso   1.000  C
  C831     1.0000 0.80515  0.23083  0.05155  Biso   1.000  C
  C832     1.0000 0.53400  0.75336  0.30779  Biso   1.000  C
  C833     1.0000 0.75733  0.97060  0.73655  Biso   1.000  C
  C834     1.0000 0.28015  0.20357  0.50373  Biso   1.000  C
  C835     1.0000 0.48050  0.25367  0.24731  Biso   1.000  C
  C836     1.0000 0.30454  0.51717  0.78026  Biso   1.000  C
  C837     1.0000 0.75452  0.70754  0.05720  Biso   1.000  C
  C838     1.0000 0.99336  0.23420  0.31999  Biso   1.000  C
  C839     1.0000 0.77663  0.52025  0.73638  Biso   1.000  C
  C840     1.0000 0.23113  0.73242  0.54311  Biso   1.000  C
  C841     1.0000 0.24110  0.96304  0.79511  Biso   1.000  C
  C842     1.0000 0.77629  0.20379  0.01861  Biso   1.000  C
  C843     1.0000 0.03194  0.75915  0.25441  Biso   1.000  C
  C844     1.0000 0.74411  0.01829  0.75478  Biso   1.000  C
  C845     1.0000 0.31224  0.23172  0.53356  Biso   1.000  C
  C846     1.0000 0.49290  0.72803  0.32891  Biso   1.000  C
  C847     1.0000 0.27460  0.48315  0.80803  Biso   1.000  C
  C848     1.0000 0.72962  0.73174  0.01644  Biso   1.000  C
  C849     1.0000 0.51794  0.22855  0.21903  Biso   1.000  C
  C850     1.0000 0.80772  0.49721  0.77186  Biso   1.000  C
  C851     1.0000 0.25492  0.69967  0.57563  Biso   1.000  C
  C852     1.0000 0.02746  0.26216  0.28968  Biso   1.000  C
  C853     1.0000 0.79854  0.98613  0.25939  Biso   1.000  C
  C854     1.0000 0.22071  0.72821  0.04831  Biso   1.000  C
  C855     1.0000 0.03819  0.21351  0.79086  Biso   1.000  C
  C856     1.0000 0.28876  0.99345  0.30123  Biso   1.000  C
  C857     1.0000 0.71927  0.73523  0.47801  Biso   1.000  C
  C858     1.0000 0.53637  0.24445  0.71820  Biso   1.000  C
  C859     1.0000 0.75316  0.50087  0.24105  Biso   1.000  C
  C860     1.0000 0.31009  0.22903  0.01288  Biso   1.000  C
  C861     1.0000 0.51009  0.74299  0.82749  Biso   1.000  C
  C862     1.0000 0.22397  0.49894  0.28214  Biso   1.000  C
  C863     1.0000 0.81326  0.23365  0.49620  Biso   1.000  C
  C864     1.0000 0.98674  0.73415  0.73031  Biso   1.000  C
  C865     1.0000 0.73361  0.49811  0.77892  Biso   1.000  C
  C866     1.0000 0.79484  0.71930  0.47861  Biso   1.000  C
  C867     1.0000 0.51665  0.78936  0.78246  Biso   1.000  C
  C868     1.0000 0.26401  0.47935  0.73985  Biso   1.000  C
  C869     1.0000 0.26985  0.68681  0.05187  Biso   1.000  C
  C870     1.0000 0.99555  0.78543  0.77188  Biso   1.000  C
  C871     1.0000 0.81060  0.98307  0.77059  Biso   1.000  C
  C872     1.0000 0.74309  0.21048  0.48949  Biso   1.000  C
  C873     1.0000 0.99755  0.25066  0.74311  Biso   1.000  C
  C874     1.0000 0.28391  0.00001  0.75491  Biso   1.000  C
  C875     1.0000 0.26245  0.18991  0.02885  Biso   1.000  C
  C876     1.0000 0.53084  0.29213  0.76277  Biso   1.000  C
  C877     1.0000 0.29777  0.49549  0.26610  Biso   1.000  C
  C878     1.0000 0.26403  0.27462  0.53765  Biso   1.000  C
  C879     1.0000 0.51452  0.18079  0.25955  Biso   1.000  C
  C880     1.0000 0.76842  0.49517  0.31226  Biso   1.000  C
  C881     1.0000 0.75825  0.27159  0.05583  Biso   1.000  C
  C882     1.0000 0.02210  0.18844  0.27643  Biso   1.000  C
  C883     1.0000 0.25443  0.98502  0.24963  Biso   1.000  C
  C884     1.0000 0.27150  0.77087  0.58627  Biso   1.000  C
  C885     1.0000 0.03424  0.71721  0.30020  Biso   1.000  C
  C886     1.0000 0.72855  0.98840  0.27646  Biso   1.000  C
  C887     1.0000 0.77570  0.77263  0.01365  Biso   1.000  C
  C888     1.0000 0.53075  0.71634  0.25780  Biso   1.000  C
  C889     1.0000 0.75270  0.94873  0.30275  Biso   1.000  C
  C890     1.0000 0.29742  0.71688  0.01741  Biso   1.000  C
  C891     1.0000 0.02753  0.28142  0.77458  Biso   1.000  C
  C892     1.0000 0.21987  0.95586  0.28002  Biso   1.000  C
  C893     1.0000 0.76040  0.69089  0.50493  Biso   1.000  C
  C894     1.0000 0.51026  0.25626  0.79467  Biso   1.000  C
  C895     1.0000 0.80011  0.46261  0.28537  Biso   1.000  C
  C896     1.0000 0.23342  0.21479  0.99257  Biso   1.000  C
  C897     1.0000 0.55581  0.76283  0.76453  Biso   1.000  C
  C898     1.0000 0.26520  0.46816  0.23675  Biso   1.000  C
  C899     1.0000 0.76864  0.18866  0.53122  Biso   1.000  C
  C900     1.0000 0.01948  0.75014  0.80307  Biso   1.000  C
  C901     1.0000 0.31298  0.96319  0.78047  Biso   1.000  C
  C902     1.0000 0.72980  0.24581  0.01922  Biso   1.000  C
  C903     1.0000 0.99703  0.68769  0.27592  Biso   1.000  C
  C904     1.0000 0.77568  0.00670  0.80418  Biso   1.000  C
  C905     1.0000 0.23706  0.24783  0.50360  Biso   1.000  C
  C906     1.0000 0.50185  0.68236  0.28523  Biso   1.000  C
  C907     1.0000 0.23792  0.52117  0.76221  Biso   1.000  C
  C908     1.0000 0.79501  0.75371  0.05776  Biso   1.000  C
  C909     1.0000 0.49227  0.21360  0.29445  Biso   1.000  C
  C910     1.0000 0.76569  0.51898  0.81440  Biso   1.000  C
  C911     1.0000 0.30195  0.74357  0.55128  Biso   1.000  C
  C912     1.0000 0.99515  0.22061  0.24537  Biso   1.000  C
  C913     1.0000 0.78237  0.51199  0.76507  Biso   1.000  C
  C914     1.0000 0.74735  0.74006  0.48928  Biso   1.000  C
  C915     1.0000 0.53063  0.73957  0.80492  Biso   1.000  C
  C916     1.0000 0.28034  0.50171  0.78489  Biso   1.000  C
  C917     1.0000 0.24934  0.73456  0.03801  Biso   1.000  C
  C918     1.0000 0.00863  0.73740  0.75156  Biso   1.000  C
  C919     1.0000 0.76150  0.99329  0.75574  Biso   1.000  C
  C920     1.0000 0.78619  0.23420  0.50873  Biso   1.000  C
  C921     1.0000 0.01486  0.23318  0.79063  Biso   1.000  C
  C922     1.0000 0.26571  0.97905  0.79939  Biso   1.000  C
  C923     1.0000 0.28148  0.23825  0.00895  Biso   1.000  C
  C924     1.0000 0.52019  0.24125  0.74428  Biso   1.000  C
  C925     1.0000 0.25158  0.48552  0.28672  Biso   1.000  C
  C926     1.0000 0.28482  0.22841  0.51914  Biso   1.000  C
  C927     1.0000 0.50010  0.22973  0.24262  Biso   1.000  C
  C928     1.0000 0.75363  0.48076  0.26359  Biso   1.000  C
  C929     1.0000 0.77980  0.22732  0.03642  Biso   1.000  C
  C930     1.0000 0.01145  0.23766  0.29488  Biso   1.000  C
  C931     1.0000 0.26966  0.96942  0.29993  Biso   1.000  C
  C932     1.0000 0.25372  0.72652  0.56215  Biso   1.000  C
  C933     1.0000 0.01449  0.73515  0.25337  Biso   1.000  C
  C934     1.0000 0.77566  0.96706  0.25857  Biso   1.000  C
  C935     1.0000 0.75164  0.73098  0.03793  Biso   1.000  C
  C936     1.0000 0.51347  0.73076  0.30672  Biso   1.000  C
  C937     1.0000 0.75610  0.24793  0.03543  Biso   1.000  C
  C938     1.0000 0.01495  0.71284  0.27802  Biso   1.000  C
  C939     1.0000 0.28797  0.97981  0.77703  Biso   1.000  C
  C940     1.0000 0.26212  0.25084  0.51975  Biso   1.000  C
  C941     1.0000 0.51638  0.70906  0.28408  Biso   1.000  C
  C942     1.0000 0.78374  0.99441  0.77769  Biso   1.000  C
  C943     1.0000 0.77300  0.75316  0.03690  Biso   1.000  C
  C944     1.0000 0.50170  0.20688  0.26637  Biso   1.000  C
  C945     1.0000 0.26032  0.50052  0.76196  Biso   1.000  C
  C946     1.0000 0.27600  0.74857  0.56742  Biso   1.000  C
  C947     1.0000 0.00848  0.21476  0.27119  Biso   1.000  C
  C948     1.0000 0.75898  0.51240  0.78674  Biso   1.000  C
  C949     1.0000 0.27390  0.71282  0.03583  Biso   1.000  C
  C950     1.0000 0.01232  0.25516  0.76876  Biso   1.000  C
  C951     1.0000 0.75170  0.96940  0.28032  Biso   1.000  C
  C952     1.0000 0.76680  0.71504  0.48836  Biso   1.000  C
  C953     1.0000 0.51939  0.26410  0.76657  Biso   1.000  C
  C954     1.0000 0.24622  0.97049  0.27678  Biso   1.000  C
  C955     1.0000 0.25801  0.21416  0.00991  Biso   1.000  C
  C956     1.0000 0.53197  0.76299  0.78266  Biso   1.000  C
  C957     1.0000 0.77498  0.47932  0.28741  Biso   1.000  C
  C958     1.0000 0.76541  0.20972  0.50947  Biso   1.000  C
  C959     1.0000 0.00716  0.75734  0.77671  Biso   1.000  C
  C960     1.0000 0.27099  0.48386  0.26147  Biso   1.000  C
  Cu1      1.0000 0.02506  0.49255  0.67742  Biso   1.000  Cu
  Cu2      1.0000 0.66998  0.97484  0.52046  Biso   1.000  Cu
  Cu3      1.0000 0.51667  0.63631  0.04062  Biso   1.000  Cu
  Cu4      1.0000 0.51780  0.49849  0.86980  Biso   1.000  Cu
  Cu5      1.0000 0.16697  0.97564  0.03255  Biso   1.000  Cu
  Cu6      1.0000 0.01342  0.64054  0.52153  Biso   1.000  Cu
  Cu7      1.0000 0.52419  0.99650  0.68067  Biso   1.000  Cu
  Cu8      1.0000 0.85912  0.47973  0.52619  Biso   1.000  Cu
  Cu9      1.0000 0.02034  0.13646  0.02858  Biso   1.000  Cu
  Cu10     1.0000 0.02303  0.99608  0.86751  Biso   1.000  Cu
  Cu11     1.0000 0.36045  0.47577  0.02280  Biso   1.000  Cu
  Cu12     1.0000 0.52354  0.13595  0.51305  Biso   1.000  Cu
  Cu13     1.0000 0.01525  0.47865  0.37859  Biso   1.000  Cu
  Cu14     1.0000 0.36236  0.98669  0.53611  Biso   1.000  Cu
  Cu15     1.0000 0.51889  0.33831  0.00892  Biso   1.000  Cu
  Cu16     1.0000 0.51198  0.47638  0.17551  Biso   1.000  Cu
  Cu17     1.0000 0.86088  0.98726  0.01925  Biso   1.000  Cu
  Cu18     1.0000 0.01867  0.32906  0.52642  Biso   1.000  Cu
  Cu19     1.0000 0.50902  0.97539  0.36996  Biso   1.000  Cu
  Cu20     1.0000 0.17294  0.49220  0.52610  Biso   1.000  Cu
  Cu21     1.0000 0.01313  0.83167  0.01752  Biso   1.000  Cu
  Cu22     1.0000 0.01107  0.97948  0.17305  Biso   1.000  Cu
  Cu23     1.0000 0.67276  0.48728  0.02480  Biso   1.000  Cu
  Cu24     1.0000 0.51220  0.82913  0.54217  Biso   1.000  Cu
  Cu25     1.0000 0.22136  0.97527  0.03139  Biso   1.000  Cu
  Cu26     1.0000 0.02144  0.19032  0.03112  Biso   1.000  Cu
  Cu27     1.0000 0.00977  0.97430  0.22787  Biso   1.000  Cu
  Cu28     1.0000 0.72387  0.97629  0.51768  Biso   1.000  Cu
  Cu29     1.0000 0.52459  0.18887  0.50730  Biso   1.000  Cu
  Cu30     1.0000 0.50944  0.96628  0.31705  Biso   1.000  Cu
  Cu31     1.0000 0.30616  0.47603  0.01910  Biso   1.000  Cu
  Cu32     1.0000 0.51356  0.69197  0.04324  Biso   1.000  Cu
  Cu33     1.0000 0.51331  0.47050  0.22954  Biso   1.000  Cu
  Cu34     1.0000 0.80446  0.48009  0.52967  Biso   1.000  Cu
  Cu35     1.0000 0.01193  0.69436  0.51873  Biso   1.000  Cu
  Cu36     1.0000 0.01365  0.48053  0.32256  Biso   1.000  Cu
  Cu37     1.0000 0.80533  0.99179  0.01477  Biso   1.000  Cu
  Cu38     1.0000 0.01040  0.77927  0.00944  Biso   1.000  Cu
  Cu39     1.0000 0.02427  0.99712  0.81389  Biso   1.000  Cu
  Cu40     1.0000 0.30790  0.98783  0.53648  Biso   1.000  Cu
  Cu41     1.0000 0.51167  0.77555  0.54560  Biso   1.000  Cu
  Cu42     1.0000 0.52555  0.00405  0.73374  Biso   1.000  Cu
  Cu43     1.0000 0.72752  0.48796  0.02463  Biso   1.000  Cu
  Cu44     1.0000 0.51897  0.28484  0.00545  Biso   1.000  Cu
  Cu45     1.0000 0.51744  0.50613  0.81637  Biso   1.000  Cu
  Cu46     1.0000 0.22761  0.49057  0.52227  Biso   1.000  Cu
  Cu47     1.0000 0.02076  0.27442  0.52768  Biso   1.000  Cu
  Cu48     1.0000 0.02400  0.49204  0.73021  Biso   1.000  Cu
  H1       1.0000 0.25283  0.77297  0.60045  Biso   1.000  H
  H2       1.0000 0.53834  0.30102  0.74184  Biso   1.000  H
  H3       1.0000 0.74686  0.50596  0.31503  Biso   1.000  H
  H4       1.0000 0.75997  0.77130  0.99765  Biso   1.000  H
  H5       1.0000 0.98688  0.22996  0.74062  Biso   1.000  H
  H6       1.0000 0.30288  0.50737  0.28520  Biso   1.000  H
  H7       1.0000 0.28478  0.27970  0.54736  Biso   1.000  H
  H8       1.0000 0.98333  0.78824  0.75255  Biso   1.000  H
  H9       1.0000 0.72881  0.00400  0.25796  Biso   1.000  H
  H10      1.0000 0.77803  0.27611  0.06590  Biso   1.000  H
  H11      1.0000 0.49711  0.79212  0.79651  Biso   1.000  H
  H12      1.0000 0.27506  0.99554  0.24466  Biso   1.000  H
  H13      1.0000 0.74336  0.22914  0.47548  Biso   1.000  H
  H14      1.0000 0.54128  0.73798  0.25372  Biso   1.000  H
  H15      1.0000 0.28067  0.46417  0.74279  Biso   1.000  H
  H16      1.0000 0.28208  0.18977  0.04231  Biso   1.000  H
  H17      1.0000 0.05061  0.73393  0.29974  Biso   1.000  H
  H18      1.0000 0.72851  0.49136  0.75711  Biso   1.000  H
  H19      1.0000 0.79960  0.73934  0.46741  Biso   1.000  H
  H20      1.0000 0.03397  0.18438  0.29579  Biso   1.000  H
  H21      1.0000 0.26283  0.01114  0.75321  Biso   1.000  H
  H22      1.0000 0.24882  0.68196  0.06382  Biso   1.000  H
  H23      1.0000 0.52419  0.17627  0.23785  Biso   1.000  H
  H24      1.0000 0.81309  0.97246  0.75020  Biso   1.000  H
  H25      1.0000 0.29249  0.00553  0.82908  Biso   1.000  H
  H26      1.0000 0.80961  0.25042  0.06449  Biso   1.000  H
  H27      1.0000 0.98481  0.71194  0.22808  Biso   1.000  H
  H28      1.0000 0.77010  0.95141  0.74037  Biso   1.000  H
  H29      1.0000 0.25964  0.19880  0.49294  Biso   1.000  H
  H30      1.0000 0.55287  0.75409  0.29299  Biso   1.000  H
  H31      1.0000 0.30726  0.53195  0.76201  Biso   1.000  H
  H32      1.0000 0.77050  0.70508  0.07523  Biso   1.000  H
  H33      1.0000 0.46568  0.25492  0.26597  Biso   1.000  H
  H34      1.0000 0.75648  0.53033  0.73251  Biso   1.000  H
  H35      1.0000 0.23273  0.75143  0.53073  Biso   1.000  H
  H36      1.0000 0.98287  0.21402  0.32425  Biso   1.000  H
  H37      1.0000 0.75464  0.93284  0.23550  Biso   1.000  H
  H38      1.0000 0.27795  0.76572  0.01908  Biso   1.000  H
  H39      1.0000 0.97476  0.24726  0.81031  Biso   1.000  H
  H40      1.0000 0.25267  0.93150  0.31823  Biso   1.000  H
  H41      1.0000 0.77497  0.76672  0.51733  Biso   1.000  H
  H42      1.0000 0.48771  0.21558  0.76498  Biso   1.000  H
  H43      1.0000 0.73652  0.44118  0.28022  Biso   1.000  H
  H44      1.0000 0.24956  0.26905  0.99852  Biso   1.000  H
  H45      1.0000 0.55899  0.71458  0.78055  Biso   1.000  H
  H46      1.0000 0.27729  0.45395  0.31167  Biso   1.000  H
  H47      1.0000 0.75553  0.25762  0.53636  Biso   1.000  H
  H48      1.0000 0.04861  0.72132  0.76929  Biso   1.000  H
  H49      1.0000 0.21619  0.51062  0.26282  Biso   1.000  H
  H50      1.0000 0.31809  0.24851  0.54791  Biso   1.000  H
  H51      1.0000 0.53441  0.21122  0.21751  Biso   1.000  H
  H52      1.0000 0.77086  0.51590  0.23701  Biso   1.000  H
  H53      1.0000 0.75641  0.20091  0.00583  Biso   1.000  H
  H54      1.0000 0.04175  0.26428  0.27077  Biso   1.000  H
  H55      1.0000 0.28649  0.01196  0.28681  Biso   1.000  H
  H56      1.0000 0.27176  0.69226  0.58843  Biso   1.000  H
  H57      1.0000 0.04867  0.76350  0.27075  Biso   1.000  H
  H58      1.0000 0.80152  0.00109  0.27854  Biso   1.000  H
  H59      1.0000 0.72589  0.75054  0.00316  Biso   1.000  H
  H60      1.0000 0.47691  0.71056  0.32886  Biso   1.000  H
  H61      1.0000 0.80764  0.48490  0.79250  Biso   1.000  H
  H62      1.0000 0.71407  0.71742  0.46255  Biso   1.000  H
  H63      1.0000 0.49636  0.76207  0.82779  Biso   1.000  H
  H64      1.0000 0.25500  0.46893  0.81154  Biso   1.000  H
  H65      1.0000 0.21407  0.70723  0.05784  Biso   1.000  H
  H66      1.0000 0.97202  0.75179  0.72486  Biso   1.000  H
  H67      1.0000 0.74525  0.03792  0.76807  Biso   1.000  H
  H68      1.0000 0.81821  0.21432  0.48440  Biso   1.000  H
  H69      1.0000 0.05257  0.21328  0.77260  Biso   1.000  H
  H70      1.0000 0.23988  0.95158  0.77440  Biso   1.000  H
  H71      1.0000 0.31687  0.20740  0.01876  Biso   1.000  H
  H72      1.0000 0.55132  0.26316  0.71587  Biso   1.000  H
  H73      1.0000 0.78577  0.52922  0.81930  Biso   1.000  H
  H74      1.0000 0.73751  0.68488  0.50833  Biso   1.000  H
  H75      1.0000 0.57218  0.74667  0.76557  Biso   1.000  H
  H76      1.0000 0.23713  0.53863  0.77853  Biso   1.000  H
  H77      1.0000 0.29973  0.73429  0.00171  Biso   1.000  H
  H78      1.0000 0.02852  0.72914  0.80933  Biso   1.000  H
  H79      1.0000 0.75513  0.01593  0.80796  Biso   1.000  H
  H80      1.0000 0.78504  0.19032  0.54747  Biso   1.000  H
  H81      1.0000 0.03607  0.28522  0.79554  Biso   1.000  H
  H82      1.0000 0.31576  0.94819  0.79803  Biso   1.000  H
  H83      1.0000 0.23227  0.23070  0.97538  Biso   1.000  H
  H84      1.0000 0.50631  0.23389  0.79933  Biso   1.000  H
  H85      1.0000 0.24220  0.45906  0.23319  Biso   1.000  H
  H86      1.0000 0.23549  0.23099  0.48872  Biso   1.000  H
  H87      1.0000 0.48021  0.23456  0.29925  Biso   1.000  H
  H88      1.0000 0.80547  0.45214  0.26517  Biso   1.000  H
  H89      1.0000 0.72874  0.22742  0.00376  Biso   1.000  H
  H90      1.0000 0.98348  0.24011  0.24456  Biso   1.000  H
  H91      1.0000 0.21588  0.94340  0.29929  Biso   1.000  H
  H92      1.0000 0.30377  0.72507  0.53657  Biso   1.000  H
  H93      1.0000 0.98175  0.68553  0.25799  Biso   1.000  H
  H94      1.0000 0.76967  0.93177  0.30143  Biso   1.000  H
  H95      1.0000 0.79518  0.73813  0.07507  Biso   1.000  H
  H96      1.0000 0.49114  0.67887  0.30516  Biso   1.000  H
  H97      1.0000 0.88803  0.99029  0.92834  Biso   1.000  H
  H98      1.0000 0.92391  0.85594  0.01928  Biso   1.000  H
  H99      1.0000 0.01496  0.90357  0.88514  Biso   1.000  H
  H100     1.0000 0.38757  0.98895  0.62765  Biso   1.000  H
  H101     1.0000 0.42093  0.85553  0.55954  Biso   1.000  H
  H102     1.0000 0.53418  0.90496  0.66655  Biso   1.000  H
  H103     1.0000 0.64968  0.49015  0.93460  Biso   1.000  H
  H104     1.0000 0.60871  0.35760  0.03220  Biso   1.000  H
  H105     1.0000 0.52139  0.40918  0.88153  Biso   1.000  H
  H106     1.0000 0.15597  0.48824  0.61528  Biso   1.000  H
  H107     1.0000 0.10738  0.35087  0.53088  Biso   1.000  H
  H108     1.0000 0.01760  0.39993  0.65492  Biso   1.000  H
  H109     1.0000 0.14952  0.97844  0.12161  Biso   1.000  H
  H110     1.0000 0.10705  0.11459  0.02840  Biso   1.000  H
  H111     1.0000 0.02492  0.06795  0.16431  Biso   1.000  H
  H112     1.0000 0.64816  0.95857  0.42977  Biso   1.000  H
  H113     1.0000 0.61287  0.11159  0.51549  Biso   1.000  H
  H114     1.0000 0.49994  0.06563  0.38037  Biso   1.000  H
  H115     1.0000 0.37844  0.47710  0.11447  Biso   1.000  H
  H116     1.0000 0.42595  0.60797  0.03228  Biso   1.000  H
  H117     1.0000 0.52427  0.56829  0.16709  Biso   1.000  H
  H118     1.0000 0.87965  0.47763  0.43673  Biso   1.000  H
  H119     1.0000 0.92146  0.61870  0.51605  Biso   1.000  H
  H120     1.0000 0.02017  0.57253  0.39604  Biso   1.000  H
  H121     1.0000 0.10753  0.98150  0.89283  Biso   1.000  H
  H122     1.0000 0.87960  0.07939  0.01668  Biso   1.000  H
  H123     1.0000 0.00936  0.84408  0.10734  Biso   1.000  H
  H124     1.0000 0.61164  0.00697  0.65009  Biso   1.000  H
  H125     1.0000 0.38378  0.07592  0.52530  Biso   1.000  H
  H126     1.0000 0.51286  0.84184  0.45043  Biso   1.000  H
  H127     1.0000 0.42720  0.49190  0.88933  Biso   1.000  H
  H128     1.0000 0.64913  0.58061  0.03508  Biso   1.000  H
  H129     1.0000 0.50441  0.34954  0.10280  Biso   1.000  H
  H130     1.0000 0.92895  0.48839  0.65827  Biso   1.000  H
  H131     1.0000 0.15298  0.58295  0.52040  Biso   1.000  H
  H132     1.0000 0.00953  0.34419  0.43679  Biso   1.000  H
  H133     1.0000 0.92049  0.98707  0.15007  Biso   1.000  H
  H134     1.0000 0.14958  0.88612  0.03299  Biso   1.000  H
  H135     1.0000 0.02930  0.12605  0.93764  Biso   1.000  H
  H136     1.0000 0.42601  0.96754  0.39293  Biso   1.000  H
  H137     1.0000 0.64906  0.88806  0.51847  Biso   1.000  H
  H138     1.0000 0.52579  0.12358  0.60708  Biso   1.000  H
  H139     1.0000 0.60758  0.47652  0.15672  Biso   1.000  H
  H140     1.0000 0.38034  0.39053  0.01154  Biso   1.000  H
  H141     1.0000 0.51917  0.62526  0.94769  Biso   1.000  H
  H142     1.0000 0.10756  0.47950  0.39437  Biso   1.000  H
  H143     1.0000 0.88048  0.38779  0.52770  Biso   1.000  H
  H144     1.0000 0.00362  0.62240  0.61594  Biso   1.000  H
  H145     1.0000 0.61152  0.49678  0.88862  Biso   1.000  H
  H146     1.0000 0.87828  0.57368  0.52405  Biso   1.000  H
  H147     1.0000 0.52773  0.86038  0.62969  Biso   1.000  H
  H148     1.0000 0.11639  0.48961  0.65634  Biso   1.000  H
  H149     1.0000 0.38053  0.56624  0.02283  Biso   1.000  H
  H150     1.0000 0.99923  0.85992  0.92568  Biso   1.000  H
  H151     1.0000 0.92892  0.98910  0.88484  Biso   1.000  H
  H152     1.0000 0.65226  0.06892  0.51918  Biso   1.000  H
  H153     1.0000 0.02295  0.35655  0.61654  Biso   1.000  H
  H154     1.0000 0.43246  0.98686  0.66893  Biso   1.000  H
  H155     1.0000 0.14762  0.07050  0.02280  Biso   1.000  H
  H156     1.0000 0.52889  0.36465  0.92157  Biso   1.000  H
  H157     1.0000 0.42018  0.48087  0.15386  Biso   1.000  H
  H158     1.0000 0.15270  0.39685  0.52972  Biso   1.000  H
  H159     1.0000 0.51111  0.10929  0.42004  Biso   1.000  H
  H160     1.0000 0.92026  0.47974  0.39747  Biso   1.000  H
  H161     1.0000 0.65258  0.39848  0.04387  Biso   1.000  H
  H162     1.0000 0.02791  0.11329  0.12268  Biso   1.000  H
  H163     1.0000 0.10354  0.97599  0.15939  Biso   1.000  H
  H164     1.0000 0.37755  0.89834  0.55537  Biso   1.000  H
  H165     1.0000 0.02614  0.61582  0.43121  Biso   1.000  H
  H166     1.0000 0.60343  0.97226  0.38907  Biso   1.000  H
  H167     1.0000 0.88291  0.89684  0.01506  Biso   1.000  H
  H168     1.0000 0.52065  0.60838  0.13307  Biso   1.000  H
  H169     1.0000 0.03860  0.08713  0.89365  Biso   1.000  H
  H170     1.0000 0.87235  0.97955  0.10649  Biso   1.000  H
  H171     1.0000 0.10293  0.84820  0.02908  Biso   1.000  H
  H172     1.0000 0.51525  0.08667  0.64935  Biso   1.000  H
  H173     1.0000 0.38166  0.96741  0.44385  Biso   1.000  H
  H174     1.0000 0.60593  0.84972  0.52658  Biso   1.000  H
  H175     1.0000 0.51708  0.58823  0.90376  Biso   1.000  H
  H176     1.0000 0.64846  0.48615  0.11855  Biso   1.000  H
  H177     1.0000 0.42450  0.35435  0.00298  Biso   1.000  H
  H178     1.0000 0.01725  0.58099  0.65681  Biso   1.000  H
  H179     1.0000 0.14758  0.47994  0.43496  Biso   1.000  H
  H180     1.0000 0.92440  0.34846  0.53967  Biso   1.000  H
  H181     1.0000 0.00190  0.88581  0.14870  Biso   1.000  H
  H182     1.0000 0.14917  0.96674  0.94075  Biso   1.000  H
  H183     1.0000 0.92544  0.11839  0.01824  Biso   1.000  H
  H184     1.0000 0.51575  0.88493  0.40164  Biso   1.000  H
  H185     1.0000 0.65256  0.98752  0.60941  Biso   1.000  H
  H186     1.0000 0.43155  0.11841  0.51870  Biso   1.000  H
  H187     1.0000 0.49786  0.38831  0.14952  Biso   1.000  H
  H188     1.0000 0.38299  0.49707  0.93152  Biso   1.000  H
  H189     1.0000 0.61026  0.62073  0.04370  Biso   1.000  H
  H190     1.0000 0.01413  0.38888  0.39597  Biso   1.000  H
  H191     1.0000 0.88528  0.48463  0.61695  Biso   1.000  H
  H192     1.0000 0.10558  0.62289  0.52248  Biso   1.000  H
  H193     1.0000 0.28327  0.84349  0.56338  Biso   1.000  H
  H194     1.0000 0.52777  0.27103  0.86356  Biso   1.000  H
  H195     1.0000 0.86970  0.48794  0.30051  Biso   1.000  H
  H196     1.0000 0.78330  0.84631  0.02945  Biso   1.000  H
  H197     1.0000 0.01926  0.26132  0.67529  Biso   1.000  H
  H198     1.0000 0.36877  0.47505  0.25152  Biso   1.000  H
  H199     1.0000 0.25186  0.34332  0.52006  Biso   1.000  H
  H200     1.0000 0.00106  0.76750  0.86793  Biso   1.000  H
  H201     1.0000 0.65444  0.97806  0.28924  Biso   1.000  H
  H202     1.0000 0.74653  0.34148  0.04171  Biso   1.000  H
  H203     1.0000 0.54390  0.76692  0.69100  Biso   1.000  H
  H204     1.0000 0.15265  0.97477  0.25838  Biso   1.000  H
  H205     1.0000 0.74945  0.12191  0.52757  Biso   1.000  H
  H206     1.0000 0.51437  0.70378  0.18893  Biso   1.000  H
  H207     1.0000 0.17242  0.49985  0.75103  Biso   1.000  H
  H208     1.0000 0.24624  0.11790  0.01189  Biso   1.000  H
  H209     1.0000 0.01685  0.71013  0.37607  Biso   1.000  H
  H210     1.0000 0.66763  0.51312  0.79698  Biso   1.000  H
  H211     1.0000 0.78148  0.62119  0.50582  Biso   1.000  H
  H212     1.0000 0.00690  0.20748  0.17470  Biso   1.000  H
  H213     1.0000 0.38507  0.98471  0.76609  Biso   1.000  H
  H214     1.0000 0.28363  0.61898  0.03199  Biso   1.000  H
  H215     1.0000 0.52492  0.20289  0.36214  Biso   1.000  H
  H216     1.0000 0.88342  0.00516  0.78759  Biso   1.000  H
  H217     1.0000 0.24626  0.48035  0.38129  Biso   1.000  H
  H218     1.0000 0.38022  0.21444  0.50405  Biso   1.000  H
  H219     1.0000 0.49834  0.32085  0.23856  Biso   1.000  H
  H220     1.0000 0.74531  0.48093  0.16795  Biso   1.000  H
  H221     1.0000 0.87743  0.21677  0.03142  Biso   1.000  H
  H222     1.0000 0.00500  0.33604  0.29893  Biso   1.000  H
  H223     1.0000 0.28277  0.96357  0.39757  Biso   1.000  H
  H224     1.0000 0.15388  0.71623  0.55322  Biso   1.000  H
  H225     1.0000 0.00039  0.83039  0.24316  Biso   1.000  H
  H226     1.0000 0.77779  0.97018  0.16145  Biso   1.000  H
  H227     1.0000 0.66017  0.71957  0.04587  Biso   1.000  H
  H228     1.0000 0.51465  0.82409  0.31054  Biso   1.000  H
  H229     1.0000 0.78967  0.49225  0.67116  Biso   1.000  H
  H230     1.0000 0.65018  0.75075  0.50138  Biso   1.000  H
  H231     1.0000 0.52611  0.64968  0.81035  Biso   1.000  H
  H232     1.0000 0.28568  0.49025  0.87839  Biso   1.000  H
  H233     1.0000 0.14684  0.74628  0.02957  Biso   1.000  H
  H234     1.0000 0.01420  0.63478  0.74956  Biso   1.000  H
  H235     1.0000 0.75015  0.98440  0.66197  Biso   1.000  H
  H236     1.0000 0.87902  0.24757  0.52415  Biso   1.000  H
  H237     1.0000 0.00967  0.13954  0.79906  Biso   1.000  H
  H238     1.0000 0.24939  0.96010  0.89417  Biso   1.000  H
  H239     1.0000 0.37836  0.25377  0.98956  Biso   1.000  H
  H240     1.0000 0.51180  0.14662  0.74076  Biso   1.000  H
  H241     1.0000 0.74869  0.48561  0.88104  Biso   1.000  H
  H242     1.0000 0.86414  0.71252  0.50799  Biso   1.000  H
  H243     1.0000 0.54455  0.86313  0.76859  Biso   1.000  H
  H244     1.0000 0.25560  0.49517  0.66509  Biso   1.000  H
  H245     1.0000 0.36694  0.70379  0.03394  Biso   1.000  H
  H246     1.0000 0.02112  0.85237  0.78618  Biso   1.000  H
  H247     1.0000 0.79161  0.99027  0.87291  Biso   1.000  H
  H248     1.0000 0.66946  0.20459  0.50620  Biso   1.000  H
  H249     1.0000 0.01288  0.35203  0.75795  Biso   1.000  H
  H250     1.0000 0.29236  0.98719  0.68492  Biso   1.000  H
  H251     1.0000 0.16813  0.20423  0.02231  Biso   1.000  H
  H252     1.0000 0.50776  0.36135  0.78220  Biso   1.000  H
  H253     1.0000 0.28329  0.48107  0.16759  Biso   1.000  H
  H254     1.0000 0.16543  0.25928  0.52599  Biso   1.000  H
  H255     1.0000 0.49329  0.11057  0.28017  Biso   1.000  H
  H256     1.0000 0.78248  0.47823  0.38428  Biso   1.000  H
  H257     1.0000 0.65783  0.25861  0.04136  Biso   1.000  H
  H258     1.0000 0.00041  0.11374  0.25947  Biso   1.000  H
  H259     1.0000 0.24559  0.97394  0.17639  Biso   1.000  H
  H260     1.0000 0.36883  0.75809  0.56731  Biso   1.000  H
  H261     1.0000 0.01563  0.62213  0.29881  Biso   1.000  H
  H262     1.0000 0.74194  0.97882  0.37293  Biso   1.000  H
  H263     1.0000 0.86843  0.76140  0.03943  Biso   1.000  H
  H264     1.0000 0.52340  0.60953  0.26643  Biso   1.000  H
  H265     1.0000 0.00444  0.22197  0.88777  Biso   1.000  H
  H266     1.0000 0.86654  0.96766  0.24513  Biso   1.000  H
  H267     1.0000 0.24039  0.82877  0.04501  Biso   1.000  H
  H268     1.0000 0.51469  0.22532  0.64826  Biso   1.000  H
  H269     1.0000 0.35823  0.96661  0.30465  Biso   1.000  H
  H270     1.0000 0.73824  0.83350  0.48502  Biso   1.000  H
  H271     1.0000 0.52619  0.72559  0.90178  Biso   1.000  H
  H272     1.0000 0.65678  0.46230  0.25504  Biso   1.000  H
  H273     1.0000 0.28881  0.32882  0.02697  Biso   1.000  H
  H274     1.0000 0.00464  0.72468  0.65976  Biso   1.000  H
  H275     1.0000 0.15625  0.47396  0.29562  Biso   1.000  H
  H276     1.0000 0.78904  0.33023  0.51279  Biso   1.000  H
  H277     1.0000 0.01336  0.74616  0.15729  Biso   1.000  H
  H278     1.0000 0.17106  0.98671  0.80256  Biso   1.000  H
  H279     1.0000 0.78882  0.13673  0.03085  Biso   1.000  H
  H280     1.0000 0.50472  0.74213  0.40535  Biso   1.000  H
  H281     1.0000 0.66706  0.01512  0.74593  Biso   1.000  H
  H282     1.0000 0.29056  0.13659  0.53060  Biso   1.000  H
  H283     1.0000 0.51032  0.24815  0.14487  Biso   1.000  H
  H284     1.0000 0.37422  0.50988  0.79480  Biso   1.000  H
  H285     1.0000 0.74483  0.63277  0.03889  Biso   1.000  H
  H286     1.0000 0.00674  0.24855  0.38746  Biso   1.000  H
  H287     1.0000 0.87995  0.51333  0.75400  Biso   1.000  H
  H288     1.0000 0.24373  0.63920  0.54271  Biso   1.000  H
  H289     1.0000 0.11322  0.20899  0.01943  Biso   1.000  H
  H290     1.0000 0.01472  0.05928  0.25555  Biso   1.000  H
  H291     1.0000 0.24660  0.98369  0.12284  Biso   1.000  H
  H292     1.0000 0.61534  0.20683  0.50534  Biso   1.000  H
  H293     1.0000 0.48591  0.05794  0.28870  Biso   1.000  H
  H294     1.0000 0.74339  0.97456  0.42764  Biso   1.000  H
  H295     1.0000 0.42361  0.70656  0.03429  Biso   1.000  H
  H296     1.0000 0.52407  0.55849  0.26071  Biso   1.000  H
  H297     1.0000 0.28216  0.47359  0.10986  Biso   1.000  H
  H298     1.0000 0.92009  0.71233  0.50788  Biso   1.000  H
  H299     1.0000 0.02179  0.56392  0.30144  Biso   1.000  H
  H300     1.0000 0.78363  0.47931  0.43961  Biso   1.000  H
  H301     1.0000 0.92552  0.76367  0.04120  Biso   1.000  H
  H302     1.0000 0.02786  0.90600  0.78943  Biso   1.000  H
  H303     1.0000 0.79119  0.98803  0.92788  Biso   1.000  H
  H304     1.0000 0.42247  0.75962  0.56157  Biso   1.000  H
  H305     1.0000 0.54065  0.91489  0.76287  Biso   1.000  H
  H306     1.0000 0.29227  0.98223  0.62712  Biso   1.000  H
  H307     1.0000 0.60521  0.26133  0.04038  Biso   1.000  H
  H308     1.0000 0.50857  0.41615  0.78744  Biso   1.000  H
  H309     1.0000 0.74567  0.47766  0.93733  Biso   1.000  H
  H310     1.0000 0.11082  0.25698  0.52815  Biso   1.000  H
  H311     1.0000 0.01741  0.40933  0.75065  Biso   1.000  H
  H312     1.0000 0.25388  0.48770  0.61059  Biso   1.000  H
  H313     1.0000 0.24388  0.95057  0.94779  Biso   1.000  H
  H314     1.0000 0.93740  0.21425  0.03214  Biso   1.000  H
  H315     1.0000 0.00350  0.88512  0.24397  Biso   1.000  H
  H316     1.0000 0.75013  0.97502  0.60860  Biso   1.000  H
  H317     1.0000 0.43397  0.21405  0.49893  Biso   1.000  H
  H318     1.0000 0.52059  0.87989  0.30695  Biso   1.000  H
  H319     1.0000 0.29045  0.47100  0.93001  Biso   1.000  H
  H320     1.0000 0.60384  0.71797  0.05202  Biso   1.000  H
  H321     1.0000 0.49727  0.37915  0.24404  Biso   1.000  H
  H322     1.0000 0.78955  0.48222  0.62067  Biso   1.000  H
  H323     1.0000 0.09840  0.71454  0.54410  Biso   1.000  H
  H324     1.0000 0.00970  0.39030  0.29926  Biso   1.000  H
  H325     1.0000 0.77569  0.97344  0.10768  Biso   1.000  H
  H326     1.0000 0.09500  0.75257  0.02648  Biso   1.000  H
  H327     1.0000 0.01829  0.08417  0.79799  Biso   1.000  H
  H328     1.0000 0.28697  0.96216  0.44954  Biso   1.000  H
  H329     1.0000 0.59808  0.75301  0.51487  Biso   1.000  H
  H330     1.0000 0.50678  0.09276  0.74401  Biso   1.000  H
  H331     1.0000 0.74103  0.49314  0.11477  Biso   1.000  H
  H332     1.0000 0.43074  0.26160  0.97957  Biso   1.000  H
  H333     1.0000 0.52941  0.59539  0.80675  Biso   1.000  H
  H334     1.0000 0.24572  0.48625  0.43572  Biso   1.000  H
  H335     1.0000 0.93136  0.25174  0.53683  Biso   1.000  H
  H336     1.0000 0.02212  0.58830  0.75171  Biso   1.000  H
  H337     1.0000 0.00365  0.21849  0.94330  Biso   1.000  H
  H338     1.0000 0.92061  0.97519  0.24400  Biso   1.000  H
  H339     1.0000 0.24139  0.88238  0.05048  Biso   1.000  H
  H340     1.0000 0.52214  0.21928  0.59363  Biso   1.000  H
  H341     1.0000 0.41363  0.96090  0.29771  Biso   1.000  H
  H342     1.0000 0.74236  0.88711  0.49533  Biso   1.000  H
  H343     1.0000 0.52378  0.72128  0.95833  Biso   1.000  H
  H344     1.0000 0.60448  0.45893  0.25325  Biso   1.000  H
  H345     1.0000 0.28599  0.38502  0.02915  Biso   1.000  H
  H346     1.0000 0.00238  0.71809  0.60775  Biso   1.000  H
  H347     1.0000 0.10261  0.47517  0.29801  Biso   1.000  H
  H348     1.0000 0.78395  0.38296  0.51919  Biso   1.000  H
  H349     1.0000 0.01838  0.74954  0.10336  Biso   1.000  H
  H350     1.0000 0.11897  0.99465  0.80208  Biso   1.000  H
  H351     1.0000 0.78794  0.08003  0.02832  Biso   1.000  H
  H352     1.0000 0.50420  0.74477  0.45651  Biso   1.000  H
  H353     1.0000 0.61490  0.02123  0.74666  Biso   1.000  H
  H354     1.0000 0.29024  0.07882  0.53300  Biso   1.000  H
  H355     1.0000 0.51237  0.25601  0.09035  Biso   1.000  H
  H356     1.0000 0.42710  0.51145  0.79397  Biso   1.000  H
  H357     1.0000 0.74627  0.57747  0.03144  Biso   1.000  H
  H358     1.0000 0.01173  0.24737  0.43778  Biso   1.000  H
  H359     1.0000 0.93257  0.50810  0.75264  Biso   1.000  H
  H360     1.0000 0.24815  0.58489  0.53080  Biso   1.000  H
  H361     1.0000 0.01847  0.71211  0.42669  Biso   1.000  H
  H362     1.0000 0.44063  0.98730  0.76022  Biso   1.000  H
  H363     1.0000 0.74872  0.39349  0.04174  Biso   1.000  H
  H364     1.0000 0.50960  0.70483  0.13026  Biso   1.000  H
  H365     1.0000 0.93359  0.00386  0.79110  Biso   1.000  H
  H366     1.0000 0.24841  0.39977  0.52230  Biso   1.000  H
  H367     1.0000 0.52869  0.20154  0.41543  Biso   1.000  H
  H368     1.0000 0.12017  0.50074  0.75310  Biso   1.000  H
  H369     1.0000 0.78604  0.90079  0.01772  Biso   1.000  H
  H370     1.0000 0.02224  0.21139  0.12408  Biso   1.000  H
  H371     1.0000 0.61211  0.51703  0.79282  Biso   1.000  H
  H372     1.0000 0.28369  0.89958  0.55630  Biso   1.000  H
  H373     1.0000 0.01724  0.25943  0.62586  Biso   1.000  H
  H374     1.0000 0.59878  0.97754  0.29294  Biso   1.000  H
  H375     1.0000 0.28605  0.56627  0.03576  Biso   1.000  H
  H376     1.0000 0.52882  0.27152  0.91768  Biso   1.000  H
  H377     1.0000 0.09816  0.97325  0.25587  Biso   1.000  H
  H378     1.0000 0.78666  0.56758  0.51406  Biso   1.000  H
  H379     1.0000 0.52733  0.76478  0.63742  Biso   1.000  H
  H380     1.0000 0.92409  0.49378  0.30277  Biso   1.000  H
  H381     1.0000 0.24208  0.06090  0.01370  Biso   1.000  H
  H382     1.0000 0.99927  0.76338  0.92202  Biso   1.000  H
  H383     1.0000 0.42135  0.47693  0.24949  Biso   1.000  H
  H384     1.0000 0.74998  0.06560  0.52121  Biso   1.000  H
  H385     1.0000 0.24494  0.45176  0.34898  Biso   1.000  H
  H386     1.0000 0.29163  0.16129  0.49236  Biso   1.000  H
  H387     1.0000 0.46010  0.29201  0.22928  Biso   1.000  H
  H388     1.0000 0.69624  0.43938  0.24018  Biso   1.000  H
  H389     1.0000 0.84472  0.21479  0.06738  Biso   1.000  H
  H390     1.0000 0.97400  0.25370  0.35606  Biso   1.000  H
  H391     1.0000 0.28928  0.92956  0.35752  Biso   1.000  H
  H392     1.0000 0.19351  0.72035  0.51926  Biso   1.000  H
  H393     1.0000 0.97843  0.74987  0.18955  Biso   1.000  H
  H394     1.0000 0.79019  0.93578  0.19207  Biso   1.000  H
  H395     1.0000 0.73642  0.66864  0.07332  Biso   1.000  H
  H396     1.0000 0.54870  0.79005  0.33063  Biso   1.000  H
  H397     1.0000 0.79511  0.53039  0.69516  Biso   1.000  H
  H398     1.0000 0.73623  0.80393  0.52557  Biso   1.000  H
  H399     1.0000 0.56276  0.67475  0.82164  Biso   1.000  H
  H400     1.0000 0.34112  0.53335  0.80256  Biso   1.000  H
  H401     1.0000 0.24036  0.80336  0.01114  Biso   1.000  H
  H402     1.0000 0.05127  0.67756  0.73498  Biso   1.000  H
  H403     1.0000 0.73255  0.95537  0.69946  Biso   1.000  H
  H404     1.0000 0.78753  0.29869  0.54458  Biso   1.000  H
  H405     1.0000 0.97518  0.20971  0.84664  Biso   1.000  H
  H406     1.0000 0.25187  0.00394  0.86755  Biso   1.000  H
  H407     1.0000 0.28851  0.30656  0.98743  Biso   1.000  H
  H408     1.0000 0.48549  0.17805  0.73005  Biso   1.000  H
  H409     1.0000 0.28062  0.45114  0.19733  Biso   1.000  H
  H410     1.0000 0.19613  0.26434  0.49019  Biso   1.000  H
  H411     1.0000 0.48485  0.19941  0.33821  Biso   1.000  H
  H412     1.0000 0.84013  0.45101  0.30504  Biso   1.000  H
  H413     1.0000 0.68702  0.26207  0.00965  Biso   1.000  H
  H414     1.0000 0.98111  0.20602  0.20544  Biso   1.000  H
  H415     1.0000 0.18344  0.94125  0.25752  Biso   1.000  H
  H416     1.0000 0.34117  0.76061  0.53984  Biso   1.000  H
  H417     1.0000 0.97763  0.65320  0.29925  Biso   1.000  H
  H418     1.0000 0.73223  0.93704  0.34217  Biso   1.000  H
  H419     1.0000 0.83422  0.77074  0.07494  Biso   1.000  H
  H420     1.0000 0.49029  0.64277  0.26635  Biso   1.000  H
  H421     1.0000 0.75197  0.52133  0.85884  Biso   1.000  H
  H422     1.0000 0.77567  0.65363  0.52604  Biso   1.000  H
  H423     1.0000 0.57404  0.77960  0.72526  Biso   1.000  H
  H424     1.0000 0.20322  0.53922  0.73874  Biso   1.000  H
  H425     1.0000 0.33786  0.70085  0.00315  Biso   1.000  H
  H426     1.0000 0.03517  0.76834  0.84366  Biso   1.000  H
  H427     1.0000 0.79237  0.02241  0.84440  Biso   1.000  H
  H428     1.0000 0.74848  0.15266  0.55356  Biso   1.000  H
  H429     1.0000 0.04493  0.32081  0.76065  Biso   1.000  H
  H430     1.0000 0.35322  0.95113  0.76016  Biso   1.000  H
  H431     1.0000 0.19111  0.19574  0.98369  Biso   1.000  H
  H432     1.0000 0.49927  0.26888  0.83770  Biso   1.000  H
  H433     1.0000 0.29946  0.02039  0.71607  Biso   1.000  H
  H434     1.0000 0.74195  0.30900  0.07399  Biso   1.000  H
  H435     1.0000 0.05279  0.70110  0.33714  Biso   1.000  H
  H436     1.0000 0.85257  0.97244  0.78775  Biso   1.000  H
  H437     1.0000 0.24812  0.31169  0.55571  Biso   1.000  H
  H438     1.0000 0.54543  0.70436  0.21569  Biso   1.000  H
  H439     1.0000 0.24912  0.46038  0.70004  Biso   1.000  H
  H440     1.0000 0.79439  0.81087  0.99694  Biso   1.000  H
  H441     1.0000 0.52840  0.13915  0.27636  Biso   1.000  H
  H442     1.0000 0.69402  0.47845  0.79586  Biso   1.000  H
  H443     1.0000 0.28666  0.81215  0.60082  Biso   1.000  H
  H444     1.0000 0.03583  0.14836  0.25901  Biso   1.000  H
  H445     1.0000 0.68728  0.00519  0.29524  Biso   1.000  H
  H446     1.0000 0.28931  0.64738  0.06779  Biso   1.000  H
  H447     1.0000 0.98663  0.27060  0.70165  Biso   1.000  H
  H448     1.0000 0.23872  0.99809  0.20891  Biso   1.000  H
  H449     1.0000 0.83830  0.70581  0.47197  Biso   1.000  H
  H450     1.0000 0.53568  0.33414  0.77950  Biso   1.000  H
  H451     1.0000 0.77837  0.50922  0.35206  Biso   1.000  H
  H452     1.0000 0.24748  0.15315  0.04791  Biso   1.000  H
  H453     1.0000 0.50623  0.83114  0.76665  Biso   1.000  H
  H454     1.0000 0.33971  0.50569  0.24680  Biso   1.000  H
  H455     1.0000 0.70476  0.19228  0.47486  Biso   1.000  H
  H456     1.0000 0.98580  0.82861  0.78770  Biso   1.000  H
  H457     1.0000 0.67700  0.75478  0.46947  Biso   1.000  H
  H458     1.0000 0.49515  0.72624  0.86876  Biso   1.000  H
  H459     1.0000 0.84956  0.48093  0.75748  Biso   1.000  H
  H460     1.0000 0.17947  0.74504  0.05819  Biso   1.000  H
  H461     1.0000 0.96871  0.70925  0.69781  Biso   1.000  H
  H462     1.0000 0.29382  0.46179  0.84249  Biso   1.000  H
  H463     1.0000 0.85335  0.25803  0.48803  Biso   1.000  H
  H464     1.0000 0.05496  0.17350  0.80740  Biso   1.000  H
  H465     1.0000 0.70856  0.03973  0.73724  Biso   1.000  H
  H466     1.0000 0.35209  0.24607  0.01954  Biso   1.000  H
  H467     1.0000 0.54974  0.22676  0.67690  Biso   1.000  H
  H468     1.0000 0.19819  0.94953  0.80817  Biso   1.000  H
  H469     1.0000 0.35264  0.21236  0.54557  Biso   1.000  H
  H470     1.0000 0.53146  0.24924  0.18002  Biso   1.000  H
  H471     1.0000 0.18183  0.50664  0.30128  Biso   1.000  H
  H472     1.0000 0.79567  0.16785  0.99820  Biso   1.000  H
  H473     1.0000 0.04009  0.30353  0.30405  Biso   1.000  H
  H474     1.0000 0.73016  0.51880  0.20659  Biso   1.000  H
  H475     1.0000 0.23217  0.65996  0.58421  Biso   1.000  H
  H476     1.0000 0.04747  0.79663  0.23277  Biso   1.000  H
  H477     1.0000 0.32795  0.00867  0.32143  Biso   1.000  H
  H478     1.0000 0.69090  0.71131  0.99991  Biso   1.000  H
  H479     1.0000 0.47319  0.74615  0.36682  Biso   1.000  H
  H480     1.0000 0.83513  0.00646  0.23951  Biso   1.000  H
  N1       1.0000 0.69883  0.15124  0.51809  Biso   1.000  N
  N2       1.0000 0.51697  0.65048  0.21513  Biso   1.000  N
  N3       1.0000 0.20200  0.49776  0.69715  Biso   1.000  N
  N4       1.0000 0.19561  0.15249  0.01794  Biso   1.000  N
  N5       1.0000 0.01710  0.65461  0.34437  Biso   1.000  N
  N6       1.0000 0.69763  0.49932  0.84888  Biso   1.000  N
  N7       1.0000 0.83434  0.65782  0.50663  Biso   1.000  N
  N8       1.0000 0.01033  0.15219  0.20737  Biso   1.000  N
  N9       1.0000 0.34814  0.98656  0.71420  Biso   1.000  N
  N10      1.0000 0.33743  0.65115  0.03448  Biso   1.000  N
  N11      1.0000 0.50556  0.14716  0.33212  Biso   1.000  N
  N12      1.0000 0.84492  0.99568  0.84089  Biso   1.000  N
  N13      1.0000 0.33526  0.81152  0.56715  Biso   1.000  N
  N14      1.0000 0.51935  0.32464  0.83430  Biso   1.000  N
  N15      1.0000 0.83469  0.48166  0.35150  Biso   1.000  N
  N16      1.0000 0.83771  0.81462  0.03404  Biso   1.000  N
  N17      1.0000 0.01636  0.31817  0.70597  Biso   1.000  N
  N18      1.0000 0.33489  0.47515  0.19911  Biso   1.000  N
  N19      1.0000 0.19603  0.31221  0.52299  Biso   1.000  N
  N20      1.0000 0.01100  0.82122  0.83979  Biso   1.000  N
  N21      1.0000 0.68753  0.97183  0.34174  Biso   1.000  N
  N22      1.0000 0.69200  0.31150  0.04161  Biso   1.000  N
  N23      1.0000 0.54365  0.82561  0.71849  Biso   1.000  N
  N24      1.0000 0.18909  0.97251  0.20755  Biso   1.000  N
  N25      1.0000 0.84480  0.50043  0.70179  Biso   1.000  N
  N26      1.0000 0.68535  0.80305  0.50016  Biso   1.000  N
  N27      1.0000 0.52427  0.67543  0.86637  Biso   1.000  N
  N28      1.0000 0.34120  0.49675  0.84508  Biso   1.000  N
  N29      1.0000 0.18525  0.79865  0.03584  Biso   1.000  N
  N30      1.0000 0.00961  0.67050  0.69505  Biso   1.000  N
  N31      1.0000 0.69920  0.99876  0.69247  Biso   1.000  N
  N32      1.0000 0.84400  0.30107  0.52194  Biso   1.000  N
  N33      1.0000 0.01698  0.17088  0.85434  Biso   1.000  N
  N34      1.0000 0.20041  0.97757  0.85923  Biso   1.000  N
  N35      1.0000 0.34148  0.30063  0.00637  Biso   1.000  N
  N36      1.0000 0.51873  0.17509  0.68519  Biso   1.000  N
  N37      1.0000 0.19193  0.47692  0.34964  Biso   1.000  N
  N38      1.0000 0.34556  0.16361  0.51936  Biso   1.000  N
  N39      1.0000 0.49894  0.29805  0.18381  Biso   1.000  N
  N40      1.0000 0.68975  0.47722  0.20242  Biso   1.000  N
  N41      1.0000 0.84426  0.16606  0.02895  Biso   1.000  N
  N42      1.0000 0.00560  0.30428  0.35361  Biso   1.000  N
  N43      1.0000 0.33305  0.96897  0.36098  Biso   1.000  N
  N44      1.0000 0.18864  0.66781  0.54367  Biso   1.000  N
  N45      1.0000 0.00723  0.79884  0.19101  Biso   1.000  N
  N46      1.0000 0.83365  0.97191  0.19158  Biso   1.000  N
  N47      1.0000 0.69105  0.66493  0.03960  Biso   1.000  N
  N48      1.0000 0.50843  0.79454  0.36681  Biso   1.000  N
  O1       1.0000 0.35696  0.51746  0.02667  Biso   1.000  O
  O2       1.0000 0.02507  0.32614  0.56775  Biso   1.000  O
  O3       1.0000 0.54996  0.97985  0.36532  Biso   1.000  O
  O4       1.0000 0.85419  0.52202  0.52916  Biso   1.000  O
  O5       1.0000 0.52797  0.34192  0.96870  Biso   1.000  O
  O6       1.0000 0.05366  0.97320  0.17849  Biso   1.000  O
  O7       1.0000 0.17025  0.01633  0.02133  Biso   1.000  O
  O8       1.0000 0.51579  0.83317  0.58512  Biso   1.000  O
  O9       1.0000 0.97205  0.47905  0.37592  Biso   1.000  O
  O10      1.0000 0.67272  0.01818  0.51650  Biso   1.000  O
  O11      1.0000 0.01004  0.82966  0.97574  Biso   1.000  O
  O12      1.0000 0.47130  0.48056  0.17789  Biso   1.000  O
  O13      1.0000 0.67687  0.44519  0.03130  Biso   1.000  O
  O14      1.0000 0.02042  0.64155  0.47879  Biso   1.000  O
  O15      1.0000 0.48345  0.98906  0.68859  Biso   1.000  O
  O16      1.0000 0.17681  0.44812  0.52875  Biso   1.000  O
  O17      1.0000 0.51269  0.63453  0.08190  Biso   1.000  O
  O18      1.0000 0.98064  0.99991  0.86629  Biso   1.000  O
  O19      1.0000 0.85817  0.94567  0.01880  Biso   1.000  O
  O20      1.0000 0.52373  0.13383  0.46961  Biso   1.000  O
  O21      1.0000 0.06609  0.48882  0.67942  Biso   1.000  O
  O22      1.0000 0.35667  0.94530  0.54692  Biso   1.000  O
  O23      1.0000 0.02264  0.13727  0.07132  Biso   1.000  O
  O24      1.0000 0.56163  0.49580  0.86328  Biso   1.000  O
  O25      1.0000 0.97027  0.98211  0.17546  Biso   1.000  O
  O26      1.0000 0.17141  0.93493  0.04066  Biso   1.000  O
  O27      1.0000 0.01321  0.14256  0.98787  Biso   1.000  O
  O28      1.0000 0.46729  0.97008  0.36644  Biso   1.000  O
  O29      1.0000 0.67491  0.93364  0.52365  Biso   1.000  O
  O30      1.0000 0.52779  0.14084  0.55399  Biso   1.000  O
  O31      1.0000 0.55495  0.46884  0.18073  Biso   1.000  O
  O32      1.0000 0.35804  0.43421  0.02004  Biso   1.000  O
  O33      1.0000 0.52140  0.64584  0.99996  Biso   1.000  O
  O34      1.0000 0.05652  0.47886  0.37406  Biso   1.000  O
  O35      1.0000 0.85708  0.43597  0.52676  Biso   1.000  O
  O36      1.0000 0.00737  0.64484  0.56218  Biso   1.000  O
  O37      1.0000 0.06471  0.99145  0.86788  Biso   1.000  O
  O38      1.0000 0.85647  0.03076  0.02380  Biso   1.000  O
  O39      1.0000 0.01322  0.82520  0.05709  Biso   1.000  O
  O40      1.0000 0.56401  0.00203  0.67812  Biso   1.000  O
  O41      1.0000 0.35833  0.02952  0.52460  Biso   1.000  O
  O42      1.0000 0.50771  0.82462  0.49902  Biso   1.000  O
  O43      1.0000 0.47865  0.49963  0.86509  Biso   1.000  O
  O44      1.0000 0.67261  0.53117  0.02226  Biso   1.000  O
  O45      1.0000 0.50895  0.33251  0.04998  Biso   1.000  O
  O46      1.0000 0.98187  0.49871  0.68234  Biso   1.000  O
  O47      1.0000 0.17839  0.53349  0.52438  Biso   1.000  O
  O48      1.0000 0.01486  0.32475  0.48427  Biso   1.000  O
  O49      1.0000 0.00462  0.93523  0.17340  Biso   1.000  O
  O50      1.0000 0.16954  0.96999  0.99153  Biso   1.000  O
  O51      1.0000 0.97897  0.13986  0.03174  Biso   1.000  O
  O52      1.0000 0.51452  0.93340  0.37431  Biso   1.000  O
  O53      1.0000 0.67500  0.97759  0.56036  Biso   1.000  O
  O54      1.0000 0.48152  0.14248  0.51440  Biso   1.000  O
  O55      1.0000 0.50523  0.43364  0.17451  Biso   1.000  O
  O56      1.0000 0.36159  0.47869  0.97840  Biso   1.000  O
  O57      1.0000 0.55824  0.64169  0.04503  Biso   1.000  O
  O58      1.0000 0.01593  0.43855  0.37339  Biso   1.000  O
  O59      1.0000 0.85890  0.47384  0.56900  Biso   1.000  O
  O60      1.0000 0.05536  0.64361  0.52563  Biso   1.000  O
  O61      1.0000 0.02816  0.03752  0.86913  Biso   1.000  O
  O62      1.0000 0.85259  0.98243  0.05978  Biso   1.000  O
  O63      1.0000 0.05644  0.82828  0.01782  Biso   1.000  O
  O64      1.0000 0.51558  0.03832  0.67665  Biso   1.000  O
  O65      1.0000 0.36174  0.97688  0.49448  Biso   1.000  O
  O66      1.0000 0.55593  0.82681  0.53926  Biso   1.000  O
  O67      1.0000 0.51964  0.54026  0.87355  Biso   1.000  O
  O68      1.0000 0.67060  0.49087  0.06801  Biso   1.000  O
  O69      1.0000 0.47625  0.33226  0.00182  Biso   1.000  O
  O70      1.0000 0.02982  0.53334  0.68193  Biso   1.000  O
  O71      1.0000 0.17423  0.49263  0.48240  Biso   1.000  O
  O72      1.0000 0.97700  0.32629  0.53262  Biso   1.000  O
  O73      1.0000 0.01906  0.45154  0.67752  Biso   1.000  O
  O74      1.0000 0.67216  0.97475  0.47764  Biso   1.000  O
  O75      1.0000 0.47381  0.63750  0.03779  Biso   1.000  O
  O76      1.0000 0.51636  0.45929  0.86152  Biso   1.000  O
  O77      1.0000 0.17443  0.98474  0.07395  Biso   1.000  O
  O78      1.0000 0.97214  0.64339  0.51355  Biso   1.000  O
  O79      1.0000 0.53400  0.95652  0.68481  Biso   1.000  O
  O80      1.0000 0.85526  0.48122  0.48637  Biso   1.000  O
  O81      1.0000 0.06113  0.13874  0.02682  Biso   1.000  O
  O82      1.0000 0.01622  0.95561  0.86075  Biso   1.000  O
  O83      1.0000 0.35698  0.47573  0.06489  Biso   1.000  O
  O84      1.0000 0.56448  0.13591  0.50829  Biso   1.000  O
  O85      1.0000 0.01563  0.52094  0.37444  Biso   1.000  O
  O86      1.0000 0.35941  0.99564  0.57772  Biso   1.000  O
  O87      1.0000 0.56030  0.33519  0.01825  Biso   1.000  O
  O88      1.0000 0.51542  0.51649  0.18252  Biso   1.000  O
  O89      1.0000 0.86082  0.98994  0.97780  Biso   1.000  O
  O90      1.0000 0.06143  0.32849  0.52441  Biso   1.000  O
  O91      1.0000 0.50299  0.01609  0.36375  Biso   1.000  O
  O92      1.0000 0.17794  0.49216  0.56775  Biso   1.000  O
  O93      1.0000 0.97449  0.83104  0.02389  Biso   1.000  O
  O94      1.0000 0.01731  0.02017  0.18188  Biso   1.000  O
  O95      1.0000 0.67416  0.48162  0.98247  Biso   1.000  O
  O96      1.0000 0.47187  0.82864  0.54783  Biso   1.000  O
  O97      1.0000 0.48361  0.19071  0.50316  Biso   1.000  O
  O98      1.0000 0.50744  0.42970  0.22250  Biso   1.000  O
  O99      1.0000 0.22261  0.49567  0.48144  Biso   1.000  O
  O100     1.0000 0.97936  0.18841  0.03523  Biso   1.000  O
  O101     1.0000 0.01723  0.43963  0.32467  Biso   1.000  O
  O102     1.0000 0.71954  0.49379  0.06767  Biso   1.000  O
  O103     1.0000 0.05350  0.69295  0.52536  Biso   1.000  O
  O104     1.0000 0.00289  0.93548  0.22227  Biso   1.000  O
  O105     1.0000 0.31282  0.97828  0.49626  Biso   1.000  O
  O106     1.0000 0.55668  0.68952  0.04591  Biso   1.000  O
  O107     1.0000 0.51451  0.92521  0.32642  Biso   1.000  O
  O108     1.0000 0.80410  0.98905  0.05790  Biso   1.000  O
  O109     1.0000 0.55347  0.77862  0.53428  Biso   1.000  O
  O110     1.0000 0.51862  0.54657  0.82415  Biso   1.000  O
  O111     1.0000 0.81110  0.47629  0.57124  Biso   1.000  O
  O112     1.0000 0.05198  0.77984  0.00672  Biso   1.000  O
  O113     1.0000 0.02465  0.53700  0.73030  Biso   1.000  O
  O114     1.0000 0.31228  0.47970  0.97812  Biso   1.000  O
  O115     1.0000 0.97966  0.27720  0.53088  Biso   1.000  O
  O116     1.0000 0.02688  0.03843  0.82000  Biso   1.000  O
  O117     1.0000 0.72276  0.97891  0.55753  Biso   1.000  O
  O118     1.0000 0.47939  0.28641  0.99011  Biso   1.000  O
  O119     1.0000 0.51475  0.04186  0.72430  Biso   1.000  O
  O120     1.0000 0.21800  0.96933  0.99225  Biso   1.000  O
  O121     1.0000 0.06542  0.48867  0.72786  Biso   1.000  O
  O122     1.0000 0.72188  0.01704  0.51220  Biso   1.000  O
  O123     1.0000 0.50956  0.68491  0.08351  Biso   1.000  O
  O124     1.0000 0.55988  0.50425  0.81593  Biso   1.000  O
  O125     1.0000 0.21876  0.01605  0.02275  Biso   1.000  O
  O126     1.0000 0.02211  0.69064  0.47789  Biso   1.000  O
  O127     1.0000 0.48257  0.99367  0.73694  Biso   1.000  O
  O128     1.0000 0.80531  0.52324  0.52941  Biso   1.000  O
  O129     1.0000 0.02558  0.18686  0.07189  Biso   1.000  O
  O130     1.0000 0.98186  0.00234  0.81765  Biso   1.000  O
  O131     1.0000 0.30806  0.51936  0.02077  Biso   1.000  O
  O132     1.0000 0.52267  0.18317  0.46480  Biso   1.000  O
  O133     1.0000 0.97196  0.47977  0.32797  Biso   1.000  O
  O134     1.0000 0.30867  0.94668  0.54559  Biso   1.000  O
  O135     1.0000 0.53051  0.29348  0.96800  Biso   1.000  O
  O136     1.0000 0.47007  0.47795  0.22687  Biso   1.000  O
  O137     1.0000 0.81112  0.95027  0.01305  Biso   1.000  O
  O138     1.0000 0.02140  0.27887  0.57074  Biso   1.000  O
  O139     1.0000 0.55103  0.97271  0.31841  Biso   1.000  O
  O140     1.0000 0.22477  0.44812  0.52343  Biso   1.000  O
  O141     1.0000 0.00736  0.78119  0.96888  Biso   1.000  O
  O142     1.0000 0.05101  0.96929  0.22645  Biso   1.000  O
  O143     1.0000 0.72631  0.44501  0.02804  Biso   1.000  O
  O144     1.0000 0.52324  0.78507  0.58562  Biso   1.000  O
  O145     1.0000 0.55479  0.46364  0.22938  Biso   1.000  O
  O146     1.0000 0.22749  0.53410  0.52500  Biso   1.000  O
  O147     1.0000 0.52344  0.18898  0.54823  Biso   1.000  O
  O148     1.0000 0.05351  0.48334  0.32606  Biso   1.000  O
  O149     1.0000 0.72210  0.53020  0.02375  Biso   1.000  O
  O150     1.0000 0.01857  0.19210  0.99100  Biso   1.000  O
  O151     1.0000 0.96750  0.98507  0.22313  Biso   1.000  O
  O152     1.0000 0.30981  0.03093  0.53332  Biso   1.000  O
  O153     1.0000 0.00143  0.69286  0.56040  Biso   1.000  O
  O154     1.0000 0.46694  0.96277  0.31848  Biso   1.000  O
  O155     1.0000 0.80909  0.03400  0.01530  Biso   1.000  O
  O156     1.0000 0.51314  0.69291  0.00199  Biso   1.000  O
  O157     1.0000 0.47574  0.51163  0.81757  Biso   1.000  O
  O158     1.0000 0.80896  0.43769  0.52742  Biso   1.000  O
  O159     1.0000 0.50710  0.77408  0.50479  Biso   1.000  O
  O160     1.0000 0.98096  0.49562  0.73096  Biso   1.000  O
  O161     1.0000 0.30880  0.43430  0.01899  Biso   1.000  O
  O162     1.0000 0.01652  0.77531  0.05224  Biso   1.000  O
  O163     1.0000 0.06834  0.99528  0.81917  Biso   1.000  O
  O164     1.0000 0.72280  0.93527  0.51658  Biso   1.000  O
  O165     1.0000 0.01596  0.27511  0.48601  Biso   1.000  O
  O166     1.0000 0.56644  0.01126  0.72542  Biso   1.000  O
  O167     1.0000 0.21956  0.93328  0.03861  Biso   1.000  O
  O168     1.0000 0.50663  0.28453  0.04686  Biso   1.000  O
  O169     1.0000 0.01452  0.01424  0.22960  Biso   1.000  O
  O170     1.0000 0.22248  0.98405  0.07355  Biso   1.000  O
  O171     1.0000 0.06389  0.18727  0.02780  Biso   1.000  O
  O172     1.0000 0.50299  0.00952  0.31486  Biso   1.000  O
  O173     1.0000 0.72147  0.97701  0.47607  Biso   1.000  O
  O174     1.0000 0.56683  0.18593  0.50629  Biso   1.000  O
  O175     1.0000 0.52103  0.51004  0.23041  Biso   1.000  O
  O176     1.0000 0.30830  0.47314  0.06191  Biso   1.000  O
  O177     1.0000 0.47229  0.68593  0.03846  Biso   1.000  O
  O178     1.0000 0.00934  0.52145  0.32565  Biso   1.000  O
  O179     1.0000 0.80693  0.48210  0.48772  Biso   1.000  O
  O180     1.0000 0.96897  0.69173  0.51169  Biso   1.000  O
  O181     1.0000 0.02097  0.95490  0.81155  Biso   1.000  O
  O182     1.0000 0.81019  0.99260  0.97335  Biso   1.000  O
  O183     1.0000 0.96979  0.78239  0.01656  Biso   1.000  O
  O184     1.0000 0.53658  0.96352  0.73258  Biso   1.000  O
  O185     1.0000 0.31071  0.99553  0.57971  Biso   1.000  O
  O186     1.0000 0.47189  0.78041  0.55368  Biso   1.000  O
  O187     1.0000 0.51077  0.46444  0.81536  Biso   1.000  O
  O188     1.0000 0.72373  0.48891  0.98353  Biso   1.000  O
  O189     1.0000 0.55831  0.28509  0.01834  Biso   1.000  O
  O190     1.0000 0.02114  0.45032  0.72628  Biso   1.000  O
  O191     1.0000 0.22708  0.49252  0.56399  Biso   1.000  O
  O192     1.0000 0.06226  0.27918  0.52691  Biso   1.000  O
