data_image0
_cell_length_a       47.72
_cell_length_b       46.6087
_cell_length_c       46.5619
_cell_angle_alpha    90
_cell_angle_beta     90
_cell_angle_gamma    90

_symmetry_space_group_name_H-M    "P 1"
_symmetry_int_tables_number       1

loop_
  _symmetry_equiv_pos_as_xyz
  'x, y, z'

loop_
  _atom_site_label
  _atom_site_occupancy
  _atom_site_fract_x
  _atom_site_fract_y
  _atom_site_fract_z
  _atom_site_thermal_displace_type
  _atom_site_B_iso_or_equiv
  _atom_site_type_symbol
  C1       1.0000 0.57736  0.96128  0.36068  Biso   1.000  C
  C2       1.0000 0.33683  0.51791  0.02650  Biso   1.000  C
  C3       1.0000 0.03455  0.27594  0.58333  Biso   1.000  C
  C4       1.0000 0.07460  0.96887  0.21701  Biso   1.000  C
  C5       1.0000 0.83935  0.50762  0.53186  Biso   1.000  C
  C6       1.0000 0.51880  0.28828  0.97547  Biso   1.000  C
  C7       1.0000 0.96169  0.46754  0.34917  Biso   1.000  C
  C8       1.0000 0.20024  0.02323  0.03464  Biso   1.000  C
  C9       1.0000 0.50512  0.78458  0.59141  Biso   1.000  C
  C10      1.0000 0.46852  0.45732  0.21025  Biso   1.000  C
  C11      1.0000 0.70563  0.00570  0.52486  Biso   1.000  C
  C12      1.0000 0.01153  0.78855  0.97532  Biso   1.000  C
  C13      1.0000 0.46552  0.97455  0.70593  Biso   1.000  C
  C14      1.0000 0.70568  0.41730  0.02689  Biso   1.000  C
  C15      1.0000 0.01299  0.64351  0.48145  Biso   1.000  C
  C16      1.0000 0.96764  0.96188  0.84957  Biso   1.000  C
  C17      1.0000 0.21024  0.41836  0.53007  Biso   1.000  C
  C18      1.0000 0.52119  0.64409  0.08965  Biso   1.000  C
  C19      1.0000 0.08564  0.45525  0.71088  Biso   1.000  C
  C20      1.0000 0.84202  0.91320  0.03930  Biso   1.000  C
  C21      1.0000 0.53915  0.14545  0.47840  Biso   1.000  C
  C22      1.0000 0.58085  0.48007  0.84899  Biso   1.000  C
  C23      1.0000 0.33223  0.92117  0.52941  Biso   1.000  C
  C24      1.0000 0.01814  0.14552  0.08653  Biso   1.000  C
  C25      1.0000 0.34687  0.02790  0.51469  Biso   1.000  C
  C26      1.0000 0.54115  0.28259  0.08071  Biso   1.000  C
  C27      1.0000 0.06811  0.45881  0.35307  Biso   1.000  C
  C28      1.0000 0.83422  0.02149  0.03061  Biso   1.000  C
  C29      1.0000 0.03568  0.27847  0.47536  Biso   1.000  C
  C30      1.0000 0.57527  0.45436  0.21135  Biso   1.000  C
  C31      1.0000 0.20307  0.52513  0.53639  Biso   1.000  C
  C32      1.0000 0.02603  0.78182  0.08441  Biso   1.000  C
  C33      1.0000 0.46951  0.95920  0.34776  Biso   1.000  C
  C34      1.0000 0.69685  0.52693  0.03854  Biso   1.000  C
  C35      1.0000 0.50863  0.78410  0.48144  Biso   1.000  C
  C36      1.0000 0.96606  0.96128  0.20898  Biso   1.000  C
  C37      1.0000 0.70161  0.89906  0.55091  Biso   1.000  C
  C38      1.0000 0.50839  0.64820  0.98103  Biso   1.000  C
  C39      1.0000 0.97706  0.46298  0.71192  Biso   1.000  C
  C40      1.0000 0.19790  0.91263  0.02893  Biso   1.000  C
  C41      1.0000 0.01559  0.64147  0.58866  Biso   1.000  C
  C42      1.0000 0.47285  0.46921  0.85137  Biso   1.000  C
  C43      1.0000 0.84845  0.39979  0.53220  Biso   1.000  C
  C44      1.0000 0.02426  0.14758  0.97572  Biso   1.000  C
  C45      1.0000 0.57167  0.96371  0.71620  Biso   1.000  C
  C46      1.0000 0.34009  0.40880  0.04379  Biso   1.000  C
  C47      1.0000 0.53645  0.15264  0.58363  Biso   1.000  C
  C48      1.0000 0.07556  0.96033  0.84610  Biso   1.000  C
  C49      1.0000 0.02620  0.01825  0.84973  Biso   1.000  C
  C50      1.0000 0.83759  0.97140  0.08751  Biso   1.000  C
  C51      1.0000 0.07382  0.78717  0.01837  Biso   1.000  C
  C52      1.0000 0.52067  0.02410  0.71125  Biso   1.000  C
  C53      1.0000 0.33924  0.96580  0.47255  Biso   1.000  C
  C54      1.0000 0.56334  0.78386  0.53391  Biso   1.000  C
  C55      1.0000 0.52260  0.52580  0.85398  Biso   1.000  C
  C56      1.0000 0.70396  0.46463  0.08792  Biso   1.000  C
  C57      1.0000 0.47159  0.28508  0.04070  Biso   1.000  C
  C58      1.0000 0.03540  0.51482  0.71255  Biso   1.000  C
  C59      1.0000 0.20005  0.47245  0.47631  Biso   1.000  C
  C60      1.0000 0.98030  0.27819  0.53465  Biso   1.000  C
  C61      1.0000 0.02273  0.91196  0.21261  Biso   1.000  C
  C62      1.0000 0.20175  0.97094  0.97373  Biso   1.000  C
  C63      1.0000 0.96569  0.15026  0.03187  Biso   1.000  C
  C64      1.0000 0.52169  0.90505  0.35143  Biso   1.000  C
  C65      1.0000 0.70519  0.96692  0.58994  Biso   1.000  C
  C66      1.0000 0.48391  0.14987  0.53101  Biso   1.000  C
  C67      1.0000 0.52118  0.40330  0.20962  Biso   1.000  C
  C68      1.0000 0.33969  0.45737  0.98205  Biso   1.000  C
  C69      1.0000 0.56997  0.64986  0.02702  Biso   1.000  C
  C70      1.0000 0.00887  0.41131  0.35401  Biso   1.000  C
  C71      1.0000 0.85102  0.45802  0.58788  Biso   1.000  C
  C72      1.0000 0.06753  0.64475  0.53326  Biso   1.000  C
  C73      1.0000 0.02095  0.52217  0.35072  Biso   1.000  C
  C74      1.0000 0.34116  0.97880  0.57835  Biso   1.000  C
  C75      1.0000 0.58245  0.28574  0.01682  Biso   1.000  C
  C76      1.0000 0.52315  0.51301  0.21306  Biso   1.000  C
  C77      1.0000 0.83816  0.96526  0.97840  Biso   1.000  C
  C78      1.0000 0.08727  0.28110  0.53154  Biso   1.000  C
  C79      1.0000 0.52509  0.01526  0.35463  Biso   1.000  C
  C80      1.0000 0.20877  0.47279  0.58771  Biso   1.000  C
  C81      1.0000 0.96636  0.78477  0.03895  Biso   1.000  C
  C82      1.0000 0.01324  0.02074  0.21216  Biso   1.000  C
  C83      1.0000 0.70291  0.47677  0.97849  Biso   1.000  C
  C84      1.0000 0.45503  0.79188  0.53893  Biso   1.000  C
  C85      1.0000 0.02945  0.40700  0.71125  Biso   1.000  C
  C86      1.0000 0.70407  0.94042  0.48325  Biso   1.000  C
  C87      1.0000 0.46125  0.64224  0.04092  Biso   1.000  C
  C88      1.0000 0.52991  0.41817  0.85069  Biso   1.000  C
  C89      1.0000 0.19829  0.96507  0.08329  Biso   1.000  C
  C90      1.0000 0.95720  0.64236  0.53602  Biso   1.000  C
  C91      1.0000 0.51271  0.91729  0.71304  Biso   1.000  C
  C92      1.0000 0.84215  0.45037  0.47967  Biso   1.000  C
  C93      1.0000 0.07315  0.14421  0.03891  Biso   1.000  C
  C94      1.0000 0.02009  0.90747  0.84508  Biso   1.000  C
  C95      1.0000 0.33616  0.46825  0.09025  Biso   1.000  C
  C96      1.0000 0.59104  0.14033  0.52841  Biso   1.000  C
  C97      1.0000 0.70821  0.03707  0.52371  Biso   1.000  C
  C98      1.0000 0.52100  0.64351  0.12205  Biso   1.000  C
  C99      1.0000 0.11786  0.45378  0.71288  Biso   1.000  C
  C100     1.0000 0.20017  0.05591  0.03563  Biso   1.000  C
  C101     1.0000 0.01394  0.64491  0.44957  Biso   1.000  C
  C102     1.0000 0.61346  0.48137  0.84905  Biso   1.000  C
  C103     1.0000 0.83888  0.53992  0.52996  Biso   1.000  C
  C104     1.0000 0.01691  0.14676  0.11883  Biso   1.000  C
  C105     1.0000 0.43274  0.97990  0.70531  Biso   1.000  C
  C106     1.0000 0.33623  0.54938  0.02328  Biso   1.000  C
  C107     1.0000 0.54129  0.14632  0.44657  Biso   1.000  C
  C108     1.0000 0.93480  0.96400  0.85147  Biso   1.000  C
  C109     1.0000 0.32926  0.88959  0.52672  Biso   1.000  C
  C110     1.0000 0.52063  0.28890  0.94257  Biso   1.000  C
  C111     1.0000 0.93108  0.46406  0.34813  Biso   1.000  C
  C112     1.0000 0.84074  0.88044  0.03933  Biso   1.000  C
  C113     1.0000 0.04064  0.27763  0.61489  Biso   1.000  C
  C114     1.0000 0.43627  0.45501  0.21210  Biso   1.000  C
  C115     1.0000 0.21014  0.38597  0.52566  Biso   1.000  C
  C116     1.0000 0.01105  0.78814  0.94241  Biso   1.000  C
  C117     1.0000 0.61019  0.96458  0.36214  Biso   1.000  C
  C118     1.0000 0.70756  0.38510  0.02629  Biso   1.000  C
  C119     1.0000 0.49735  0.78688  0.62299  Biso   1.000  C
  C120     1.0000 0.10733  0.96712  0.21811  Biso   1.000  C
  C121     1.0000 0.83947  0.97147  0.11960  Biso   1.000  C
  C122     1.0000 0.10587  0.78619  0.01638  Biso   1.000  C
  C123     1.0000 0.03069  0.05041  0.84926  Biso   1.000  C
  C124     1.0000 0.33982  0.96019  0.44022  Biso   1.000  C
  C125     1.0000 0.59418  0.78034  0.53953  Biso   1.000  C
  C126     1.0000 0.52328  0.05660  0.71053  Biso   1.000  C
  C127     1.0000 0.70338  0.46569  0.12046  Biso   1.000  C
  C128     1.0000 0.43849  0.28467  0.04753  Biso   1.000  C
  C129     1.0000 0.51838  0.55642  0.85499  Biso   1.000  C
  C130     1.0000 0.19814  0.47281  0.44474  Biso   1.000  C
  C131     1.0000 0.94808  0.27766  0.53761  Biso   1.000  C
  C132     1.0000 0.03692  0.54765  0.71403  Biso   1.000  C
  C133     1.0000 0.20184  0.97197  0.94130  Biso   1.000  C
  C134     1.0000 0.93270  0.15093  0.03578  Biso   1.000  C
  C135     1.0000 0.02140  0.87886  0.21359  Biso   1.000  C
  C136     1.0000 0.70456  0.96748  0.62219  Biso   1.000  C
  C137     1.0000 0.45163  0.14941  0.52955  Biso   1.000  C
  C138     1.0000 0.51703  0.87228  0.35017  Biso   1.000  C
  C139     1.0000 0.34183  0.45776  0.94879  Biso   1.000  C
  C140     1.0000 0.60168  0.65106  0.02443  Biso   1.000  C
  C141     1.0000 0.52485  0.37185  0.21016  Biso   1.000  C
  C142     1.0000 0.85231  0.45832  0.61917  Biso   1.000  C
  C143     1.0000 0.10061  0.64572  0.53283  Biso   1.000  C
  C144     1.0000 0.00695  0.37827  0.35514  Biso   1.000  C
  C145     1.0000 0.33897  0.47128  0.12377  Biso   1.000  C
  C146     1.0000 0.11885  0.28143  0.52690  Biso   1.000  C
  C147     1.0000 0.52423  0.04717  0.35435  Biso   1.000  C
  C148     1.0000 0.83940  0.44674  0.44740  Biso   1.000  C
  C149     1.0000 0.61348  0.28673  0.01379  Biso   1.000  C
  C150     1.0000 0.01234  0.05233  0.21105  Biso   1.000  C
  C151     1.0000 0.19868  0.96459  0.11605  Biso   1.000  C
  C152     1.0000 0.42312  0.79402  0.53739  Biso   1.000  C
  C153     1.0000 0.02535  0.55398  0.35247  Biso   1.000  C
  C154     1.0000 0.70622  0.94175  0.45166  Biso   1.000  C
  C155     1.0000 0.93333  0.78515  0.04106  Biso   1.000  C
  C156     1.0000 0.52283  0.54492  0.21302  Biso   1.000  C
  C157     1.0000 0.70492  0.47546  0.94664  Biso   1.000  C
  C158     1.0000 0.92543  0.64201  0.53807  Biso   1.000  C
  C159     1.0000 0.50893  0.88560  0.71441  Biso   1.000  C
  C160     1.0000 0.21133  0.47468  0.61987  Biso   1.000  C
  C161     1.0000 0.42999  0.64412  0.03582  Biso   1.000  C
  C162     1.0000 0.01575  0.87506  0.84432  Biso   1.000  C
  C163     1.0000 0.83701  0.96103  0.94591  Biso   1.000  C
  C164     1.0000 0.62188  0.13897  0.52751  Biso   1.000  C
  C165     1.0000 0.02999  0.37508  0.71006  Biso   1.000  C
  C166     1.0000 0.33896  0.98451  0.61062  Biso   1.000  C
  C167     1.0000 0.10464  0.14541  0.04198  Biso   1.000  C
  C168     1.0000 0.53125  0.38620  0.84916  Biso   1.000  C
  C169     1.0000 0.02942  0.78226  0.11668  Biso   1.000  C
  C170     1.0000 0.10725  0.96505  0.84751  Biso   1.000  C
  C171     1.0000 0.83546  0.05399  0.03420  Biso   1.000  C
  C172     1.0000 0.51029  0.78054  0.44926  Biso   1.000  C
  C173     1.0000 0.60438  0.95975  0.71652  Biso   1.000  C
  C174     1.0000 0.35216  0.06022  0.51380  Biso   1.000  C
  C175     1.0000 0.54548  0.28068  0.11261  Biso   1.000  C
  C176     1.0000 0.44132  0.46668  0.85243  Biso   1.000  C
  C177     1.0000 0.69585  0.55796  0.04575  Biso   1.000  C
  C178     1.0000 0.03626  0.28137  0.44421  Biso   1.000  C
  C179     1.0000 0.94656  0.45709  0.71552  Biso   1.000  C
  C180     1.0000 0.20194  0.55717  0.53754  Biso   1.000  C
  C181     1.0000 0.02796  0.14661  0.94348  Biso   1.000  C
  C182     1.0000 0.93434  0.96495  0.20971  Biso   1.000  C
  C183     1.0000 0.19961  0.88076  0.02908  Biso   1.000  C
  C184     1.0000 0.53885  0.15325  0.61499  Biso   1.000  C
  C185     1.0000 0.43807  0.96538  0.34507  Biso   1.000  C
  C186     1.0000 0.69839  0.86635  0.54744  Biso   1.000  C
  C187     1.0000 0.50691  0.65063  0.95003  Biso   1.000  C
  C188     1.0000 0.60761  0.45190  0.21016  Biso   1.000  C
  C189     1.0000 0.34057  0.37738  0.04237  Biso   1.000  C
  C190     1.0000 0.01525  0.64190  0.62064  Biso   1.000  C
  C191     1.0000 0.10027  0.45797  0.35349  Biso   1.000  C
  C192     1.0000 0.85146  0.36812  0.52781  Biso   1.000  C
  C193     1.0000 0.86475  0.96109  0.92873  Biso   1.000  C
  C194     1.0000 0.91795  0.81285  0.03791  Biso   1.000  C
  C195     1.0000 0.01620  0.85941  0.87167  Biso   1.000  C
  C196     1.0000 0.36656  0.98563  0.62670  Biso   1.000  C
  C197     1.0000 0.40670  0.82063  0.53393  Biso   1.000  C
  C198     1.0000 0.50659  0.86945  0.68785  Biso   1.000  C
  C199     1.0000 0.67912  0.47025  0.92906  Biso   1.000  C
  C200     1.0000 0.62665  0.31515  0.01891  Biso   1.000  C
  C201     1.0000 0.52905  0.37032  0.87657  Biso   1.000  C
  C202     1.0000 0.18577  0.46948  0.63653  Biso   1.000  C
  C203     1.0000 0.13446  0.31056  0.52482  Biso   1.000  C
  C204     1.0000 0.03259  0.35870  0.68275  Biso   1.000  C
  C205     1.0000 0.17146  0.96593  0.13359  Biso   1.000  C
  C206     1.0000 0.12081  0.11921  0.04044  Biso   1.000  C
  C207     1.0000 0.01589  0.06831  0.18414  Biso   1.000  C
  C208     1.0000 0.67881  0.94664  0.43741  Biso   1.000  C
  C209     1.0000 0.63665  0.11163  0.52489  Biso   1.000  C
  C210     1.0000 0.52550  0.06512  0.38100  Biso   1.000  C
  C211     1.0000 0.36571  0.46820  0.13845  Biso   1.000  C
  C212     1.0000 0.41446  0.61793  0.02860  Biso   1.000  C
  C213     1.0000 0.52333  0.56334  0.18645  Biso   1.000  C
  C214     1.0000 0.86560  0.44944  0.42879  Biso   1.000  C
  C215     1.0000 0.91064  0.61391  0.53598  Biso   1.000  C
  C216     1.0000 0.02079  0.56997  0.38007  Biso   1.000  C
  C217     1.0000 0.12263  0.96850  0.87529  Biso   1.000  C
  C218     1.0000 0.86317  0.06958  0.03265  Biso   1.000  C
  C219     1.0000 0.02975  0.80952  0.13305  Biso   1.000  C
  C220     1.0000 0.62104  0.95909  0.68892  Biso   1.000  C
  C221     1.0000 0.38027  0.07294  0.51748  Biso   1.000  C
  C222     1.0000 0.51194  0.80670  0.43056  Biso   1.000  C
  C223     1.0000 0.42520  0.46495  0.88088  Biso   1.000  C
  C224     1.0000 0.66863  0.57292  0.04100  Biso   1.000  C
  C225     1.0000 0.54208  0.30705  0.12962  Biso   1.000  C
  C226     1.0000 0.93042  0.45417  0.68906  Biso   1.000  C
  C227     1.0000 0.17412  0.57072  0.53468  Biso   1.000  C
  C228     1.0000 0.03290  0.30849  0.42905  Biso   1.000  C
  C229     1.0000 0.91919  0.96770  0.18286  Biso   1.000  C
  C230     1.0000 0.17285  0.86432  0.03048  Biso   1.000  C
  C231     1.0000 0.03029  0.11846  0.92901  Biso   1.000  C
  C232     1.0000 0.42058  0.96682  0.37131  Biso   1.000  C
  C233     1.0000 0.66916  0.85342  0.54917  Biso   1.000  C
  C234     1.0000 0.53683  0.12664  0.63135  Biso   1.000  C
  C235     1.0000 0.62517  0.45391  0.18465  Biso   1.000  C
  C236     1.0000 0.36853  0.36355  0.04426  Biso   1.000  C
  C237     1.0000 0.51200  0.62403  0.93309  Biso   1.000  C
  C238     1.0000 0.11724  0.46235  0.37986  Biso   1.000  C
  C239     1.0000 0.87820  0.35235  0.53129  Biso   1.000  C
  C240     1.0000 0.01737  0.61487  0.63572  Biso   1.000  C
  C241     1.0000 0.62811  0.48113  0.87599  Biso   1.000  C
  C242     1.0000 0.86442  0.55852  0.53391  Biso   1.000  C
  C243     1.0000 0.49746  0.81473  0.63716  Biso   1.000  C
  C244     1.0000 0.13389  0.45934  0.68579  Biso   1.000  C
  C245     1.0000 0.36360  0.56499  0.02574  Biso   1.000  C
  C246     1.0000 0.01276  0.81386  0.92424  Biso   1.000  C
  C247     1.0000 0.91909  0.96235  0.87888  Biso   1.000  C
  C248     1.0000 0.68320  0.05612  0.52553  Biso   1.000  C
  C249     1.0000 0.03796  0.30540  0.62974  Biso   1.000  C
  C250     1.0000 0.41730  0.98388  0.67897  Biso   1.000  C
  C251     1.0000 0.17412  0.07273  0.03181  Biso   1.000  C
  C252     1.0000 0.52588  0.31605  0.92742  Biso   1.000  C
  C253     1.0000 0.41870  0.45621  0.18492  Biso   1.000  C
  C254     1.0000 0.18412  0.36722  0.52839  Biso   1.000  C
  C255     1.0000 0.53422  0.11832  0.43175  Biso   1.000  C
  C256     1.0000 0.91589  0.45803  0.37573  Biso   1.000  C
  C257     1.0000 0.67984  0.36780  0.02403  Biso   1.000  C
  C258     1.0000 0.01641  0.11989  0.13452  Biso   1.000  C
  C259     1.0000 0.12279  0.96719  0.19074  Biso   1.000  C
  C260     1.0000 0.35552  0.87308  0.52963  Biso   1.000  C
  C261     1.0000 0.01531  0.61934  0.43165  Biso   1.000  C
  C262     1.0000 0.62768  0.95869  0.38848  Biso   1.000  C
  C263     1.0000 0.86824  0.86487  0.03700  Biso   1.000  C
  C264     1.0000 0.52207  0.61601  0.13691  Biso   1.000  C
  C265     1.0000 0.03453  0.06492  0.87728  Biso   1.000  C
  C266     1.0000 0.86631  0.97108  0.13409  Biso   1.000  C
  C267     1.0000 0.12174  0.81375  0.02155  Biso   1.000  C
  C268     1.0000 0.52934  0.07181  0.68347  Biso   1.000  C
  C269     1.0000 0.36698  0.96021  0.42416  Biso   1.000  C
  C270     1.0000 0.61266  0.80595  0.54055  Biso   1.000  C
  C271     1.0000 0.51891  0.57286  0.88265  Biso   1.000  C
  C272     1.0000 0.67631  0.46405  0.13625  Biso   1.000  C
  C273     1.0000 0.42242  0.31089  0.05084  Biso   1.000  C
  C274     1.0000 0.03234  0.56322  0.68671  Biso   1.000  C
  C275     1.0000 0.17117  0.46934  0.42988  Biso   1.000  C
  C276     1.0000 0.93129  0.30386  0.53303  Biso   1.000  C
  C277     1.0000 0.02352  0.86371  0.18509  Biso   1.000  C
  C278     1.0000 0.17499  0.97332  0.92638  Biso   1.000  C
  C279     1.0000 0.91735  0.12222  0.03241  Biso   1.000  C
  C280     1.0000 0.51564  0.85705  0.37811  Biso   1.000  C
  C281     1.0000 0.67602  0.96308  0.63879  Biso   1.000  C
  C282     1.0000 0.43426  0.12223  0.52999  Biso   1.000  C
  C283     1.0000 0.52850  0.35713  0.18221  Biso   1.000  C
  C284     1.0000 0.37014  0.46058  0.93377  Biso   1.000  C
  C285     1.0000 0.61849  0.62413  0.02988  Biso   1.000  C
  C286     1.0000 0.01197  0.36118  0.38008  Biso   1.000  C
  C287     1.0000 0.87804  0.45695  0.63435  Biso   1.000  C
  C288     1.0000 0.11715  0.61977  0.53065  Biso   1.000  C
  C289     1.0000 0.35380  0.84144  0.53122  Biso   1.000  C
  C290     1.0000 0.52756  0.31611  0.89606  Biso   1.000  C
  C291     1.0000 0.88503  0.45526  0.37556  Biso   1.000  C
  C292     1.0000 0.86657  0.83303  0.04206  Biso   1.000  C
  C293     1.0000 0.03970  0.30560  0.66073  Biso   1.000  C
  C294     1.0000 0.38793  0.45754  0.18920  Biso   1.000  C
  C295     1.0000 0.18549  0.33634  0.52777  Biso   1.000  C
  C296     1.0000 0.01454  0.80873  0.89391  Biso   1.000  C
  C297     1.0000 0.65917  0.95830  0.38698  Biso   1.000  C
  C298     1.0000 0.68094  0.33678  0.02247  Biso   1.000  C
  C299     1.0000 0.49804  0.81637  0.66843  Biso   1.000  C
  C300     1.0000 0.15317  0.96254  0.18819  Biso   1.000  C
  C301     1.0000 0.68776  0.08675  0.52656  Biso   1.000  C
  C302     1.0000 0.52356  0.61694  0.16806  Biso   1.000  C
  C303     1.0000 0.16545  0.46277  0.68833  Biso   1.000  C
  C304     1.0000 0.17417  0.10244  0.04002  Biso   1.000  C
  C305     1.0000 0.01727  0.62311  0.40107  Biso   1.000  C
  C306     1.0000 0.65921  0.47591  0.87516  Biso   1.000  C
  C307     1.0000 0.85900  0.59058  0.53345  Biso   1.000  C
  C308     1.0000 0.01233  0.12159  0.16487  Biso   1.000  C
  C309     1.0000 0.38490  0.98536  0.67884  Biso   1.000  C
  C310     1.0000 0.36167  0.59678  0.02597  Biso   1.000  C
  C311     1.0000 0.53479  0.11765  0.40029  Biso   1.000  C
  C312     1.0000 0.88709  0.95925  0.87554  Biso   1.000  C
  C313     1.0000 0.17105  0.46352  0.39827  Biso   1.000  C
  C314     1.0000 0.40380  0.12571  0.52445  Biso   1.000  C
  C315     1.0000 0.53124  0.32554  0.18292  Biso   1.000  C
  C316     1.0000 0.67762  0.45713  0.16712  Biso   1.000  C
  C317     1.0000 0.88590  0.12285  0.03177  Biso   1.000  C
  C318     1.0000 0.01841  0.32967  0.37779  Biso   1.000  C
  C319     1.0000 0.36696  0.96176  0.39290  Biso   1.000  C
  C320     1.0000 0.14880  0.62190  0.52922  Biso   1.000  C
  C321     1.0000 0.02460  0.83138  0.18640  Biso   1.000  C
  C322     1.0000 0.86580  0.97084  0.16564  Biso   1.000  C
  C323     1.0000 0.64831  0.62621  0.03687  Biso   1.000  C
  C324     1.0000 0.51463  0.82543  0.37733  Biso   1.000  C
  C325     1.0000 0.87778  0.45798  0.66626  Biso   1.000  C
  C326     1.0000 0.64357  0.80150  0.54454  Biso   1.000  C
  C327     1.0000 0.51328  0.60394  0.88054  Biso   1.000  C
  C328     1.0000 0.37216  0.46441  0.90276  Biso   1.000  C
  C329     1.0000 0.15242  0.81163  0.02377  Biso   1.000  C
  C330     1.0000 0.02804  0.59474  0.68694  Biso   1.000  C
  C331     1.0000 0.67573  0.96345  0.66999  Biso   1.000  C
  C332     1.0000 0.90078  0.30097  0.53097  Biso   1.000  C
  C333     1.0000 0.03448  0.09675  0.87535  Biso   1.000  C
  C334     1.0000 0.17550  0.97375  0.89418  Biso   1.000  C
  C335     1.0000 0.39203  0.31042  0.04794  Biso   1.000  C
  C336     1.0000 0.53177  0.10379  0.68331  Biso   1.000  C
  C337     1.0000 0.68012  0.47327  0.89773  Biso   1.000  C
  C338     1.0000 0.87953  0.61364  0.53547  Biso   1.000  C
  C339     1.0000 0.50040  0.83833  0.69065  Biso   1.000  C
  C340     1.0000 0.18728  0.46729  0.66760  Biso   1.000  C
  C341     1.0000 0.38399  0.61860  0.02797  Biso   1.000  C
  C342     1.0000 0.01499  0.82856  0.87135  Biso   1.000  C
  C343     1.0000 0.86528  0.95897  0.89682  Biso   1.000  C
  C344     1.0000 0.66818  0.11031  0.52562  Biso   1.000  C
  C345     1.0000 0.03694  0.32737  0.68240  Biso   1.000  C
  C346     1.0000 0.36472  0.98682  0.65834  Biso   1.000  C
  C347     1.0000 0.15223  0.12237  0.04122  Biso   1.000  C
  C348     1.0000 0.52919  0.33868  0.87487  Biso   1.000  C
  C349     1.0000 0.36593  0.46187  0.16869  Biso   1.000  C
  C350     1.0000 0.16539  0.31223  0.52665  Biso   1.000  C
  C351     1.0000 0.53014  0.09582  0.38027  Biso   1.000  C
  C352     1.0000 0.86430  0.45179  0.39884  Biso   1.000  C
  C353     1.0000 0.65855  0.31550  0.01894  Biso   1.000  C
  C354     1.0000 0.01346  0.09959  0.18582  Biso   1.000  C
  C355     1.0000 0.17292  0.96434  0.16562  Biso   1.000  C
  C356     1.0000 0.37539  0.82042  0.53265  Biso   1.000  C
  C357     1.0000 0.01977  0.60220  0.37950  Biso   1.000  C
  C358     1.0000 0.68164  0.95379  0.40690  Biso   1.000  C
  C359     1.0000 0.88774  0.81127  0.04342  Biso   1.000  C
  C360     1.0000 0.52502  0.59458  0.18974  Biso   1.000  C
  C361     1.0000 0.03394  0.11772  0.89670  Biso   1.000  C
  C362     1.0000 0.88777  0.97066  0.18644  Biso   1.000  C
  C363     1.0000 0.17384  0.83373  0.02708  Biso   1.000  C
  C364     1.0000 0.53521  0.12701  0.66327  Biso   1.000  C
  C365     1.0000 0.38856  0.96516  0.37124  Biso   1.000  C
  C366     1.0000 0.66747  0.82131  0.54700  Biso   1.000  C
  C367     1.0000 0.51134  0.62559  0.90148  Biso   1.000  C
  C368     1.0000 0.65548  0.45408  0.18803  Biso   1.000  C
  C369     1.0000 0.36882  0.33176  0.04524  Biso   1.000  C
  C370     1.0000 0.02150  0.61604  0.66649  Biso   1.000  C
  C371     1.0000 0.14914  0.46224  0.37775  Biso   1.000  C
  C372     1.0000 0.87868  0.32149  0.52975  Biso   1.000  C
  C373     1.0000 0.02687  0.80797  0.16622  Biso   1.000  C
  C374     1.0000 0.15451  0.97211  0.87374  Biso   1.000  C
  C375     1.0000 0.86403  0.10102  0.03292  Biso   1.000  C
  C376     1.0000 0.51269  0.80381  0.39915  Biso   1.000  C
  C377     1.0000 0.65327  0.96239  0.69005  Biso   1.000  C
  C378     1.0000 0.38126  0.10396  0.51901  Biso   1.000  C
  C379     1.0000 0.53637  0.30573  0.16055  Biso   1.000  C
  C380     1.0000 0.39373  0.46587  0.88096  Biso   1.000  C
  C381     1.0000 0.66923  0.60504  0.04208  Biso   1.000  C
  C382     1.0000 0.02477  0.30757  0.39844  Biso   1.000  C
  C383     1.0000 0.89890  0.45836  0.68863  Biso   1.000  C
  C384     1.0000 0.17142  0.60061  0.53205  Biso   1.000  C
  C385     1.0000 0.20113  0.11743  0.04409  Biso   1.000  C
  C386     1.0000 0.01051  0.14894  0.18045  Biso   1.000  C
  C387     1.0000 0.16977  0.96037  0.21345  Biso   1.000  C
  C388     1.0000 0.71562  0.10046  0.52797  Biso   1.000  C
  C389     1.0000 0.54006  0.14329  0.38247  Biso   1.000  C
  C390     1.0000 0.67434  0.96510  0.36007  Biso   1.000  C
  C391     1.0000 0.33580  0.61224  0.02281  Biso   1.000  C
  C392     1.0000 0.52388  0.64353  0.18451  Biso   1.000  C
  C393     1.0000 0.37296  0.45691  0.21711  Biso   1.000  C
  C394     1.0000 0.83220  0.60413  0.52950  Biso   1.000  C
  C395     1.0000 0.01841  0.65155  0.38694  Biso   1.000  C
  C396     1.0000 0.86799  0.45767  0.35052  Biso   1.000  C
  C397     1.0000 0.83923  0.81842  0.04719  Biso   1.000  C
  C398     1.0000 0.01713  0.78102  0.87931  Biso   1.000  C
  C399     1.0000 0.87136  0.96154  0.84948  Biso   1.000  C
  C400     1.0000 0.32717  0.82580  0.52903  Biso   1.000  C
  C401     1.0000 0.49734  0.78861  0.68505  Biso   1.000  C
  C402     1.0000 0.36956  0.98599  0.70644  Biso   1.000  C
  C403     1.0000 0.70880  0.32157  0.02151  Biso   1.000  C
  C404     1.0000 0.52790  0.29089  0.87901  Biso   1.000  C
  C405     1.0000 0.67524  0.47388  0.84768  Biso   1.000  C
  C406     1.0000 0.21376  0.32244  0.52435  Biso   1.000  C
  C407     1.0000 0.04176  0.27782  0.67772  Biso   1.000  C
  C408     1.0000 0.18017  0.46327  0.71579  Biso   1.000  C
  C409     1.0000 0.16981  0.97163  0.84601  Biso   1.000  C
  C410     1.0000 0.83741  0.11694  0.03287  Biso   1.000  C
  C411     1.0000 0.02721  0.78221  0.18290  Biso   1.000  C
  C412     1.0000 0.66739  0.96472  0.71780  Biso   1.000  C
  C413     1.0000 0.35573  0.12168  0.51369  Biso   1.000  C
  C414     1.0000 0.51470  0.77724  0.38466  Biso   1.000  C
  C415     1.0000 0.37826  0.46855  0.85472  Biso   1.000  C
  C416     1.0000 0.69488  0.62123  0.04874  Biso   1.000  C
  C417     1.0000 0.53860  0.27870  0.17589  Biso   1.000  C
  C418     1.0000 0.88418  0.46454  0.71566  Biso   1.000  C
  C419     1.0000 0.19727  0.61652  0.53200  Biso   1.000  C
  C420     1.0000 0.02387  0.28162  0.38076  Biso   1.000  C
  C421     1.0000 0.87223  0.97252  0.21420  Biso   1.000  C
  C422     1.0000 0.20045  0.81808  0.02474  Biso   1.000  C
  C423     1.0000 0.03434  0.14521  0.88018  Biso   1.000  C
  C424     1.0000 0.37400  0.96219  0.34438  Biso   1.000  C
  C425     1.0000 0.69234  0.80163  0.54592  Biso   1.000  C
  C426     1.0000 0.53538  0.15339  0.67884  Biso   1.000  C
  C427     1.0000 0.67020  0.45022  0.21440  Biso   1.000  C
  C428     1.0000 0.34247  0.31517  0.04200  Biso   1.000  C
  C429     1.0000 0.50789  0.65299  0.88627  Biso   1.000  C
  C430     1.0000 0.16338  0.45898  0.35071  Biso   1.000  C
  C431     1.0000 0.85195  0.30583  0.52858  Biso   1.000  C
  C432     1.0000 0.02300  0.64250  0.68199  Biso   1.000  C
  C433     1.0000 0.03505  0.11211  0.84777  Biso   1.000  C
  C434     1.0000 0.83875  0.97215  0.18249  Biso   1.000  C
  C435     1.0000 0.16721  0.78444  0.02029  Biso   1.000  C
  C436     1.0000 0.52978  0.11857  0.70991  Biso   1.000  C
  C437     1.0000 0.34068  0.96042  0.37770  Biso   1.000  C
  C438     1.0000 0.65625  0.77262  0.54181  Biso   1.000  C
  C439     1.0000 0.50998  0.61941  0.85352  Biso   1.000  C
  C440     1.0000 0.70335  0.45450  0.18131  Biso   1.000  C
  C441     1.0000 0.37686  0.28404  0.04599  Biso   1.000  C
  C442     1.0000 0.03122  0.61077  0.71398  Biso   1.000  C
  C443     1.0000 0.19784  0.46154  0.38147  Biso   1.000  C
  C444     1.0000 0.88575  0.27386  0.53024  Biso   1.000  C
  C445     1.0000 0.02640  0.81738  0.21426  Biso   1.000  C
  C446     1.0000 0.20150  0.96998  0.87806  Biso   1.000  C
  C447     1.0000 0.87002  0.14989  0.03304  Biso   1.000  C
  C448     1.0000 0.51531  0.80891  0.35032  Biso   1.000  C
  C449     1.0000 0.70167  0.96513  0.68590  Biso   1.000  C
  C450     1.0000 0.38898  0.15315  0.52342  Biso   1.000  C
  C451     1.0000 0.53044  0.30893  0.20918  Biso   1.000  C
  C452     1.0000 0.34499  0.46677  0.88629  Biso   1.000  C
  C453     1.0000 0.66312  0.65396  0.03772  Biso   1.000  C
  C454     1.0000 0.01654  0.31510  0.35019  Biso   1.000  C
  C455     1.0000 0.85125  0.46280  0.68338  Biso   1.000  C
  C456     1.0000 0.16385  0.64901  0.52953  Biso   1.000  C
  C457     1.0000 0.02193  0.61863  0.35396  Biso   1.000  C
  C458     1.0000 0.33693  0.98950  0.67380  Biso   1.000  C
  C459     1.0000 0.67533  0.28935  0.01762  Biso   1.000  C
  C460     1.0000 0.52365  0.61029  0.21726  Biso   1.000  C
  C461     1.0000 0.83798  0.95932  0.88180  Biso   1.000  C
  C462     1.0000 0.18402  0.28553  0.52689  Biso   1.000  C
  C463     1.0000 0.53245  0.10949  0.35220  Biso   1.000  C
  C464     1.0000 0.21370  0.47053  0.68280  Biso   1.000  C
  C465     1.0000 0.87280  0.78420  0.04852  Biso   1.000  C
  C466     1.0000 0.00986  0.11564  0.21201  Biso   1.000  C
  C467     1.0000 0.70789  0.47129  0.88132  Biso   1.000  C
  C468     1.0000 0.36027  0.79286  0.53242  Biso   1.000  C
  C469     1.0000 0.03764  0.31243  0.71078  Biso   1.000  C
  C470     1.0000 0.70801  0.95654  0.39070  Biso   1.000  C
  C471     1.0000 0.36895  0.64525  0.02805  Biso   1.000  C
  C472     1.0000 0.53142  0.32383  0.84745  Biso   1.000  C
  C473     1.0000 0.20033  0.96281  0.17869  Biso   1.000  C
  C474     1.0000 0.86274  0.63965  0.53456  Biso   1.000  C
  C475     1.0000 0.49950  0.82263  0.71808  Biso   1.000  C
  C476     1.0000 0.83704  0.44797  0.38471  Biso   1.000  C
  C477     1.0000 0.16804  0.15005  0.04493  Biso   1.000  C
  C478     1.0000 0.01739  0.81222  0.84492  Biso   1.000  C
  C479     1.0000 0.33957  0.46091  0.18580  Biso   1.000  C
  C480     1.0000 0.68489  0.13656  0.52764  Biso   1.000  C
  C481     1.0000 0.37635  0.76531  0.53586  Biso   1.000  C
  C482     1.0000 0.53229  0.33940  0.82009  Biso   1.000  C
  C483     1.0000 0.81089  0.44132  0.40152  Biso   1.000  C
  C484     1.0000 0.88785  0.75793  0.05088  Biso   1.000  C
  C485     1.0000 0.03338  0.32874  0.73774  Biso   1.000  C
  C486     1.0000 0.31329  0.46705  0.17155  Biso   1.000  C
  C487     1.0000 0.16770  0.25948  0.52905  Biso   1.000  C
  C488     1.0000 0.01634  0.82812  0.81610  Biso   1.000  C
  C489     1.0000 0.73402  0.94678  0.40569  Biso   1.000  C
  C490     1.0000 0.66147  0.26298  0.01031  Biso   1.000  C
  C491     1.0000 0.50345  0.83974  0.74407  Biso   1.000  C
  C492     1.0000 0.22798  0.96323  0.16183  Biso   1.000  C
  C493     1.0000 0.67045  0.16332  0.53107  Biso   1.000  C
  C494     1.0000 0.52574  0.59199  0.24413  Biso   1.000  C
  C495     1.0000 0.23863  0.47910  0.66590  Biso   1.000  C
  C496     1.0000 0.15007  0.17523  0.04832  Biso   1.000  C
  C497     1.0000 0.02763  0.60337  0.32768  Biso   1.000  C
  C498     1.0000 0.73450  0.47146  0.89969  Biso   1.000  C
  C499     1.0000 0.87726  0.66752  0.53941  Biso   1.000  C
  C500     1.0000 0.00581  0.09935  0.23929  Biso   1.000  C
  C501     1.0000 0.31040  0.99163  0.65830  Biso   1.000  C
  C502     1.0000 0.38597  0.67363  0.03015  Biso   1.000  C
  C503     1.0000 0.52591  0.09414  0.32432  Biso   1.000  C
  C504     1.0000 0.81142  0.95605  0.89850  Biso   1.000  C
  C505     1.0000 0.65997  0.47562  0.82124  Biso   1.000  C
  C506     1.0000 0.80695  0.58507  0.52573  Biso   1.000  C
  C507     1.0000 0.49513  0.76003  0.67145  Biso   1.000  C
  C508     1.0000 0.16426  0.45435  0.74169  Biso   1.000  C
  C509     1.0000 0.30807  0.59623  0.01980  Biso   1.000  C
  C510     1.0000 0.01404  0.75545  0.89731  Biso   1.000  C
  C511     1.0000 0.88772  0.96730  0.82285  Biso   1.000  C
  C512     1.0000 0.74159  0.08106  0.52523  Biso   1.000  C
  C513     1.0000 0.04516  0.25064  0.66299  Biso   1.000  C
  C514     1.0000 0.38688  0.98457  0.73283  Biso   1.000  C
  C515     1.0000 0.22792  0.10121  0.04666  Biso   1.000  C
  C516     1.0000 0.52547  0.26328  0.89496  Biso   1.000  C
  C517     1.0000 0.39023  0.45374  0.24277  Biso   1.000  C
  C518     1.0000 0.23981  0.34130  0.51890  Biso   1.000  C
  C519     1.0000 0.54824  0.17036  0.39701  Biso   1.000  C
  C520     1.0000 0.88276  0.46661  0.32254  Biso   1.000  C
  C521     1.0000 0.73438  0.33735  0.02431  Biso   1.000  C
  C522     1.0000 0.01019  0.17659  0.16468  Biso   1.000  C
  C523     1.0000 0.15448  0.96016  0.24311  Biso   1.000  C
  C524     1.0000 0.29989  0.84193  0.52605  Biso   1.000  C
  C525     1.0000 0.01424  0.67697  0.40491  Biso   1.000  C
  C526     1.0000 0.65794  0.97342  0.33473  Biso   1.000  C
  C527     1.0000 0.81277  0.83488  0.05127  Biso   1.000  C
  C528     1.0000 0.52294  0.67099  0.16879  Biso   1.000  C
  C529     1.0000 0.81065  0.10143  0.03224  Biso   1.000  C
  C530     1.0000 0.03138  0.75466  0.16665  Biso   1.000  C
  C531     1.0000 0.15380  0.97158  0.81879  Biso   1.000  C
  C532     1.0000 0.32737  0.10882  0.50934  Biso   1.000  C
  C533     1.0000 0.51245  0.75113  0.40243  Biso   1.000  C
  C534     1.0000 0.64994  0.96532  0.74507  Biso   1.000  C
  C535     1.0000 0.72107  0.60405  0.05427  Biso   1.000  C
  C536     1.0000 0.54359  0.25196  0.16084  Biso   1.000  C
  C537     1.0000 0.39401  0.47053  0.82764  Biso   1.000  C
  C538     1.0000 0.22605  0.60493  0.53462  Biso   1.000  C
  C539     1.0000 0.03277  0.25473  0.39643  Biso   1.000  C
  C540     1.0000 0.89985  0.46505  0.74315  Biso   1.000  C
  C541     1.0000 0.22838  0.83443  0.02396  Biso   1.000  C
  C542     1.0000 0.03004  0.17313  0.89486  Biso   1.000  C
  C543     1.0000 0.88919  0.97102  0.24010  Biso   1.000  C
  C544     1.0000 0.72090  0.81478  0.54460  Biso   1.000  C
  C545     1.0000 0.53961  0.17994  0.66305  Biso   1.000  C
  C546     1.0000 0.39180  0.96119  0.31713  Biso   1.000  C
  C547     1.0000 0.31542  0.32988  0.03745  Biso   1.000  C
  C548     1.0000 0.50600  0.67910  0.90311  Biso   1.000  C
  C549     1.0000 0.65336  0.44276  0.23891  Biso   1.000  C
  C550     1.0000 0.82437  0.32016  0.52452  Biso   1.000  C
  C551     1.0000 0.01514  0.67010  0.66795  Biso   1.000  C
  C552     1.0000 0.14589  0.45449  0.32632  Biso   1.000  C
  C553     1.0000 0.03008  0.09723  0.81996  Biso   1.000  C
  C554     1.0000 0.81178  0.97316  0.16760  Biso   1.000  C
  C555     1.0000 0.15094  0.75725  0.01420  Biso   1.000  C
  C556     1.0000 0.52654  0.10261  0.73783  Biso   1.000  C
  C557     1.0000 0.31349  0.96126  0.39447  Biso   1.000  C
  C558     1.0000 0.63745  0.74807  0.54352  Biso   1.000  C
  C559     1.0000 0.50717  0.60226  0.82690  Biso   1.000  C
  C560     1.0000 0.73130  0.45735  0.16447  Biso   1.000  C
  C561     1.0000 0.39100  0.25613  0.04612  Biso   1.000  C
  C562     1.0000 0.03839  0.59502  0.74191  Biso   1.000  C
  C563     1.0000 0.22601  0.46757  0.39620  Biso   1.000  C
  C564     1.0000 0.90225  0.24710  0.53364  Biso   1.000  C
  C565     1.0000 0.02350  0.83308  0.24337  Biso   1.000  C
  C566     1.0000 0.22917  0.96727  0.89313  Biso   1.000  C
  C567     1.0000 0.88526  0.17839  0.03505  Biso   1.000  C
  C568     1.0000 0.51708  0.82495  0.32211  Biso   1.000  C
  C569     1.0000 0.72997  0.96699  0.66869  Biso   1.000  C
  C570     1.0000 0.40591  0.18038  0.52526  Biso   1.000  C
  C571     1.0000 0.52640  0.32470  0.23625  Biso   1.000  C
  C572     1.0000 0.31699  0.46279  0.90121  Biso   1.000  C
  C573     1.0000 0.64759  0.68078  0.03397  Biso   1.000  C
  C574     1.0000 0.00997  0.33237  0.32355  Biso   1.000  C
  C575     1.0000 0.82470  0.46291  0.66726  Biso   1.000  C
  C576     1.0000 0.14678  0.67646  0.53163  Biso   1.000  C
  C577     1.0000 0.31296  0.46989  0.14085  Biso   1.000  C
  C578     1.0000 0.13642  0.25655  0.53105  Biso   1.000  C
  C579     1.0000 0.52226  0.06337  0.32673  Biso   1.000  C
  C580     1.0000 0.81074  0.44171  0.43317  Biso   1.000  C
  C581     1.0000 0.62944  0.26002  0.00995  Biso   1.000  C
  C582     1.0000 0.00519  0.06845  0.23737  Biso   1.000  C
  C583     1.0000 0.22606  0.96207  0.13055  Biso   1.000  C
  C584     1.0000 0.40684  0.76662  0.54030  Biso   1.000  C
  C585     1.0000 0.02794  0.57167  0.32623  Biso   1.000  C
  C586     1.0000 0.73299  0.94082  0.43650  Biso   1.000  C
  C587     1.0000 0.91904  0.75787  0.04759  Biso   1.000  C
  C588     1.0000 0.52393  0.55970  0.24131  Biso   1.000  C
  C589     1.0000 0.73312  0.47297  0.93087  Biso   1.000  C
  C590     1.0000 0.90876  0.66919  0.54082  Biso   1.000  C
  C591     1.0000 0.50714  0.86986  0.74175  Biso   1.000  C
  C592     1.0000 0.23777  0.48033  0.63448  Biso   1.000  C
  C593     1.0000 0.41617  0.67133  0.03708  Biso   1.000  C
  C594     1.0000 0.01428  0.85918  0.81658  Biso   1.000  C
  C595     1.0000 0.81097  0.95933  0.93019  Biso   1.000  C
  C596     1.0000 0.63948  0.16618  0.52984  Biso   1.000  C
  C597     1.0000 0.02952  0.36050  0.73886  Biso   1.000  C
  C598     1.0000 0.31256  0.98852  0.62688  Biso   1.000  C
  C599     1.0000 0.11887  0.17252  0.04727  Biso   1.000  C
  C600     1.0000 0.53391  0.37074  0.82223  Biso   1.000  C
  C601     1.0000 0.22888  0.97065  0.92398  Biso   1.000  C
  C602     1.0000 0.91625  0.17827  0.03744  Biso   1.000  C
  C603     1.0000 0.02180  0.86388  0.24202  Biso   1.000  C
  C604     1.0000 0.73134  0.96833  0.63693  Biso   1.000  C
  C605     1.0000 0.43693  0.17774  0.52565  Biso   1.000  C
  C606     1.0000 0.51778  0.85730  0.32273  Biso   1.000  C
  C607     1.0000 0.31574  0.45749  0.93256  Biso   1.000  C
  C608     1.0000 0.61728  0.67879  0.02542  Biso   1.000  C
  C609     1.0000 0.52144  0.35631  0.23767  Biso   1.000  C
  C610     1.0000 0.82469  0.46093  0.63544  Biso   1.000  C
  C611     1.0000 0.11522  0.67484  0.53315  Biso   1.000  C
  C612     1.0000 0.00428  0.36340  0.32619  Biso   1.000  C
  C613     1.0000 0.81286  0.97135  0.13704  Biso   1.000  C
  C614     1.0000 0.12020  0.75952  0.01322  Biso   1.000  C
  C615     1.0000 0.02849  0.06601  0.82157  Biso   1.000  C
  C616     1.0000 0.31293  0.95938  0.42578  Biso   1.000  C
  C617     1.0000 0.60686  0.75123  0.54412  Biso   1.000  C
  C618     1.0000 0.51918  0.07235  0.73847  Biso   1.000  C
  C619     1.0000 0.73137  0.46245  0.13339  Biso   1.000  C
  C620     1.0000 0.42287  0.25690  0.04614  Biso   1.000  C
  C621     1.0000 0.51361  0.57147  0.82762  Biso   1.000  C
  C622     1.0000 0.22497  0.47451  0.42730  Biso   1.000  C
  C623     1.0000 0.93350  0.24866  0.53897  Biso   1.000  C
  C624     1.0000 0.04369  0.56337  0.74122  Biso   1.000  C
  C625     1.0000 0.02642  0.17335  0.92783  Biso   1.000  C
  C626     1.0000 0.91932  0.96559  0.23742  Biso   1.000  C
  C627     1.0000 0.22651  0.86550  0.02752  Biso   1.000  C
  C628     1.0000 0.54159  0.18061  0.63105  Biso   1.000  C
  C629     1.0000 0.42386  0.96464  0.31667  Biso   1.000  C
  C630     1.0000 0.72254  0.84689  0.54348  Biso   1.000  C
  C631     1.0000 0.50324  0.67790  0.93457  Biso   1.000  C
  C632     1.0000 0.62203  0.44489  0.23840  Biso   1.000  C
  C633     1.0000 0.31458  0.36009  0.03886  Biso   1.000  C
  C634     1.0000 0.01293  0.66968  0.63560  Biso   1.000  C
  C635     1.0000 0.11513  0.45349  0.32668  Biso   1.000  C
  C636     1.0000 0.82567  0.35197  0.52461  Biso   1.000  C
  C637     1.0000 0.02963  0.75499  0.13467  Biso   1.000  C
  C638     1.0000 0.12240  0.96952  0.81883  Biso   1.000  C
  C639     1.0000 0.80861  0.06986  0.03298  Biso   1.000  C
  C640     1.0000 0.51063  0.75200  0.43488  Biso   1.000  C
  C641     1.0000 0.61987  0.96177  0.74438  Biso   1.000  C
  C642     1.0000 0.32631  0.07786  0.51132  Biso   1.000  C
  C643     1.0000 0.54576  0.25152  0.12874  Biso   1.000  C
  C644     1.0000 0.42415  0.46754  0.82679  Biso   1.000  C
  C645     1.0000 0.72085  0.57292  0.05364  Biso   1.000  C
  C646     1.0000 0.03840  0.25535  0.42686  Biso   1.000  C
  C647     1.0000 0.93129  0.46336  0.74389  Biso   1.000  C
  C648     1.0000 0.22863  0.57422  0.54009  Biso   1.000  C
  C649     1.0000 0.01311  0.67310  0.43597  Biso   1.000  C
  C650     1.0000 0.41767  0.98125  0.73274  Biso   1.000  C
  C651     1.0000 0.73405  0.36760  0.02731  Biso   1.000  C
  C652     1.0000 0.52144  0.67055  0.13691  Biso   1.000  C
  C653     1.0000 0.91924  0.96649  0.82452  Biso   1.000  C
  C654     1.0000 0.23822  0.37266  0.51825  Biso   1.000  C
  C655     1.0000 0.54952  0.17114  0.42850  Biso   1.000  C
  C656     1.0000 0.13344  0.45068  0.74102  Biso   1.000  C
  C657     1.0000 0.81401  0.86617  0.04639  Biso   1.000  C
  C658     1.0000 0.01257  0.17477  0.13321  Biso   1.000  C
  C659     1.0000 0.62881  0.47953  0.82097  Biso   1.000  C
  C660     1.0000 0.30170  0.87393  0.52256  Biso   1.000  C
  C661     1.0000 0.04260  0.25085  0.63183  Biso   1.000  C
  C662     1.0000 0.62616  0.97219  0.33526  Biso   1.000  C
  C663     1.0000 0.30904  0.56514  0.01709  Biso   1.000  C
  C664     1.0000 0.52065  0.26292  0.92606  Biso   1.000  C
  C665     1.0000 0.12245  0.96476  0.24424  Biso   1.000  C
  C666     1.0000 0.81094  0.55337  0.52369  Biso   1.000  C
  C667     1.0000 0.49333  0.75925  0.64029  Biso   1.000  C
  C668     1.0000 0.91415  0.46748  0.32139  Biso   1.000  C
  C669     1.0000 0.22765  0.07010  0.04228  Biso   1.000  C
  C670     1.0000 0.01121  0.75968  0.92904  Biso   1.000  C
  C671     1.0000 0.42165  0.45368  0.24115  Biso   1.000  C
  C672     1.0000 0.73803  0.04899  0.52328  Biso   1.000  C
  C673     1.0000 0.21632  0.97020  0.83110  Biso   1.000  C
  C674     1.0000 0.82374  0.16347  0.03155  Biso   1.000  C
  C675     1.0000 0.02921  0.77045  0.22952  Biso   1.000  C
  C676     1.0000 0.71283  0.96300  0.73205  Biso   1.000  C
  C677     1.0000 0.34266  0.16877  0.51763  Biso   1.000  C
  C678     1.0000 0.51583  0.76071  0.33857  Biso   1.000  C
  C679     1.0000 0.33196  0.47213  0.83907  Biso   1.000  C
  C680     1.0000 0.70889  0.66855  0.05006  Biso   1.000  C
  C681     1.0000 0.53480  0.26325  0.22262  Biso   1.000  C
  C682     1.0000 0.83691  0.46823  0.72884  Biso   1.000  C
  C683     1.0000 0.20807  0.66454  0.53178  Biso   1.000  C
  C684     1.0000 0.01601  0.26869  0.33524  Biso   1.000  C
  C685     1.0000 0.82694  0.97034  0.23090  Biso   1.000  C
  C686     1.0000 0.21424  0.77130  0.02215  Biso   1.000  C
  C687     1.0000 0.03570  0.16044  0.83464  Biso   1.000  C
  C688     1.0000 0.32460  0.95865  0.33222  Biso   1.000  C
  C689     1.0000 0.70197  0.75461  0.54509  Biso   1.000  C
  C690     1.0000 0.53448  0.16474  0.72656  Biso   1.000  C
  C691     1.0000 0.71458  0.44920  0.22937  Biso   1.000  C
  C692     1.0000 0.32941  0.26875  0.04478  Biso   1.000  C
  C693     1.0000 0.50550  0.66520  0.83922  Biso   1.000  C
  C694     1.0000 0.21003  0.45313  0.33406  Biso   1.000  C
  C695     1.0000 0.83956  0.25866  0.52541  Biso   1.000  C
  C696     1.0000 0.03246  0.65550  0.72930  Biso   1.000  C
  C697     1.0000 0.72135  0.96515  0.34585  Biso   1.000  C
  C698     1.0000 0.32245  0.66027  0.02504  Biso   1.000  C
  C699     1.0000 0.04359  0.26605  0.72522  Biso   1.000  C
  C700     1.0000 0.21628  0.96140  0.22530  Biso   1.000  C
  C701     1.0000 0.81431  0.65041  0.53031  Biso   1.000  C
  C702     1.0000 0.53243  0.27719  0.83223  Biso   1.000  C
  C703     1.0000 0.82154  0.45164  0.33906  Biso   1.000  C
  C704     1.0000 0.21470  0.16539  0.04765  Biso   1.000  C
  C705     1.0000 0.50095  0.77520  0.73227  Biso   1.000  C
  C706     1.0000 0.32357  0.45140  0.23116  Biso   1.000  C
  C707     1.0000 0.73405  0.14718  0.52584  Biso   1.000  C
  C708     1.0000 0.02140  0.76553  0.83219  Biso   1.000  C
  C709     1.0000 0.32106  0.98544  0.71814  Biso   1.000  C
  C710     1.0000 0.71916  0.27415  0.02163  Biso   1.000  C
  C711     1.0000 0.02307  0.66531  0.34130  Biso   1.000  C
  C712     1.0000 0.82516  0.95986  0.83517  Biso   1.000  C
  C713     1.0000 0.23067  0.27585  0.52436  Biso   1.000  C
  C714     1.0000 0.52007  0.65554  0.23157  Biso   1.000  C
  C715     1.0000 0.22722  0.46729  0.72969  Biso   1.000  C
  C716     1.0000 0.82442  0.77206  0.05221  Biso   1.000  C
  C717     1.0000 0.53694  0.15525  0.33553  Biso   1.000  C
  C718     1.0000 0.72243  0.47095  0.83533  Biso   1.000  C
  C719     1.0000 0.31506  0.77650  0.53323  Biso   1.000  C
  C720     1.0000 0.00847  0.16204  0.22865  Biso   1.000  C
  C721     1.0000 0.52991  0.73284  0.34363  Biso   1.000  C
  C722     1.0000 0.30573  0.48906  0.84161  Biso   1.000  C
  C723     1.0000 0.81291  0.26137  0.54339  Biso   1.000  C
  C724     1.0000 0.00940  0.74621  0.22940  Biso   1.000  C
  C725     1.0000 0.81189  0.48481  0.72375  Biso   1.000  C
  C726     1.0000 0.30914  0.26588  0.02076  Biso   1.000  C
  C727     1.0000 0.00409  0.24095  0.34493  Biso   1.000  C
  C728     1.0000 0.24480  0.98501  0.83454  Biso   1.000  C
  C729     1.0000 0.72681  0.75682  0.56305  Biso   1.000  C
  C730     1.0000 0.51684  0.26406  0.24872  Biso   1.000  C
  C731     1.0000 0.73573  0.94004  0.72889  Biso   1.000  C
  C732     1.0000 0.23996  0.77409  0.03938  Biso   1.000  C
  C733     1.0000 0.51549  0.16161  0.75213  Biso   1.000  C
  C734     1.0000 0.71105  0.46475  0.25655  Biso   1.000  C
  C735     1.0000 0.20644  0.69149  0.51526  Biso   1.000  C
  C736     1.0000 0.01621  0.18510  0.83464  Biso   1.000  C
  C737     1.0000 0.23637  0.43721  0.34180  Biso   1.000  C
  C738     1.0000 0.73296  0.66634  0.06981  Biso   1.000  C
  C739     1.0000 0.04464  0.68371  0.72159  Biso   1.000  C
  C740     1.0000 0.80089  0.95308  0.22822  Biso   1.000  C
  C741     1.0000 0.31754  0.16667  0.50023  Biso   1.000  C
  C742     1.0000 0.52153  0.66346  0.81209  Biso   1.000  C
  C743     1.0000 0.29574  0.94602  0.33831  Biso   1.000  C
  C744     1.0000 0.79763  0.16307  0.04852  Biso   1.000  C
  C745     1.0000 0.03784  0.69334  0.34581  Biso   1.000  C
  C746     1.0000 0.29301  0.00064  0.71660  Biso   1.000  C
  C747     1.0000 0.74787  0.27765  0.00720  Biso   1.000  C
  C748     1.0000 0.53537  0.68388  0.22811  Biso   1.000  C
  C749     1.0000 0.83000  0.94746  0.80680  Biso   1.000  C
  C750     1.0000 0.25978  0.28259  0.53412  Biso   1.000  C
  C751     1.0000 0.54878  0.14968  0.30674  Biso   1.000  C
  C752     1.0000 0.25687  0.45862  0.72271  Biso   1.000  C
  C753     1.0000 0.79888  0.77799  0.03411  Biso   1.000  C
  C754     1.0000 0.02395  0.15811  0.25546  Biso   1.000  C
  C755     1.0000 0.74835  0.45132  0.83870  Biso   1.000  C
  C756     1.0000 0.28717  0.78014  0.54752  Biso   1.000  C
  C757     1.0000 0.02545  0.23983  0.72335  Biso   1.000  C
  C758     1.0000 0.74965  0.97762  0.35079  Biso   1.000  C
  C759     1.0000 0.32555  0.68736  0.04422  Biso   1.000  C
  C760     1.0000 0.55111  0.27953  0.80645  Biso   1.000  C
  C761     1.0000 0.24118  0.98015  0.22316  Biso   1.000  C
  C762     1.0000 0.81868  0.68021  0.52116  Biso   1.000  C
  C763     1.0000 0.48739  0.77968  0.76058  Biso   1.000  C
  C764     1.0000 0.79208  0.45982  0.34596  Biso   1.000  C
  C765     1.0000 0.21124  0.19418  0.06147  Biso   1.000  C
  C766     1.0000 0.00609  0.76498  0.80481  Biso   1.000  C
  C767     1.0000 0.32802  0.45873  0.26156  Biso   1.000  C
  C768     1.0000 0.73246  0.17627  0.51147  Biso   1.000  C
  C769     1.0000 0.48638  0.68963  0.84323  Biso   1.000  C
  C770     1.0000 0.84007  0.45225  0.75509  Biso   1.000  C
  C771     1.0000 0.70027  0.73067  0.52502  Biso   1.000  C
  C772     1.0000 0.01995  0.65084  0.75903  Biso   1.000  C
  C773     1.0000 0.33703  0.45458  0.81254  Biso   1.000  C
  C774     1.0000 0.21146  0.74434  0.00604  Biso   1.000  C
  C775     1.0000 0.05818  0.15916  0.81183  Biso   1.000  C
  C776     1.0000 0.71312  0.98531  0.75542  Biso   1.000  C
  C777     1.0000 0.84496  0.23159  0.50899  Biso   1.000  C
  C778     1.0000 0.55669  0.18686  0.72556  Biso   1.000  C
  C779     1.0000 0.21341  0.95698  0.80263  Biso   1.000  C
  C780     1.0000 0.32616  0.24987  0.07008  Biso   1.000  C
  C781     1.0000 0.55686  0.24019  0.22178  Biso   1.000  C
  C782     1.0000 0.20796  0.46136  0.30447  Biso   1.000  C
  C783     1.0000 0.34479  0.19396  0.53654  Biso   1.000  C
  C784     1.0000 0.02361  0.27158  0.30527  Biso   1.000  C
  C785     1.0000 0.74017  0.43250  0.22507  Biso   1.000  C
  C786     1.0000 0.82689  0.18653  0.00985  Biso   1.000  C
  C787     1.0000 0.04846  0.77378  0.25314  Biso   1.000  C
  C788     1.0000 0.33076  0.96959  0.30257  Biso   1.000  C
  C789     1.0000 0.23205  0.66370  0.55197  Biso   1.000  C
  C790     1.0000 0.50232  0.76582  0.31144  Biso   1.000  C
  C791     1.0000 0.83018  0.98798  0.25792  Biso   1.000  C
  C792     1.0000 0.71026  0.69212  0.02833  Biso   1.000  C
  C793     1.0000 0.52485  0.18515  0.33975  Biso   1.000  C
  C794     1.0000 0.29537  0.43909  0.22162  Biso   1.000  C
  C795     1.0000 0.22807  0.24660  0.51188  Biso   1.000  C
  C796     1.0000 0.99064  0.18715  0.22543  Biso   1.000  C
  C797     1.0000 0.82911  0.44382  0.30887  Biso   1.000  C
  C798     1.0000 0.71298  0.24760  0.03737  Biso   1.000  C
  C799     1.0000 0.01066  0.66106  0.31457  Biso   1.000  C
  C800     1.0000 0.21226  0.94118  0.24938  Biso   1.000  C
  C801     1.0000 0.31987  0.74940  0.51881  Biso   1.000  C
  C802     1.0000 0.50249  0.65005  0.25892  Biso   1.000  C
  C803     1.0000 0.71780  0.95020  0.31746  Biso   1.000  C
  C804     1.0000 0.82423  0.74529  0.06853  Biso   1.000  C
  C805     1.0000 0.51760  0.74985  0.72782  Biso   1.000  C
  C806     1.0000 0.72323  0.48986  0.81029  Biso   1.000  C
  C807     1.0000 0.78575  0.64221  0.54140  Biso   1.000  C
  C808     1.0000 0.04091  0.74269  0.83845  Biso   1.000  C
  C809     1.0000 0.22187  0.47729  0.75940  Biso   1.000  C
  C810     1.0000 0.29723  0.65824  0.00806  Biso   1.000  C
  C811     1.0000 0.06016  0.27280  0.75115  Biso   1.000  C
  C812     1.0000 0.79669  0.97161  0.84041  Biso   1.000  C
  C813     1.0000 0.76166  0.13921  0.53862  Biso   1.000  C
  C814     1.0000 0.51523  0.25018  0.83547  Biso   1.000  C
  C815     1.0000 0.32634  0.96515  0.74204  Biso   1.000  C
  C816     1.0000 0.24241  0.15931  0.03396  Biso   1.000  C
  C817     1.0000 0.02146  0.20687  0.81444  Biso   1.000  C
  C818     1.0000 0.78262  0.95316  0.25179  Biso   1.000  C
  C819     1.0000 0.26061  0.75293  0.04126  Biso   1.000  C
  C820     1.0000 0.51860  0.18272  0.77299  Biso   1.000  C
  C821     1.0000 0.27413  0.94461  0.31743  Biso   1.000  C
  C822     1.0000 0.74930  0.73591  0.56017  Biso   1.000  C
  C823     1.0000 0.51912  0.68368  0.79050  Biso   1.000  C
  C824     1.0000 0.73051  0.46278  0.27820  Biso   1.000  C
  C825     1.0000 0.28650  0.24438  0.02172  Biso   1.000  C
  C826     1.0000 0.04329  0.70363  0.74398  Biso   1.000  C
  C827     1.0000 0.25831  0.43256  0.32043  Biso   1.000  C
  C828     1.0000 0.79278  0.23857  0.54390  Biso   1.000  C
  C829     1.0000 0.00805  0.72532  0.25176  Biso   1.000  C
  C830     1.0000 0.26476  0.98267  0.81162  Biso   1.000  C
  C831     1.0000 0.77737  0.18530  0.04718  Biso   1.000  C
  C832     1.0000 0.53020  0.71281  0.32180  Biso   1.000  C
  C833     1.0000 0.75801  0.94103  0.74901  Biso   1.000  C
  C834     1.0000 0.29775  0.18909  0.50015  Biso   1.000  C
  C835     1.0000 0.51898  0.24224  0.27147  Biso   1.000  C
  C836     1.0000 0.28822  0.48859  0.81772  Biso   1.000  C
  C837     1.0000 0.75372  0.68790  0.06988  Biso   1.000  C
  C838     1.0000 0.99938  0.22040  0.32458  Biso   1.000  C
  C839     1.0000 0.78788  0.48122  0.74233  Biso   1.000  C
  C840     1.0000 0.22613  0.71316  0.51694  Biso   1.000  C
  C841     1.0000 0.23129  0.96006  0.77905  Biso   1.000  C
  C842     1.0000 0.80478  0.20690  0.00610  Biso   1.000  C
  C843     1.0000 0.04758  0.75290  0.27521  Biso   1.000  C
  C844     1.0000 0.73633  0.98475  0.77403  Biso   1.000  C
  C845     1.0000 0.32334  0.21407  0.53833  Biso   1.000  C
  C846     1.0000 0.50564  0.74517  0.28872  Biso   1.000  C
  C847     1.0000 0.31690  0.45325  0.79160  Biso   1.000  C
  C848     1.0000 0.73229  0.71321  0.02700  Biso   1.000  C
  C849     1.0000 0.55892  0.21948  0.24388  Biso   1.000  C
  C850     1.0000 0.81558  0.45231  0.77339  Biso   1.000  C
  C851     1.0000 0.25450  0.68572  0.55098  Biso   1.000  C
  C852     1.0000 0.01584  0.25047  0.28553  Biso   1.000  C
  C853     1.0000 0.81109  0.98680  0.27987  Biso   1.000  C
  C854     1.0000 0.23195  0.72252  0.00902  Biso   1.000  C
  C855     1.0000 0.06294  0.18229  0.79160  Biso   1.000  C
  C856     1.0000 0.30895  0.96617  0.28210  Biso   1.000  C
  C857     1.0000 0.72216  0.71059  0.52428  Biso   1.000  C
  C858     1.0000 0.55691  0.20794  0.74629  Biso   1.000  C
  C859     1.0000 0.75949  0.43023  0.24850  Biso   1.000  C
  C860     1.0000 0.30422  0.22900  0.07075  Biso   1.000  C
  C861     1.0000 0.48404  0.70940  0.82100  Biso   1.000  C
  C862     1.0000 0.22922  0.45461  0.28412  Biso   1.000  C
  C863     1.0000 0.82586  0.20884  0.51147  Biso   1.000  C
  C864     1.0000 0.02289  0.67219  0.78044  Biso   1.000  C
  C865     1.0000 0.77032  0.45075  0.81643  Biso   1.000  C
  C866     1.0000 0.79632  0.70055  0.52308  Biso   1.000  C
  C867     1.0000 0.48925  0.75719  0.78069  Biso   1.000  C
  C868     1.0000 0.27800  0.46297  0.74313  Biso   1.000  C
  C869     1.0000 0.30572  0.70937  0.04347  Biso   1.000  C
  C870     1.0000 0.01629  0.74544  0.78399  Biso   1.000  C
  C871     1.0000 0.80827  0.94934  0.78546  Biso   1.000  C
  C872     1.0000 0.75465  0.19810  0.51048  Biso   1.000  C
  C873     1.0000 0.02766  0.22006  0.74634  Biso   1.000  C
  C874     1.0000 0.27326  0.99621  0.73934  Biso   1.000  C
  C875     1.0000 0.23459  0.21456  0.06207  Biso   1.000  C
  C876     1.0000 0.55497  0.25576  0.78921  Biso   1.000  C
  C877     1.0000 0.30471  0.45690  0.27999  Biso   1.000  C
  C878     1.0000 0.28244  0.26273  0.53101  Biso   1.000  C
  C879     1.0000 0.54935  0.17139  0.28635  Biso   1.000  C
  C880     1.0000 0.77175  0.45692  0.32550  Biso   1.000  C
  C881     1.0000 0.76814  0.25460  0.00900  Biso   1.000  C
  C882     1.0000 0.02114  0.17761  0.27729  Biso   1.000  C
  C883     1.0000 0.26299  0.97823  0.24433  Biso   1.000  C
  C884     1.0000 0.26715  0.75884  0.54745  Biso   1.000  C
  C885     1.0000 0.03838  0.71385  0.32508  Biso   1.000  C
  C886     1.0000 0.77154  0.97995  0.32951  Biso   1.000  C
  C887     1.0000 0.77680  0.75824  0.03357  Biso   1.000  C
  C888     1.0000 0.53596  0.70208  0.25091  Biso   1.000  C
  C889     1.0000 0.74115  0.94944  0.29754  Biso   1.000  C
  C890     1.0000 0.27881  0.68167  0.00828  Biso   1.000  C
  C891     1.0000 0.06021  0.25118  0.77303  Biso   1.000  C
  C892     1.0000 0.23424  0.93889  0.26990  Biso   1.000  C
  C893     1.0000 0.76475  0.66357  0.54290  Biso   1.000  C
  C894     1.0000 0.51876  0.22828  0.81599  Biso   1.000  C
  C895     1.0000 0.80661  0.44383  0.28903  Biso   1.000  C
  C896     1.0000 0.26546  0.17939  0.03735  Biso   1.000  C
  C897     1.0000 0.51811  0.72806  0.74850  Biso   1.000  C
  C898     1.0000 0.27434  0.43368  0.24376  Biso   1.000  C
  C899     1.0000 0.78376  0.16135  0.53777  Biso   1.000  C
  C900     1.0000 0.04577  0.72033  0.81883  Biso   1.000  C
  C901     1.0000 0.30471  0.96072  0.76256  Biso   1.000  C
  C902     1.0000 0.73442  0.22761  0.04143  Biso   1.000  C
  C903     1.0000 0.01346  0.68126  0.29308  Biso   1.000  C
  C904     1.0000 0.77592  0.97489  0.81979  Biso   1.000  C
  C905     1.0000 0.25002  0.22653  0.51201  Biso   1.000  C
  C906     1.0000 0.50272  0.67141  0.28076  Biso   1.000  C
  C907     1.0000 0.24372  0.47860  0.77960  Biso   1.000  C
  C908     1.0000 0.80104  0.72663  0.06772  Biso   1.000  C
  C909     1.0000 0.52689  0.20600  0.31840  Biso   1.000  C
  C910     1.0000 0.74407  0.48748  0.78861  Biso   1.000  C
  C911     1.0000 0.29884  0.72774  0.52050  Biso   1.000  C
  C912     1.0000 0.98744  0.20635  0.24965  Biso   1.000  C
  C913     1.0000 0.79062  0.46691  0.76820  Biso   1.000  C
  C914     1.0000 0.74730  0.71327  0.54005  Biso   1.000  C
  C915     1.0000 0.50100  0.70665  0.79538  Biso   1.000  C
  C916     1.0000 0.29150  0.46932  0.79435  Biso   1.000  C
  C917     1.0000 0.25746  0.72758  0.02543  Biso   1.000  C
  C918     1.0000 0.03652  0.69782  0.77231  Biso   1.000  C
  C919     1.0000 0.75765  0.96273  0.77095  Biso   1.000  C
  C920     1.0000 0.79992  0.21260  0.52867  Biso   1.000  C
  C921     1.0000 0.04262  0.20350  0.79318  Biso   1.000  C
  C922     1.0000 0.25742  0.97309  0.78400  Biso   1.000  C
  C923     1.0000 0.28346  0.22854  0.04760  Biso   1.000  C
  C924     1.0000 0.53680  0.20679  0.76965  Biso   1.000  C
  C925     1.0000 0.25517  0.44135  0.29259  Biso   1.000  C
  C926     1.0000 0.29980  0.21148  0.51985  Biso   1.000  C
  C927     1.0000 0.53953  0.22007  0.26828  Biso   1.000  C
  C928     1.0000 0.75538  0.44531  0.27470  Biso   1.000  C
  C929     1.0000 0.78214  0.20711  0.02719  Biso   1.000  C
  C930     1.0000 0.00380  0.22441  0.29492  Biso   1.000  C
  C931     1.0000 0.28142  0.95586  0.28933  Biso   1.000  C
  C932     1.0000 0.25078  0.71065  0.53302  Biso   1.000  C
  C933     1.0000 0.02757  0.72909  0.27474  Biso   1.000  C
  C934     1.0000 0.78786  0.96773  0.27867  Biso   1.000  C
  C935     1.0000 0.75347  0.71116  0.04791  Biso   1.000  C
  C936     1.0000 0.52026  0.72002  0.29545  Biso   1.000  C
  C937     1.0000 0.76050  0.23067  0.02596  Biso   1.000  C
  C938     1.0000 0.02624  0.70795  0.29874  Biso   1.000  C
  C939     1.0000 0.27905  0.97687  0.76065  Biso   1.000  C
  C940     1.0000 0.27680  0.23456  0.52079  Biso   1.000  C
  C941     1.0000 0.51948  0.69564  0.27571  Biso   1.000  C
  C942     1.0000 0.78185  0.96314  0.79200  Biso   1.000  C
  C943     1.0000 0.77828  0.73169  0.04838  Biso   1.000  C
  C944     1.0000 0.54108  0.19997  0.29302  Biso   1.000  C
  C945     1.0000 0.26985  0.47101  0.77111  Biso   1.000  C
  C946     1.0000 0.27203  0.73349  0.53337  Biso   1.000  C
  C947     1.0000 0.00038  0.19952  0.27577  Biso   1.000  C
  C948     1.0000 0.76914  0.47007  0.79316  Biso   1.000  C
  C949     1.0000 0.28186  0.70648  0.02505  Biso   1.000  C
  C950     1.0000 0.04358  0.22591  0.77015  Biso   1.000  C
  C951     1.0000 0.76637  0.96679  0.30160  Biso   1.000  C
  C952     1.0000 0.77038  0.69197  0.53563  Biso   1.000  C
  C953     1.0000 0.53923  0.22911  0.79238  Biso   1.000  C
  C954     1.0000 0.25967  0.95649  0.26668  Biso   1.000  C
  C955     1.0000 0.26145  0.20670  0.04923  Biso   1.000  C
  C956     1.0000 0.50288  0.73132  0.77551  Biso   1.000  C
  C957     1.0000 0.77773  0.44801  0.29705  Biso   1.000  C
  C958     1.0000 0.77944  0.18931  0.52631  Biso   1.000  C
  C959     1.0000 0.03593  0.72358  0.79160  Biso   1.000  C
  C960     1.0000 0.27986  0.44267  0.27117  Biso   1.000  C
  Cu1      1.0000 0.03409  0.46136  0.68282  Biso   1.000  Cu
  Cu2      1.0000 0.67723  0.95343  0.53796  Biso   1.000  Cu
  Cu3      1.0000 0.51406  0.61831  0.03273  Biso   1.000  Cu
  Cu4      1.0000 0.52834  0.47236  0.87793  Biso   1.000  Cu
  Cu5      1.0000 0.17202  0.96743  0.03026  Biso   1.000  Cu
  Cu6      1.0000 0.01482  0.61604  0.53193  Biso   1.000  Cu
  Cu7      1.0000 0.52209  0.96886  0.68446  Biso   1.000  Cu
  Cu8      1.0000 0.87295  0.45508  0.53014  Biso   1.000  Cu
  Cu9      1.0000 0.01934  0.11889  0.03056  Biso   1.000  Cu
  Cu10     1.0000 0.02140  0.95858  0.87496  Biso   1.000  Cu
  Cu11     1.0000 0.36417  0.46392  0.03583  Biso   1.000  Cu
  Cu12     1.0000 0.53496  0.11672  0.53308  Biso   1.000  Cu
  Cu13     1.0000 0.01529  0.46648  0.37854  Biso   1.000  Cu
  Cu14     1.0000 0.36658  0.97060  0.52413  Biso   1.000  Cu
  Cu15     1.0000 0.52809  0.31099  0.03027  Biso   1.000  Cu
  Cu16     1.0000 0.52190  0.45879  0.18464  Biso   1.000  Cu
  Cu17     1.0000 0.86574  0.96702  0.03370  Biso   1.000  Cu
  Cu18     1.0000 0.03435  0.30631  0.52961  Biso   1.000  Cu
  Cu19     1.0000 0.52103  0.95714  0.37931  Biso   1.000  Cu
  Cu20     1.0000 0.17721  0.46735  0.53564  Biso   1.000  Cu
  Cu21     1.0000 0.01928  0.81189  0.03087  Biso   1.000  Cu
  Cu22     1.0000 0.02066  0.96633  0.18597  Biso   1.000  Cu
  Cu23     1.0000 0.67554  0.47047  0.03290  Biso   1.000  Cu
  Cu24     1.0000 0.51201  0.81319  0.53426  Biso   1.000  Cu
  Cu25     1.0000 0.22604  0.96710  0.02789  Biso   1.000  Cu
  Cu26     1.0000 0.02116  0.17418  0.03097  Biso   1.000  Cu
  Cu27     1.0000 0.01816  0.96553  0.23913  Biso   1.000  Cu
  Cu28     1.0000 0.73119  0.94984  0.53699  Biso   1.000  Cu
  Cu29     1.0000 0.53848  0.17189  0.52961  Biso   1.000  Cu
  Cu30     1.0000 0.52830  0.96033  0.32502  Biso   1.000  Cu
  Cu31     1.0000 0.31096  0.46221  0.03534  Biso   1.000  Cu
  Cu32     1.0000 0.51576  0.67236  0.03633  Biso   1.000  Cu
  Cu33     1.0000 0.52106  0.45553  0.24005  Biso   1.000  Cu
  Cu34     1.0000 0.81750  0.45264  0.53590  Biso   1.000  Cu
  Cu35     1.0000 0.01261  0.66972  0.53601  Biso   1.000  Cu
  Cu36     1.0000 0.01545  0.46650  0.32334  Biso   1.000  Cu
  Cu37     1.0000 0.81074  0.96596  0.03303  Biso   1.000  Cu
  Cu38     1.0000 0.01909  0.75876  0.02812  Biso   1.000  Cu
  Cu39     1.0000 0.01967  0.96302  0.82048  Biso   1.000  Cu
  Cu40     1.0000 0.31203  0.97773  0.52343  Biso   1.000  Cu
  Cu41     1.0000 0.50645  0.75891  0.53878  Biso   1.000  Cu
  Cu42     1.0000 0.51538  0.97197  0.73975  Biso   1.000  Cu
  Cu43     1.0000 0.73012  0.47296  0.03306  Biso   1.000  Cu
  Cu44     1.0000 0.52673  0.25684  0.02688  Biso   1.000  Cu
  Cu45     1.0000 0.52679  0.47287  0.82391  Biso   1.000  Cu
  Cu46     1.0000 0.23063  0.47356  0.53017  Biso   1.000  Cu
  Cu47     1.0000 0.03252  0.25099  0.53068  Biso   1.000  Cu
  Cu48     1.0000 0.03061  0.46084  0.73686  Biso   1.000  Cu
  H1       1.0000 0.24690  0.76299  0.55838  Biso   1.000  H
  H2       1.0000 0.56959  0.25689  0.76943  Biso   1.000  H
  H3       1.0000 0.74999  0.46132  0.33201  Biso   1.000  H
  H4       1.0000 0.75627  0.76638  0.02272  Biso   1.000  H
  H5       1.0000 0.01539  0.20031  0.74432  Biso   1.000  H
  H6       1.0000 0.30708  0.46655  0.30199  Biso   1.000  H
  H7       1.0000 0.30303  0.27150  0.53775  Biso   1.000  H
  H8       1.0000 0.00403  0.74420  0.76273  Biso   1.000  H
  H9       1.0000 0.79054  0.99356  0.33419  Biso   1.000  H
  H10      1.0000 0.78938  0.25804  0.99852  Biso   1.000  H
  H11      1.0000 0.47922  0.76048  0.80148  Biso   1.000  H
  H12      1.0000 0.28162  0.99279  0.24313  Biso   1.000  H
  H13      1.0000 0.75151  0.22015  0.50113  Biso   1.000  H
  H14      1.0000 0.54898  0.72126  0.24788  Biso   1.000  H
  H15      1.0000 0.30119  0.46352  0.73482  Biso   1.000  H
  H16      1.0000 0.23043  0.23649  0.07077  Biso   1.000  H
  H17      1.0000 0.04729  0.73446  0.33054  Biso   1.000  H
  H18      1.0000 0.78936  0.43676  0.82022  Biso   1.000  H
  H19      1.0000 0.80179  0.72165  0.51521  Biso   1.000  H
  H20      1.0000 0.03440  0.17615  0.29586  Biso   1.000  H
  H21      1.0000 0.25588  0.01197  0.74241  Biso   1.000  H
  H22      1.0000 0.31058  0.72811  0.05843  Biso   1.000  H
  H23      1.0000 0.55967  0.16490  0.26334  Biso   1.000  H
  H24      1.0000 0.81191  0.94097  0.76328  Biso   1.000  H
  H25      1.0000 0.28597  0.99231  0.81586  Biso   1.000  H
  H26      1.0000 0.76107  0.18719  0.06531  Biso   1.000  H
  H27      1.0000 0.99464  0.70593  0.24998  Biso   1.000  H
  H28      1.0000 0.77650  0.92668  0.74507  Biso   1.000  H
  H29      1.0000 0.28303  0.19000  0.48356  Biso   1.000  H
  H30      1.0000 0.53726  0.69173  0.32520  Biso   1.000  H
  H31      1.0000 0.27021  0.50379  0.81930  Biso   1.000  H
  H32      1.0000 0.76909  0.68631  0.08759  Biso   1.000  H
  H33      1.0000 0.50312  0.24157  0.28939  Biso   1.000  H
  H34      1.0000 0.76913  0.49263  0.73676  Biso   1.000  H
  H35      1.0000 0.22315  0.73324  0.50583  Biso   1.000  H
  H36      1.0000 0.98868  0.19951  0.33335  Biso   1.000  H
  H37      1.0000 0.76354  0.93960  0.24786  Biso   1.000  H
  H38      1.0000 0.27884  0.75720  0.05618  Biso   1.000  H
  H39      1.0000 0.00710  0.22514  0.81723  Biso   1.000  H
  H40      1.0000 0.25196  0.93958  0.32339  Biso   1.000  H
  H41      1.0000 0.77041  0.73703  0.57185  Biso   1.000  H
  H42      1.0000 0.50240  0.17960  0.79242  Biso   1.000  H
  H43      1.0000 0.72631  0.47526  0.29728  Biso   1.000  H
  H44      1.0000 0.26948  0.24223  0.00580  Biso   1.000  H
  H45      1.0000 0.53485  0.68116  0.77310  Biso   1.000  H
  H46      1.0000 0.27850  0.42198  0.32887  Biso   1.000  H
  H47      1.0000 0.77094  0.24235  0.55515  Biso   1.000  H
  H48      1.0000 0.05156  0.72532  0.73732  Biso   1.000  H
  H49      1.0000 0.22741  0.46328  0.26215  Biso   1.000  H
  H50      1.0000 0.32606  0.23253  0.55309  Biso   1.000  H
  H51      1.0000 0.57607  0.20417  0.24333  Biso   1.000  H
  H52      1.0000 0.77911  0.41533  0.24700  Biso   1.000  H
  H53      1.0000 0.80552  0.22070  0.98723  Biso   1.000  H
  H54      1.0000 0.02007  0.25283  0.26309  Biso   1.000  H
  H55      1.0000 0.31423  0.97236  0.26047  Biso   1.000  H
  H56      1.0000 0.27339  0.68459  0.56507  Biso   1.000  H
  H57      1.0000 0.06326  0.75395  0.29191  Biso   1.000  H
  H58      1.0000 0.81457  0.99920  0.29907  Biso   1.000  H
  H59      1.0000 0.73191  0.73167  0.01215  Biso   1.000  H
  H60      1.0000 0.49767  0.75020  0.26687  Biso   1.000  H
  H61      1.0000 0.81723  0.43797  0.79226  Biso   1.000  H
  H62      1.0000 0.72028  0.69510  0.50775  Biso   1.000  H
  H63      1.0000 0.46781  0.72620  0.82078  Biso   1.000  H
  H64      1.0000 0.31991  0.43848  0.77396  Biso   1.000  H
  H65      1.0000 0.22945  0.70342  0.99481  Biso   1.000  H
  H66      1.0000 0.01511  0.66800  0.80174  Biso   1.000  H
  H67      1.0000 0.73827  0.99844  0.79204  Biso   1.000  H
  H68      1.0000 0.83189  0.18832  0.50122  Biso   1.000  H
  H69      1.0000 0.08006  0.18214  0.77412  Biso   1.000  H
  H70      1.0000 0.22768  0.95072  0.75913  Biso   1.000  H
  H71      1.0000 0.30353  0.21406  0.08971  Biso   1.000  H
  H72      1.0000 0.57572  0.22190  0.74779  Biso   1.000  H
  H73      1.0000 0.74179  0.49923  0.76791  Biso   1.000  H
  H74      1.0000 0.74483  0.65711  0.55353  Biso   1.000  H
  H75      1.0000 0.53209  0.70825  0.74309  Biso   1.000  H
  H76      1.0000 0.23912  0.48285  0.80212  Biso   1.000  H
  H77      1.0000 0.26069  0.67795  0.99369  Biso   1.000  H
  H78      1.0000 0.05682  0.70016  0.82677  Biso   1.000  H
  H79      1.0000 0.75768  0.98744  0.82781  Biso   1.000  H
  H80      1.0000 0.80465  0.15707  0.54537  Biso   1.000  H
  H81      1.0000 0.07250  0.25431  0.79172  Biso   1.000  H
  H82      1.0000 0.30833  0.94777  0.78247  Biso   1.000  H
  H83      1.0000 0.28647  0.17395  0.02784  Biso   1.000  H
  H84      1.0000 0.50424  0.21192  0.82177  Biso   1.000  H
  H85      1.0000 0.25515  0.41994  0.24013  Biso   1.000  H
  H86      1.0000 0.24375  0.20378  0.50820  Biso   1.000  H
  H87      1.0000 0.51655  0.22705  0.32421  Biso   1.000  H
  H88      1.0000 0.81324  0.44090  0.26729  Biso   1.000  H
  H89      1.0000 0.73031  0.20769  0.05427  Biso   1.000  H
  H90      1.0000 0.97266  0.22528  0.24633  Biso   1.000  H
  H91      1.0000 0.23401  0.92066  0.28428  Biso   1.000  H
  H92      1.0000 0.30022  0.70803  0.50852  Biso   1.000  H
  H93      1.0000 0.00606  0.67547  0.27119  Biso   1.000  H
  H94      1.0000 0.73756  0.93860  0.27684  Biso   1.000  H
  H95      1.0000 0.80146  0.70674  0.08061  Biso   1.000  H
  H96      1.0000 0.49180  0.66567  0.30255  Biso   1.000  H
  H97      1.0000 0.88636  0.96261  0.93842  Biso   1.000  H
  H98      1.0000 0.92943  0.83212  0.03321  Biso   1.000  H
  H99      1.0000 0.01612  0.87068  0.89212  Biso   1.000  H
  H100     1.0000 0.38680  0.98296  0.61477  Biso   1.000  H
  H101     1.0000 0.41514  0.84219  0.53117  Biso   1.000  H
  H102     1.0000 0.50970  0.88090  0.66777  Biso   1.000  H
  H103     1.0000 0.65811  0.46830  0.94007  Biso   1.000  H
  H104     1.0000 0.61497  0.33625  0.02092  Biso   1.000  H
  H105     1.0000 0.52458  0.37988  0.89707  Biso   1.000  H
  H106     1.0000 0.16524  0.46912  0.62513  Biso   1.000  H
  H107     1.0000 0.12423  0.33119  0.52204  Biso   1.000  H
  H108     1.0000 0.02661  0.36949  0.66319  Biso   1.000  H
  H109     1.0000 0.15193  0.96926  0.12248  Biso   1.000  H
  H110     1.0000 0.11023  0.09918  0.03540  Biso   1.000  H
  H111     1.0000 0.02237  0.05944  0.16251  Biso   1.000  H
  H112     1.0000 0.65723  0.94681  0.44735  Biso   1.000  H
  H113     1.0000 0.62397  0.09180  0.52101  Biso   1.000  H
  H114     1.0000 0.52398  0.05226  0.40062  Biso   1.000  H
  H115     1.0000 0.38649  0.46637  0.12701  Biso   1.000  H
  H116     1.0000 0.42454  0.59767  0.02473  Biso   1.000  H
  H117     1.0000 0.52347  0.55302  0.16393  Biso   1.000  H
  H118     1.0000 0.88785  0.44959  0.43822  Biso   1.000  H
  H119     1.0000 0.92294  0.59524  0.53355  Biso   1.000  H
  H120     1.0000 0.01965  0.55699  0.40066  Biso   1.000  H
  H121     1.0000 0.11204  0.96848  0.89617  Biso   1.000  H
  H122     1.0000 0.88356  0.05763  0.03089  Biso   1.000  H
  H123     1.0000 0.03339  0.82994  0.12328  Biso   1.000  H
  H124     1.0000 0.60867  0.95351  0.66912  Biso   1.000  H
  H125     1.0000 0.39911  0.05908  0.51893  Biso   1.000  H
  H126     1.0000 0.50934  0.83046  0.43813  Biso   1.000  H
  H127     1.0000 0.43867  0.46026  0.90030  Biso   1.000  H
  H128     1.0000 0.64918  0.56158  0.04137  Biso   1.000  H
  H129     1.0000 0.54192  0.32777  0.11765  Biso   1.000  H
  H130     1.0000 0.94148  0.44903  0.66809  Biso   1.000  H
  H131     1.0000 0.15500  0.55532  0.53579  Biso   1.000  H
  H132     1.0000 0.03234  0.32942  0.44008  Biso   1.000  H
  H133     1.0000 0.92666  0.96304  0.16196  Biso   1.000  H
  H134     1.0000 0.15049  0.87353  0.03260  Biso   1.000  H
  H135     1.0000 0.02765  0.09810  0.93945  Biso   1.000  H
  H136     1.0000 0.43264  0.96602  0.39176  Biso   1.000  H
  H137     1.0000 0.65085  0.86650  0.55069  Biso   1.000  H
  H138     1.0000 0.53211  0.10562  0.62097  Biso   1.000  H
  H139     1.0000 0.61598  0.45609  0.16249  Biso   1.000  H
  H140     1.0000 0.38955  0.37626  0.04420  Biso   1.000  H
  H141     1.0000 0.51788  0.60389  0.94538  Biso   1.000  H
  H142     1.0000 0.10662  0.46580  0.40150  Biso   1.000  H
  H143     1.0000 0.89962  0.36314  0.53321  Biso   1.000  H
  H144     1.0000 0.01830  0.59295  0.62407  Biso   1.000  H
  H145     1.0000 0.61416  0.48143  0.89560  Biso   1.000  H
  H146     1.0000 0.88662  0.54966  0.53462  Biso   1.000  H
  H147     1.0000 0.49380  0.83256  0.62332  Biso   1.000  H
  H148     1.0000 0.12268  0.46191  0.66551  Biso   1.000  H
  H149     1.0000 0.38449  0.55579  0.02671  Biso   1.000  H
  H150     1.0000 0.00890  0.83464  0.93444  Biso   1.000  H
  H151     1.0000 0.92750  0.96107  0.89968  Biso   1.000  H
  H152     1.0000 0.66172  0.04721  0.52565  Biso   1.000  H
  H153     1.0000 0.03417  0.32605  0.62009  Biso   1.000  H
  H154     1.0000 0.42884  0.98671  0.65874  Biso   1.000  H
  H155     1.0000 0.15321  0.06260  0.02550  Biso   1.000  H
  H156     1.0000 0.52694  0.33767  0.93877  Biso   1.000  H
  H157     1.0000 0.42624  0.45316  0.16205  Biso   1.000  H
  H158     1.0000 0.16326  0.37679  0.52853  Biso   1.000  H
  H159     1.0000 0.52781  0.10003  0.44498  Biso   1.000  H
  H160     1.0000 0.92718  0.45748  0.39581  Biso   1.000  H
  H161     1.0000 0.65808  0.37863  0.02748  Biso   1.000  H
  H162     1.0000 0.02038  0.09999  0.12293  Biso   1.000  H
  H163     1.0000 0.11085  0.97297  0.17008  Biso   1.000  H
  H164     1.0000 0.37738  0.88242  0.52808  Biso   1.000  H
  H165     1.0000 0.01671  0.59683  0.44016  Biso   1.000  H
  H166     1.0000 0.61764  0.95496  0.40995  Biso   1.000  H
  H167     1.0000 0.88859  0.87632  0.02930  Biso   1.000  H
  H168     1.0000 0.52310  0.59539  0.12445  Biso   1.000  H
  H169     1.0000 0.03384  0.05259  0.89824  Biso   1.000  H
  H170     1.0000 0.88800  0.96913  0.12237  Biso   1.000  H
  H171     1.0000 0.11037  0.83454  0.02474  Biso   1.000  H
  H172     1.0000 0.53620  0.06054  0.66276  Biso   1.000  H
  H173     1.0000 0.38885  0.96371  0.43253  Biso   1.000  H
  H174     1.0000 0.60404  0.82738  0.54113  Biso   1.000  H
  H175     1.0000 0.52329  0.56431  0.90485  Biso   1.000  H
  H176     1.0000 0.65524  0.46885  0.12726  Biso   1.000  H
  H177     1.0000 0.43376  0.33076  0.05399  Biso   1.000  H
  H178     1.0000 0.02967  0.55302  0.66686  Biso   1.000  H
  H179     1.0000 0.14989  0.47013  0.44174  Biso   1.000  H
  H180     1.0000 0.94025  0.32506  0.53182  Biso   1.000  H
  H181     1.0000 0.02617  0.87714  0.16525  Biso   1.000  H
  H182     1.0000 0.15298  0.97651  0.93583  Biso   1.000  H
  H183     1.0000 0.92864  0.10253  0.02991  Biso   1.000  H
  H184     1.0000 0.51342  0.86805  0.39783  Biso   1.000  H
  H185     1.0000 0.65596  0.95962  0.62607  Biso   1.000  H
  H186     1.0000 0.44288  0.10080  0.53500  Biso   1.000  H
  H187     1.0000 0.52723  0.36857  0.16270  Biso   1.000  H
  H188     1.0000 0.38993  0.46221  0.94713  Biso   1.000  H
  H189     1.0000 0.60828  0.60308  0.02892  Biso   1.000  H
  H190     1.0000 0.01466  0.37192  0.40054  Biso   1.000  H
  H191     1.0000 0.89773  0.45449  0.62191  Biso   1.000  H
  H192     1.0000 0.10756  0.59874  0.53343  Biso   1.000  H
  H193     1.0000 0.27939  0.83034  0.52387  Biso   1.000  H
  H194     1.0000 0.52489  0.24131  0.88369  Biso   1.000  H
  H195     1.0000 0.87216  0.47212  0.30274  Biso   1.000  H
  H196     1.0000 0.79180  0.82807  0.05967  Biso   1.000  H
  H197     1.0000 0.04861  0.22942  0.67358  Biso   1.000  H
  H198     1.0000 0.38033  0.44999  0.26312  Biso   1.000  H
  H199     1.0000 0.26085  0.33279  0.51534  Biso   1.000  H
  H200     1.0000 0.01248  0.73337  0.88646  Biso   1.000  H
  H201     1.0000 0.66966  0.98075  0.31468  Biso   1.000  H
  H202     1.0000 0.75500  0.32693  0.02577  Biso   1.000  H
  H203     1.0000 0.49142  0.74056  0.68575  Biso   1.000  H
  H204     1.0000 0.16704  0.96164  0.26252  Biso   1.000  H
  H205     1.0000 0.76312  0.08823  0.52670  Biso   1.000  H
  H206     1.0000 0.52437  0.69312  0.17976  Biso   1.000  H
  H207     1.0000 0.17513  0.44847  0.76107  Biso   1.000  H
  H208     1.0000 0.24978  0.11083  0.05150  Biso   1.000  H
  H209     1.0000 0.01412  0.69813  0.39470  Biso   1.000  H
  H210     1.0000 0.66959  0.47361  0.79983  Biso   1.000  H
  H211     1.0000 0.78493  0.59175  0.52453  Biso   1.000  H
  H212     1.0000 0.01304  0.19870  0.17313  Biso   1.000  H
  H213     1.0000 0.37720  0.98823  0.75509  Biso   1.000  H
  H214     1.0000 0.28840  0.60649  0.01768  Biso   1.000  H
  H215     1.0000 0.55369  0.18961  0.38471  Biso   1.000  H
  H216     1.0000 0.88022  0.97354  0.80173  Biso   1.000  H
  H217     1.0000 0.24542  0.46925  0.38276  Biso   1.000  H
  H218     1.0000 0.39549  0.20164  0.52299  Biso   1.000  H
  H219     1.0000 0.53058  0.31416  0.25718  Biso   1.000  H
  H220     1.0000 0.75284  0.45786  0.17444  Biso   1.000  H
  H221     1.0000 0.87353  0.19805  0.03641  Biso   1.000  H
  H222     1.0000 0.00401  0.32205  0.30179  Biso   1.000  H
  H223     1.0000 0.29232  0.96833  0.38673  Biso   1.000  H
  H224     1.0000 0.15537  0.69887  0.52987  Biso   1.000  H
  H225     1.0000 0.02342  0.82260  0.26365  Biso   1.000  H
  H226     1.0000 0.79171  0.97430  0.18057  Biso   1.000  H
  H227     1.0000 0.65717  0.70313  0.03650  Biso   1.000  H
  H228     1.0000 0.52014  0.81387  0.30111  Biso   1.000  H
  H229     1.0000 0.80401  0.46191  0.67780  Biso   1.000  H
  H230     1.0000 0.64643  0.72659  0.54295  Biso   1.000  H
  H231     1.0000 0.50022  0.61051  0.80570  Biso   1.000  H
  H232     1.0000 0.29720  0.46412  0.88817  Biso   1.000  H
  H233     1.0000 0.16163  0.73583  0.01300  Biso   1.000  H
  H234     1.0000 0.04242  0.60563  0.76092  Biso   1.000  H
  H235     1.0000 0.74945  0.97166  0.68099  Biso   1.000  H
  H236     1.0000 0.89257  0.22385  0.53442  Biso   1.000  H
  H237     1.0000 0.02848  0.11003  0.80112  Biso   1.000  H
  H238     1.0000 0.24966  0.96267  0.88264  Biso   1.000  H
  H239     1.0000 0.37854  0.23532  0.04217  Biso   1.000  H
  H240     1.0000 0.53313  0.11399  0.75722  Biso   1.000  H
  H241     1.0000 0.75639  0.46994  0.89210  Biso   1.000  H
  H242     1.0000 0.86294  0.68528  0.54378  Biso   1.000  H
  H243     1.0000 0.50628  0.82927  0.76535  Biso   1.000  H
  H244     1.0000 0.25645  0.48713  0.67780  Biso   1.000  H
  H245     1.0000 0.37682  0.69444  0.02820  Biso   1.000  H
  H246     1.0000 0.01809  0.81839  0.79508  Biso   1.000  H
  H247     1.0000 0.79112  0.95133  0.88843  Biso   1.000  H
  H248     1.0000 0.68127  0.18427  0.53309  Biso   1.000  H
  H249     1.0000 0.03078  0.31546  0.75800  Biso   1.000  H
  H250     1.0000 0.28817  0.99298  0.66597  Biso   1.000  H
  H251     1.0000 0.15870  0.19736  0.04901  Biso   1.000  H
  H252     1.0000 0.52951  0.32843  0.80017  Biso   1.000  H
  H253     1.0000 0.29221  0.47025  0.18152  Biso   1.000  H
  H254     1.0000 0.17961  0.23898  0.53323  Biso   1.000  H
  H255     1.0000 0.52381  0.10533  0.30467  Biso   1.000  H
  H256     1.0000 0.79099  0.43534  0.39041  Biso   1.000  H
  H257     1.0000 0.67321  0.24256  0.00619  Biso   1.000  H
  H258     1.0000 0.99913  0.10901  0.26087  Biso   1.000  H
  H259     1.0000 0.24948  0.95946  0.17075  Biso   1.000  H
  H260     1.0000 0.36617  0.74455  0.53792  Biso   1.000  H
  H261     1.0000 0.03528  0.61489  0.30790  Biso   1.000  H
  H262     1.0000 0.75371  0.94459  0.39329  Biso   1.000  H
  H263     1.0000 0.87608  0.73864  0.05737  Biso   1.000  H
  H264     1.0000 0.52697  0.60115  0.26463  Biso   1.000  H
  H265     1.0000 0.03037  0.19261  0.88205  Biso   1.000  H
  H266     1.0000 0.87752  0.97089  0.26143  Biso   1.000  H
  H267     1.0000 0.25027  0.82387  0.02310  Biso   1.000  H
  H268     1.0000 0.54240  0.20056  0.67407  Biso   1.000  H
  H269     1.0000 0.37992  0.95636  0.29738  Biso   1.000  H
  H270     1.0000 0.74054  0.80206  0.53988  Biso   1.000  H
  H271     1.0000 0.50501  0.70028  0.89300  Biso   1.000  H
  H272     1.0000 0.66333  0.43697  0.25772  Biso   1.000  H
  H273     1.0000 0.29483  0.31884  0.03441  Biso   1.000  H
  H274     1.0000 0.01269  0.69061  0.68005  Biso   1.000  H
  H275     1.0000 0.15313  0.45010  0.30393  Biso   1.000  H
  H276     1.0000 0.80462  0.30753  0.52293  Biso   1.000  H
  H277     1.0000 0.03454  0.73365  0.17833  Biso   1.000  H
  H278     1.0000 0.16497  0.97698  0.79841  Biso   1.000  H
  H279     1.0000 0.79166  0.11586  0.03345  Biso   1.000  H
  H280     1.0000 0.51201  0.72991  0.39169  Biso   1.000  H
  H281     1.0000 0.65980  0.96824  0.76611  Biso   1.000  H
  H282     1.0000 0.30733  0.12032  0.50736  Biso   1.000  H
  H283     1.0000 0.54453  0.23120  0.17051  Biso   1.000  H
  H284     1.0000 0.38396  0.47551  0.80607  Biso   1.000  H
  H285     1.0000 0.74256  0.61450  0.05769  Biso   1.000  H
  H286     1.0000 0.03387  0.23316  0.38587  Biso   1.000  H
  H287     1.0000 0.88613  0.46690  0.76349  Biso   1.000  H
  H288     1.0000 0.24607  0.61777  0.53252  Biso   1.000  H
  H289     1.0000 0.10792  0.19300  0.05321  Biso   1.000  H
  H290     1.0000 0.00234  0.05368  0.25734  Biso   1.000  H
  H291     1.0000 0.24621  0.96185  0.11943  Biso   1.000  H
  H292     1.0000 0.63027  0.18755  0.53137  Biso   1.000  H
  H293     1.0000 0.51803  0.05213  0.30694  Biso   1.000  H
  H294     1.0000 0.75290  0.93651  0.44669  Biso   1.000  H
  H295     1.0000 0.42811  0.69214  0.04198  Biso   1.000  H
  H296     1.0000 0.52111  0.54641  0.26173  Biso   1.000  H
  H297     1.0000 0.29077  0.47243  0.13175  Biso   1.000  H
  H298     1.0000 0.92023  0.68934  0.54903  Biso   1.000  H
  H299     1.0000 0.03235  0.56410  0.30420  Biso   1.000  H
  H300     1.0000 0.79184  0.43652  0.44618  Biso   1.000  H
  H301     1.0000 0.92873  0.73750  0.04966  Biso   1.000  H
  H302     1.0000 0.01029  0.87225  0.79664  Biso   1.000  H
  H303     1.0000 0.79042  0.95888  0.94190  Biso   1.000  H
  H304     1.0000 0.41649  0.74537  0.54141  Biso   1.000  H
  H305     1.0000 0.51001  0.88304  0.76133  Biso   1.000  H
  H306     1.0000 0.29110  0.98810  0.61789  Biso   1.000  H
  H307     1.0000 0.61784  0.23879  0.00641  Biso   1.000  H
  H308     1.0000 0.53586  0.38271  0.80187  Biso   1.000  H
  H309     1.0000 0.75343  0.47447  0.94277  Biso   1.000  H
  H310     1.0000 0.12683  0.23557  0.53660  Biso   1.000  H
  H311     1.0000 0.02841  0.37430  0.75896  Biso   1.000  H
  H312     1.0000 0.25600  0.48751  0.62094  Biso   1.000  H
  H313     1.0000 0.25031  0.97167  0.93219  Biso   1.000  H
  H314     1.0000 0.92940  0.19774  0.04056  Biso   1.000  H
  H315     1.0000 0.02066  0.87571  0.26287  Biso   1.000  H
  H316     1.0000 0.75204  0.97015  0.62584  Biso   1.000  H
  H317     1.0000 0.44939  0.19804  0.52305  Biso   1.000  H
  H318     1.0000 0.52226  0.87004  0.30363  Biso   1.000  H
  H319     1.0000 0.29407  0.45487  0.94179  Biso   1.000  H
  H320     1.0000 0.60582  0.69932  0.02133  Biso   1.000  H
  H321     1.0000 0.51896  0.36766  0.25896  Biso   1.000  H
  H322     1.0000 0.80341  0.46203  0.62550  Biso   1.000  H
  H323     1.0000 0.10068  0.69379  0.53440  Biso   1.000  H
  H324     1.0000 0.99673  0.37497  0.30770  Biso   1.000  H
  H325     1.0000 0.79226  0.97403  0.12663  Biso   1.000  H
  H326     1.0000 0.10983  0.73768  0.01063  Biso   1.000  H
  H327     1.0000 0.02887  0.05524  0.79989  Biso   1.000  H
  H328     1.0000 0.29320  0.95925  0.43843  Biso   1.000  H
  H329     1.0000 0.59190  0.73336  0.54861  Biso   1.000  H
  H330     1.0000 0.51646  0.06171  0.75968  Biso   1.000  H
  H331     1.0000 0.75144  0.46510  0.12148  Biso   1.000  H
  H332     1.0000 0.43448  0.23651  0.04667  Biso   1.000  H
  H333     1.0000 0.51252  0.55933  0.80746  Biso   1.000  H
  H334     1.0000 0.24633  0.48055  0.43642  Biso   1.000  H
  H335     1.0000 0.94492  0.22702  0.54264  Biso   1.000  H
  H336     1.0000 0.04989  0.55002  0.76072  Biso   1.000  H
  H337     1.0000 0.02220  0.19382  0.93951  Biso   1.000  H
  H338     1.0000 0.93080  0.96266  0.25862  Biso   1.000  H
  H339     1.0000 0.24781  0.87785  0.02886  Biso   1.000  H
  H340     1.0000 0.54535  0.20124  0.61987  Biso   1.000  H
  H341     1.0000 0.43764  0.96630  0.29601  Biso   1.000  H
  H342     1.0000 0.74378  0.85755  0.53805  Biso   1.000  H
  H343     1.0000 0.49960  0.69823  0.94522  Biso   1.000  H
  H344     1.0000 0.60949  0.44190  0.25821  Biso   1.000  H
  H345     1.0000 0.29398  0.36920  0.04017  Biso   1.000  H
  H346     1.0000 0.00972  0.69180  0.62717  Biso   1.000  H
  H347     1.0000 0.10330  0.45170  0.30577  Biso   1.000  H
  H348     1.0000 0.80500  0.36310  0.52508  Biso   1.000  H
  H349     1.0000 0.02876  0.73349  0.12546  Biso   1.000  H
  H350     1.0000 0.11308  0.97111  0.79788  Biso   1.000  H
  H351     1.0000 0.78653  0.06096  0.03570  Biso   1.000  H
  H352     1.0000 0.51130  0.73165  0.44594  Biso   1.000  H
  H353     1.0000 0.60733  0.96478  0.76375  Biso   1.000  H
  H354     1.0000 0.30511  0.06821  0.50928  Biso   1.000  H
  H355     1.0000 0.54774  0.23208  0.11665  Biso   1.000  H
  H356     1.0000 0.43592  0.47299  0.80494  Biso   1.000  H
  H357     1.0000 0.74156  0.56195  0.05480  Biso   1.000  H
  H358     1.0000 0.04451  0.23591  0.43759  Biso   1.000  H
  H359     1.0000 0.94171  0.46394  0.76440  Biso   1.000  H
  H360     1.0000 0.24891  0.56303  0.54131  Biso   1.000  H
  H361     1.0000 0.01421  0.69118  0.45087  Biso   1.000  H
  H362     1.0000 0.42852  0.97865  0.75304  Biso   1.000  H
  H363     1.0000 0.75488  0.37756  0.03224  Biso   1.000  H
  H364     1.0000 0.52287  0.69275  0.12751  Biso   1.000  H
  H365     1.0000 0.92826  0.96806  0.80261  Biso   1.000  H
  H366     1.0000 0.25777  0.38465  0.51151  Biso   1.000  H
  H367     1.0000 0.55467  0.19294  0.43696  Biso   1.000  H
  H368     1.0000 0.12085  0.44572  0.76132  Biso   1.000  H
  H369     1.0000 0.79339  0.87907  0.04735  Biso   1.000  H
  H370     1.0000 0.01194  0.19340  0.11893  Biso   1.000  H
  H371     1.0000 0.61696  0.47811  0.79985  Biso   1.000  H
  H372     1.0000 0.28200  0.88657  0.51842  Biso   1.000  H
  H373     1.0000 0.04706  0.23034  0.62039  Biso   1.000  H
  H374     1.0000 0.61555  0.97936  0.31601  Biso   1.000  H
  H375     1.0000 0.29040  0.55160  0.01410  Biso   1.000  H
  H376     1.0000 0.51867  0.24148  0.93694  Biso   1.000  H
  H377     1.0000 0.11318  0.96650  0.26510  Biso   1.000  H
  H378     1.0000 0.79036  0.54227  0.51922  Biso   1.000  H
  H379     1.0000 0.49167  0.73795  0.62899  Biso   1.000  H
  H380     1.0000 0.92765  0.46857  0.30231  Biso   1.000  H
  H381     1.0000 0.24958  0.06002  0.04295  Biso   1.000  H
  H382     1.0000 0.00946  0.73945  0.94223  Biso   1.000  H
  H383     1.0000 0.43314  0.44911  0.26057  Biso   1.000  H
  H384     1.0000 0.75723  0.03538  0.52026  Biso   1.000  H
  H385     1.0000 0.23648  0.42579  0.36351  Biso   1.000  H
  H386     1.0000 0.31951  0.15060  0.48365  Biso   1.000  H
  H387     1.0000 0.50022  0.28085  0.24954  Biso   1.000  H
  H388     1.0000 0.69181  0.47758  0.26069  Biso   1.000  H
  H389     1.0000 0.79286  0.14661  0.06495  Biso   1.000  H
  H390     1.0000 0.99795  0.23612  0.36738  Biso   1.000  H
  H391     1.0000 0.28972  0.93759  0.35870  Biso   1.000  H
  H392     1.0000 0.18935  0.69268  0.50023  Biso   1.000  H
  H393     1.0000 0.99489  0.74126  0.21209  Biso   1.000  H
  H394     1.0000 0.79462  0.94082  0.20879  Biso   1.000  H
  H395     1.0000 0.73304  0.64833  0.08388  Biso   1.000  H
  H396     1.0000 0.54117  0.72947  0.36309  Biso   1.000  H
  H397     1.0000 0.80815  0.49948  0.70541  Biso   1.000  H
  H398     1.0000 0.72631  0.77436  0.57760  Biso   1.000  H
  H399     1.0000 0.53768  0.64554  0.80607  Biso   1.000  H
  H400     1.0000 0.29966  0.50294  0.86055  Biso   1.000  H
  H401     1.0000 0.24468  0.79279  0.05270  Biso   1.000  H
  H402     1.0000 0.05120  0.69101  0.70031  Biso   1.000  H
  H403     1.0000 0.73384  0.92284  0.71262  Biso   1.000  H
  H404     1.0000 0.80915  0.28120  0.55512  Biso   1.000  H
  H405     1.0000 0.99597  0.18772  0.84926  Biso   1.000  H
  H406     1.0000 0.25003  0.99719  0.85311  Biso   1.000  H
  H407     1.0000 0.31104  0.28026  0.00219  Biso   1.000  H
  H408     1.0000 0.49932  0.14353  0.75408  Biso   1.000  H
  H409     1.0000 0.29141  0.43091  0.19971  Biso   1.000  H
  H410     1.0000 0.20516  0.24097  0.50332  Biso   1.000  H
  H411     1.0000 0.51334  0.19021  0.36059  Biso   1.000  H
  H412     1.0000 0.84939  0.43607  0.29849  Biso   1.000  H
  H413     1.0000 0.69138  0.24334  0.04656  Biso   1.000  H
  H414     1.0000 0.98044  0.18965  0.20504  Biso   1.000  H
  H415     1.0000 0.19358  0.92646  0.25244  Biso   1.000  H
  H416     1.0000 0.33829  0.74429  0.50331  Biso   1.000  H
  H417     1.0000 0.99643  0.64265  0.30969  Biso   1.000  H
  H418     1.0000 0.69858  0.93844  0.31310  Biso   1.000  H
  H419     1.0000 0.84289  0.73881  0.07994  Biso   1.000  H
  H420     1.0000 0.48859  0.63185  0.26002  Biso   1.000  H
  H421     1.0000 0.70628  0.50656  0.80803  Biso   1.000  H
  H422     1.0000 0.77841  0.62231  0.55075  Biso   1.000  H
  H423     1.0000 0.53121  0.74612  0.70841  Biso   1.000  H
  H424     1.0000 0.20092  0.48612  0.76697  Biso   1.000  H
  H425     1.0000 0.29585  0.63913  0.99338  Biso   1.000  H
  H426     1.0000 0.05289  0.74361  0.85806  Biso   1.000  H
  H427     1.0000 0.78942  0.98254  0.86034  Biso   1.000  H
  H428     1.0000 0.76296  0.12075  0.55113  Biso   1.000  H
  H429     1.0000 0.07249  0.29291  0.75492  Biso   1.000  H
  H430     1.0000 0.34742  0.95222  0.74068  Biso   1.000  H
  H431     1.0000 0.24479  0.13988  0.02229  Biso   1.000  H
  H432     1.0000 0.49642  0.25053  0.85240  Biso   1.000  H
  H433     1.0000 0.28707  0.01798  0.69967  Biso   1.000  H
  H434     1.0000 0.75215  0.29509  0.99157  Biso   1.000  H
  H435     1.0000 0.05060  0.69734  0.36515  Biso   1.000  H
  H436     1.0000 0.84878  0.93293  0.80119  Biso   1.000  H
  H437     1.0000 0.26332  0.30266  0.54503  Biso   1.000  H
  H438     1.0000 0.55077  0.69115  0.21093  Biso   1.000  H
  H439     1.0000 0.26465  0.45034  0.70191  Biso   1.000  H
  H440     1.0000 0.79473  0.79827  0.02205  Biso   1.000  H
  H441     1.0000 0.55876  0.12872  0.30113  Biso   1.000  H
  H442     1.0000 0.74897  0.43605  0.85555  Biso   1.000  H
  H443     1.0000 0.28320  0.79863  0.56021  Biso   1.000  H
  H444     1.0000 0.03828  0.13977  0.25537  Biso   1.000  H
  H445     1.0000 0.75352  0.98706  0.37232  Biso   1.000  H
  H446     1.0000 0.34457  0.69165  0.05815  Biso   1.000  H
  H447     1.0000 0.01050  0.23244  0.70626  Biso   1.000  H
  H448     1.0000 0.24390  0.99519  0.20422  Biso   1.000  H
  H449     1.0000 0.83884  0.68595  0.51156  Biso   1.000  H
  H450     1.0000 0.56301  0.29849  0.80211  Biso   1.000  H
  H451     1.0000 0.78497  0.46783  0.36698  Biso   1.000  H
  H452     1.0000 0.19066  0.19749  0.07243  Biso   1.000  H
  H453     1.0000 0.47297  0.79790  0.76393  Biso   1.000  H
  H454     1.0000 0.34814  0.46782  0.27007  Biso   1.000  H
  H455     1.0000 0.71228  0.17956  0.50137  Biso   1.000  H
  H456     1.0000 0.99308  0.78245  0.79929  Biso   1.000  H
  H457     1.0000 0.68186  0.73160  0.51026  Biso   1.000  H
  H458     1.0000 0.47507  0.69349  0.86394  Biso   1.000  H
  H459     1.0000 0.85889  0.43843  0.76322  Biso   1.000  H
  H460     1.0000 0.19456  0.73903  0.99021  Biso   1.000  H
  H461     1.0000 0.00993  0.63088  0.76714  Biso   1.000  H
  H462     1.0000 0.35696  0.44124  0.81062  Biso   1.000  H
  H463     1.0000 0.86354  0.22808  0.49504  Biso   1.000  H
  H464     1.0000 0.07246  0.14012  0.81139  Biso   1.000  H
  H465     1.0000 0.69781  0.00297  0.75491  Biso   1.000  H
  H466     1.0000 0.34131  0.25178  0.08677  Biso   1.000  H
  H467     1.0000 0.57263  0.18646  0.70668  Biso   1.000  H
  H468     1.0000 0.19412  0.94376  0.80161  Biso   1.000  H
  H469     1.0000 0.36135  0.19521  0.55299  Biso   1.000  H
  H470     1.0000 0.57247  0.23799  0.20387  Biso   1.000  H
  H471     1.0000 0.19090  0.47440  0.29688  Biso   1.000  H
  H472     1.0000 0.84705  0.18585  0.99663  Biso   1.000  H
  H473     1.0000 0.03649  0.29107  0.29846  Biso   1.000  H
  H474     1.0000 0.74304  0.42205  0.20468  Biso   1.000  H
  H475     1.0000 0.23414  0.64494  0.56767  Biso   1.000  H
  H476     1.0000 0.06609  0.78966  0.25375  Biso   1.000  H
  H477     1.0000 0.35127  0.98076  0.29535  Biso   1.000  H
  H478     1.0000 0.69431  0.69273  0.00971  Biso   1.000  H
  H479     1.0000 0.49086  0.78553  0.30753  Biso   1.000  H
  H480     1.0000 0.84958  0.00236  0.26131  Biso   1.000  H
  N1       1.0000 0.71241  0.12919  0.52758  Biso   1.000  N
  N2       1.0000 0.52190  0.63779  0.21138  Biso   1.000  N
  N3       1.0000 0.20765  0.46654  0.71013  Biso   1.000  N
  N4       1.0000 0.19521  0.14534  0.04683  Biso   1.000  N
  N5       1.0000 0.02213  0.64583  0.36037  Biso   1.000  N
  N6       1.0000 0.70202  0.47213  0.85383  Biso   1.000  N
  N7       1.0000 0.83571  0.63247  0.53149  Biso   1.000  N
  N8       1.0000 0.00963  0.14358  0.20752  Biso   1.000  N
  N9       1.0000 0.34160  0.98872  0.70045  Biso   1.000  N
  N10      1.0000 0.34157  0.64006  0.02489  Biso   1.000  N
  N11      1.0000 0.53634  0.13696  0.35679  Biso   1.000  N
  N12      1.0000 0.84421  0.95949  0.85405  Biso   1.000  N
  N13      1.0000 0.33305  0.79811  0.53155  Biso   1.000  N
  N14      1.0000 0.53093  0.29599  0.85219  Biso   1.000  N
  N15      1.0000 0.84140  0.45298  0.35732  Biso   1.000  N
  N16      1.0000 0.84504  0.79033  0.04978  Biso   1.000  N
  N17      1.0000 0.04106  0.28537  0.70636  Biso   1.000  N
  N18      1.0000 0.34452  0.45693  0.21307  Biso   1.000  N
  N19      1.0000 0.21032  0.29455  0.52499  Biso   1.000  N
  N20      1.0000 0.01801  0.78491  0.85172  Biso   1.000  N
  N21      1.0000 0.70110  0.96332  0.36456  Biso   1.000  N
  N22      1.0000 0.70180  0.29490  0.01998  Biso   1.000  N
  N23      1.0000 0.49838  0.79460  0.71241  Biso   1.000  N
  N24      1.0000 0.19729  0.96106  0.20699  Biso   1.000  N
  N25      1.0000 0.85742  0.46670  0.70979  Biso   1.000  N
  N26      1.0000 0.68316  0.77516  0.54498  Biso   1.000  N
  N27      1.0000 0.50803  0.64688  0.85887  Biso   1.000  N
  N28      1.0000 0.35038  0.47014  0.85869  Biso   1.000  N
  N29      1.0000 0.19510  0.79050  0.02233  Biso   1.000  N
  N30      1.0000 0.02755  0.63760  0.70891  Biso   1.000  N
  N31      1.0000 0.69461  0.96450  0.71269  Biso   1.000  N
  N32      1.0000 0.85878  0.27864  0.52740  Biso   1.000  N
  N33      1.0000 0.03470  0.13999  0.85328  Biso   1.000  N
  N34      1.0000 0.19678  0.97068  0.85111  Biso   1.000  N
  N35      1.0000 0.34894  0.28791  0.04402  Biso   1.000  N
  N36      1.0000 0.53267  0.14666  0.70568  Biso   1.000  N
  N37      1.0000 0.19092  0.45776  0.35433  Biso   1.000  N
  N38      1.0000 0.36165  0.14892  0.51812  Biso   1.000  N
  N39      1.0000 0.53449  0.28202  0.20324  Biso   1.000  N
  N40      1.0000 0.69705  0.45070  0.20838  Biso   1.000  N
  N41      1.0000 0.84321  0.14385  0.03289  Biso   1.000  N
  N42      1.0000 0.01965  0.28842  0.35403  Biso   1.000  N
  N43      1.0000 0.34614  0.96036  0.35024  Biso   1.000  N
  N44      1.0000 0.19120  0.64344  0.53003  Biso   1.000  N
  N45      1.0000 0.02806  0.79014  0.21000  Biso   1.000  N
  N46      1.0000 0.84482  0.97094  0.20959  Biso   1.000  N
  N47      1.0000 0.68962  0.64887  0.04574  Biso   1.000  N
  N48      1.0000 0.51521  0.78153  0.35769  Biso   1.000  N
  O1       1.0000 0.36175  0.50601  0.02735  Biso   1.000  O
  O2       1.0000 0.03375  0.29974  0.57016  Biso   1.000  O
  O3       1.0000 0.56179  0.95913  0.38226  Biso   1.000  O
  O4       1.0000 0.86441  0.49644  0.53120  Biso   1.000  O
  O5       1.0000 0.52258  0.31157  0.98906  Biso   1.000  O
  O6       1.0000 0.06249  0.96642  0.19242  Biso   1.000  O
  O7       1.0000 0.17658  0.01004  0.03137  Biso   1.000  O
  O8       1.0000 0.50858  0.80902  0.57680  Biso   1.000  O
  O9       1.0000 0.97343  0.46394  0.37379  Biso   1.000  O
  O10      1.0000 0.68146  0.99431  0.52811  Biso   1.000  O
  O11      1.0000 0.01033  0.81322  0.98931  Biso   1.000  O
  O12      1.0000 0.48047  0.45888  0.18619  Biso   1.000  O
  O13      1.0000 0.68052  0.42818  0.03052  Biso   1.000  O
  O14      1.0000 0.01099  0.61784  0.49230  Biso   1.000  O
  O15      1.0000 0.47939  0.97190  0.68241  Biso   1.000  O
  O16      1.0000 0.18577  0.42892  0.53593  Biso   1.000  O
  O17      1.0000 0.51815  0.61893  0.07546  Biso   1.000  O
  O18      1.0000 0.98022  0.96075  0.87460  Biso   1.000  O
  O19      1.0000 0.86733  0.92383  0.03389  Biso   1.000  O
  O20      1.0000 0.53821  0.12150  0.49200  Biso   1.000  O
  O21      1.0000 0.07562  0.45662  0.68508  Biso   1.000  O
  O22      1.0000 0.35795  0.93200  0.52897  Biso   1.000  O
  O23      1.0000 0.02100  0.12131  0.07452  Biso   1.000  O
  O24      1.0000 0.56907  0.47330  0.87209  Biso   1.000  O
  O25      1.0000 0.97997  0.96361  0.18552  Biso   1.000  O
  O26      1.0000 0.17399  0.92586  0.02911  Biso   1.000  O
  O27      1.0000 0.02101  0.12258  0.98721  Biso   1.000  O
  O28      1.0000 0.48009  0.95392  0.37248  Biso   1.000  O
  O29      1.0000 0.67830  0.91237  0.55073  Biso   1.000  O
  O30      1.0000 0.53089  0.12714  0.57368  Biso   1.000  O
  O31      1.0000 0.56320  0.45908  0.18766  Biso   1.000  O
  O32      1.0000 0.36360  0.42123  0.04545  Biso   1.000  O
  O33      1.0000 0.50704  0.62336  0.99172  Biso   1.000  O
  O34      1.0000 0.05597  0.46159  0.37722  Biso   1.000  O
  O35      1.0000 0.87220  0.41370  0.52996  Biso   1.000  O
  O36      1.0000 0.01646  0.61704  0.57629  Biso   1.000  O
  O37      1.0000 0.06429  0.95931  0.87052  Biso   1.000  O
  O38      1.0000 0.85843  0.00882  0.03155  Biso   1.000  O
  O39      1.0000 0.02465  0.80669  0.07247  Biso   1.000  O
  O40      1.0000 0.56118  0.96362  0.69190  Biso   1.000  O
  O41      1.0000 0.36870  0.01196  0.51389  Biso   1.000  O
  O42      1.0000 0.51149  0.80936  0.49211  Biso   1.000  O
  O43      1.0000 0.48732  0.47305  0.87496  Biso   1.000  O
  O44      1.0000 0.67480  0.51224  0.03598  Biso   1.000  O
  O45      1.0000 0.53809  0.30784  0.07066  Biso   1.000  O
  O46      1.0000 0.98959  0.46483  0.68779  Biso   1.000  O
  O47      1.0000 0.17974  0.51046  0.53718  Biso   1.000  O
  O48      1.0000 0.03608  0.30227  0.48779  Biso   1.000  O
  O49      1.0000 0.01958  0.92593  0.18967  Biso   1.000  O
  O50      1.0000 0.17706  0.96966  0.98718  Biso   1.000  O
  O51      1.0000 0.97806  0.12576  0.02940  Biso   1.000  O
  O52      1.0000 0.51876  0.91528  0.37622  Biso   1.000  O
  O53      1.0000 0.68143  0.96346  0.57793  Biso   1.000  O
  O54      1.0000 0.49540  0.12505  0.53229  Biso   1.000  O
  O55      1.0000 0.52152  0.41571  0.18470  Biso   1.000  O
  O56      1.0000 0.36290  0.45583  0.99568  Biso   1.000  O
  O57      1.0000 0.55810  0.62488  0.02669  Biso   1.000  O
  O58      1.0000 0.01335  0.42418  0.37707  Biso   1.000  O
  O59      1.0000 0.87344  0.45925  0.57297  Biso   1.000  O
  O60      1.0000 0.05568  0.62021  0.52875  Biso   1.000  O
  O61      1.0000 0.02623  0.00491  0.87424  Biso   1.000  O
  O62      1.0000 0.86094  0.97333  0.07480  Biso   1.000  O
  O63      1.0000 0.06249  0.81117  0.02448  Biso   1.000  O
  O64      1.0000 0.52567  0.01124  0.68747  Biso   1.000  O
  O65      1.0000 0.36374  0.96595  0.48417  Biso   1.000  O
  O66      1.0000 0.55466  0.80890  0.52619  Biso   1.000  O
  O67      1.0000 0.52695  0.51401  0.87809  Biso   1.000  O
  O68      1.0000 0.68051  0.46669  0.07541  Biso   1.000  O
  O69      1.0000 0.48534  0.30795  0.03801  Biso   1.000  O
  O70      1.0000 0.03915  0.50200  0.68883  Biso   1.000  O
  O71      1.0000 0.17755  0.46758  0.49209  Biso   1.000  O
  O72      1.0000 0.99259  0.30294  0.53395  Biso   1.000  O
  O73      1.0000 0.02924  0.41968  0.68646  Biso   1.000  O
  O74      1.0000 0.68010  0.94230  0.49729  Biso   1.000  O
  O75      1.0000 0.47318  0.61706  0.04128  Biso   1.000  O
  O76      1.0000 0.52850  0.42978  0.87494  Biso   1.000  O
  O77      1.0000 0.17430  0.96622  0.07205  Biso   1.000  O
  O78      1.0000 0.96990  0.61861  0.53131  Biso   1.000  O
  O79      1.0000 0.51733  0.92678  0.68750  Biso   1.000  O
  O80      1.0000 0.86661  0.45709  0.48833  Biso   1.000  O
  O81      1.0000 0.06051  0.12078  0.03599  Biso   1.000  O
  O82      1.0000 0.02036  0.91887  0.87061  Biso   1.000  O
  O83      1.0000 0.36007  0.47065  0.07714  Biso   1.000  O
  O84      1.0000 0.57772  0.11526  0.53226  Biso   1.000  O
  O85      1.0000 0.01828  0.50860  0.37419  Biso   1.000  O
  O86      1.0000 0.36621  0.97652  0.56537  Biso   1.000  O
  O87      1.0000 0.57031  0.30874  0.02437  Biso   1.000  O
  O88      1.0000 0.52368  0.50172  0.18818  Biso   1.000  O
  O89      1.0000 0.86131  0.96866  0.99230  Biso   1.000  O
  O90      1.0000 0.07653  0.30545  0.53373  Biso   1.000  O
  O91      1.0000 0.52396  0.00116  0.37870  Biso   1.000  O
  O92      1.0000 0.18483  0.47262  0.57634  Biso   1.000  O
  O93      1.0000 0.97863  0.80894  0.03937  Biso   1.000  O
  O94      1.0000 0.02029  0.00869  0.18924  Biso   1.000  O
  O95      1.0000 0.67834  0.47349  0.99126  Biso   1.000  O
  O96      1.0000 0.47009  0.81408  0.53420  Biso   1.000  O
  O97      1.0000 0.49751  0.17326  0.53100  Biso   1.000  O
  O98      1.0000 0.51701  0.41334  0.23336  Biso   1.000  O
  O99      1.0000 0.22560  0.47807  0.48610  Biso   1.000  O
  O100     1.0000 0.97798  0.17370  0.03101  Biso   1.000  O
  O101     1.0000 0.00780  0.42303  0.32886  Biso   1.000  O
  O102     1.0000 0.72890  0.46459  0.07508  Biso   1.000  O
  O103     1.0000 0.05409  0.66874  0.53625  Biso   1.000  O
  O104     1.0000 0.02632  0.92507  0.23631  Biso   1.000  O
  O105     1.0000 0.31384  0.97089  0.48413  Biso   1.000  O
  O106     1.0000 0.55812  0.67413  0.03158  Biso   1.000  O
  O107     1.0000 0.52754  0.91829  0.32826  Biso   1.000  O
  O108     1.0000 0.81336  0.97075  0.07487  Biso   1.000  O
  O109     1.0000 0.54824  0.76062  0.53844  Biso   1.000  O
  O110     1.0000 0.51897  0.51432  0.82908  Biso   1.000  O
  O111     1.0000 0.82624  0.45465  0.57694  Biso   1.000  O
  O112     1.0000 0.05998  0.76418  0.01391  Biso   1.000  O
  O113     1.0000 0.03226  0.50161  0.73694  Biso   1.000  O
  O114     1.0000 0.31422  0.46036  0.99285  Biso   1.000  O
  O115     1.0000 0.99028  0.25262  0.53365  Biso   1.000  O
  O116     1.0000 0.02461  0.00518  0.82519  Biso   1.000  O
  O117     1.0000 0.72988  0.96663  0.57712  Biso   1.000  O
  O118     1.0000 0.48399  0.25970  0.03758  Biso   1.000  O
  O119     1.0000 0.51708  0.01319  0.73633  Biso   1.000  O
  O120     1.0000 0.22601  0.97084  0.98496  Biso   1.000  O
  O121     1.0000 0.07123  0.45412  0.73483  Biso   1.000  O
  O122     1.0000 0.72758  0.99126  0.52836  Biso   1.000  O
  O123     1.0000 0.52446  0.66911  0.07754  Biso   1.000  O
  O124     1.0000 0.56854  0.48242  0.82476  Biso   1.000  O
  O125     1.0000 0.22328  0.00957  0.03659  Biso   1.000  O
  O126     1.0000 0.01249  0.66845  0.49446  Biso   1.000  O
  O127     1.0000 0.47543  0.97541  0.73105  Biso   1.000  O
  O128     1.0000 0.81613  0.49342  0.53348  Biso   1.000  O
  O129     1.0000 0.01661  0.16994  0.07433  Biso   1.000  O
  O130     1.0000 0.97887  0.96283  0.82414  Biso   1.000  O
  O131     1.0000 0.31276  0.50494  0.03223  Biso   1.000  O
  O132     1.0000 0.53911  0.16965  0.49015  Biso   1.000  O
  O133     1.0000 0.97473  0.47085  0.32444  Biso   1.000  O
  O134     1.0000 0.30827  0.93528  0.53141  Biso   1.000  O
  O135     1.0000 0.51652  0.26340  0.98819  Biso   1.000  O
  O136     1.0000 0.48048  0.45686  0.23484  Biso   1.000  O
  O137     1.0000 0.81759  0.92465  0.04092  Biso   1.000  O
  O138     1.0000 0.03067  0.25092  0.57254  Biso   1.000  O
  O139     1.0000 0.56728  0.96163  0.33509  Biso   1.000  O
  O140     1.0000 0.23368  0.43215  0.52673  Biso   1.000  O
  O141     1.0000 0.01087  0.76494  0.98841  Biso   1.000  O
  O142     1.0000 0.06144  0.97351  0.24047  Biso   1.000  O
  O143     1.0000 0.72929  0.43126  0.02742  Biso   1.000  O
  O144     1.0000 0.50780  0.75980  0.58032  Biso   1.000  O
  O145     1.0000 0.56336  0.45124  0.23695  Biso   1.000  O
  O146     1.0000 0.22692  0.51404  0.53453  Biso   1.000  O
  O147     1.0000 0.53931  0.17625  0.57086  Biso   1.000  O
  O148     1.0000 0.05566  0.45782  0.32854  Biso   1.000  O
  O149     1.0000 0.72248  0.51607  0.03605  Biso   1.000  O
  O150     1.0000 0.02423  0.17103  0.98918  Biso   1.000  O
  O151     1.0000 0.97685  0.95712  0.23338  Biso   1.000  O
  O152     1.0000 0.32097  0.01848  0.51788  Biso   1.000  O
  O153     1.0000 0.01609  0.66672  0.57815  Biso   1.000  O
  O154     1.0000 0.48447  0.96156  0.32458  Biso   1.000  O
  O155     1.0000 0.80960  0.00848  0.02967  Biso   1.000  O
  O156     1.0000 0.50862  0.67190  0.99539  Biso   1.000  O
  O157     1.0000 0.48542  0.46845  0.82720  Biso   1.000  O
  O158     1.0000 0.82328  0.41064  0.53658  Biso   1.000  O
  O159     1.0000 0.50864  0.76101  0.49712  Biso   1.000  O
  O160     1.0000 0.98950  0.46340  0.73530  Biso   1.000  O
  O161     1.0000 0.31566  0.42027  0.04168  Biso   1.000  O
  O162     1.0000 0.02478  0.75802  0.07072  Biso   1.000  O
  O163     1.0000 0.06259  0.95849  0.82243  Biso   1.000  O
  O164     1.0000 0.72697  0.91039  0.55077  Biso   1.000  O
  O165     1.0000 0.03331  0.25427  0.48890  Biso   1.000  O
  O166     1.0000 0.55641  0.96760  0.73939  Biso   1.000  O
  O167     1.0000 0.22218  0.92473  0.02638  Biso   1.000  O
  O168     1.0000 0.53742  0.25880  0.06825  Biso   1.000  O
  O169     1.0000 0.00801  0.00705  0.23642  Biso   1.000  O
  O170     1.0000 0.22246  0.96535  0.07003  Biso   1.000  O
  O171     1.0000 0.06052  0.16759  0.03633  Biso   1.000  O
  O172     1.0000 0.52767  0.00346  0.33021  Biso   1.000  O
  O173     1.0000 0.72737  0.93851  0.49593  Biso   1.000  O
  O174     1.0000 0.57929  0.16508  0.52736  Biso   1.000  O
  O175     1.0000 0.52545  0.49928  0.23785  Biso   1.000  O
  O176     1.0000 0.31230  0.46333  0.07839  Biso   1.000  O
  O177     1.0000 0.47574  0.66534  0.04224  Biso   1.000  O
  O178     1.0000 0.02242  0.50901  0.32720  Biso   1.000  O
  O179     1.0000 0.81885  0.44762  0.49434  Biso   1.000  O
  O180     1.0000 0.96956  0.66672  0.54087  Biso   1.000  O
  O181     1.0000 0.02046  0.92125  0.82203  Biso   1.000  O
  O182     1.0000 0.81371  0.96331  0.99008  Biso   1.000  O
  O183     1.0000 0.97860  0.76086  0.03577  Biso   1.000  O
  O184     1.0000 0.51365  0.93054  0.73684  Biso   1.000  O
  O185     1.0000 0.31740  0.97853  0.56598  Biso   1.000  O
  O186     1.0000 0.46493  0.76681  0.54334  Biso   1.000  O
  O187     1.0000 0.53120  0.43072  0.82634  Biso   1.000  O
  O188     1.0000 0.72620  0.47679  0.99195  Biso   1.000  O
  O189     1.0000 0.56997  0.26211  0.01339  Biso   1.000  O
  O190     1.0000 0.02850  0.42035  0.73547  Biso   1.000  O
  O191     1.0000 0.23397  0.47312  0.57358  Biso   1.000  O
  O192     1.0000 0.07316  0.25667  0.52970  Biso   1.000  O
