data_image0
_cell_length_a       46.6899
_cell_length_b       46.6238
_cell_length_c       46.5419
_cell_angle_alpha    90
_cell_angle_beta     90
_cell_angle_gamma    90

_symmetry_space_group_name_H-M    "P 1"
_symmetry_int_tables_number       1

loop_
  _symmetry_equiv_pos_as_xyz
  'x, y, z'

loop_
  _atom_site_label
  _atom_site_occupancy
  _atom_site_fract_x
  _atom_site_fract_y
  _atom_site_fract_z
  _atom_site_thermal_displace_type
  _atom_site_B_iso_or_equiv
  _atom_site_type_symbol
  C1       1.0000 0.57399  0.94747  0.34637  Biso   1.000  C
  C2       1.0000 0.34211  0.52988  0.03373  Biso   1.000  C
  C3       1.0000 0.02010  0.29477  0.57010  Biso   1.000  C
  C4       1.0000 0.06767  0.97394  0.20197  Biso   1.000  C
  C5       1.0000 0.83747  0.50504  0.51703  Biso   1.000  C
  C6       1.0000 0.51259  0.29550  0.95422  Biso   1.000  C
  C7       1.0000 0.96807  0.46324  0.34180  Biso   1.000  C
  C8       1.0000 0.19500  0.03042  0.02322  Biso   1.000  C
  C9       1.0000 0.51327  0.79945  0.59243  Biso   1.000  C
  C10      1.0000 0.47224  0.45262  0.20761  Biso   1.000  C
  C11      1.0000 0.70078  0.00578  0.52671  Biso   1.000  C
  C12      1.0000 0.02475  0.78748  0.97041  Biso   1.000  C
  C13      1.0000 0.45981  0.99821  0.70075  Biso   1.000  C
  C14      1.0000 0.69840  0.40273  0.01279  Biso   1.000  C
  C15      1.0000 0.00667  0.64912  0.46813  Biso   1.000  C
  C16      1.0000 0.96666  0.98221  0.83880  Biso   1.000  C
  C17      1.0000 0.20006  0.42412  0.53330  Biso   1.000  C
  C18      1.0000 0.52645  0.64165  0.09446  Biso   1.000  C
  C19      1.0000 0.05716  0.46346  0.70639  Biso   1.000  C
  C20      1.0000 0.84334  0.90603  0.01616  Biso   1.000  C
  C21      1.0000 0.52590  0.13800  0.45475  Biso   1.000  C
  C22      1.0000 0.56298  0.49213  0.83986  Biso   1.000  C
  C23      1.0000 0.33690  0.92457  0.50667  Biso   1.000  C
  C24      1.0000 0.01115  0.14393  0.06939  Biso   1.000  C
  C25      1.0000 0.33491  0.03062  0.52760  Biso   1.000  C
  C26      1.0000 0.50835  0.28429  0.06284  Biso   1.000  C
  C27      1.0000 0.07677  0.47424  0.34224  Biso   1.000  C
  C28      1.0000 0.83511  0.01086  0.03453  Biso   1.000  C
  C29      1.0000 0.02412  0.28795  0.46079  Biso   1.000  C
  C30      1.0000 0.58087  0.44153  0.19878  Biso   1.000  C
  C31      1.0000 0.19920  0.53312  0.53187  Biso   1.000  C
  C32      1.0000 0.02434  0.78892  0.07872  Biso   1.000  C
  C33      1.0000 0.46786  0.95526  0.34313  Biso   1.000  C
  C34      1.0000 0.69905  0.51119  0.01628  Biso   1.000  C
  C35      1.0000 0.51393  0.78673  0.48677  Biso   1.000  C
  C36      1.0000 0.96021  0.96561  0.20116  Biso   1.000  C
  C37      1.0000 0.70342  0.89878  0.52665  Biso   1.000  C
  C38      1.0000 0.53202  0.65608  0.98716  Biso   1.000  C
  C39      1.0000 0.94944  0.47863  0.70364  Biso   1.000  C
  C40      1.0000 0.20104  0.91944  0.01939  Biso   1.000  C
  C41      1.0000 0.01458  0.65350  0.57761  Biso   1.000  C
  C42      1.0000 0.45382  0.49088  0.84403  Biso   1.000  C
  C43      1.0000 0.83227  0.39737  0.51360  Biso   1.000  C
  C44      1.0000 0.01104  0.14637  0.95952  Biso   1.000  C
  C45      1.0000 0.57052  0.98516  0.70495  Biso   1.000  C
  C46      1.0000 0.33507  0.42046  0.02718  Biso   1.000  C
  C47      1.0000 0.51123  0.15382  0.56191  Biso   1.000  C
  C48      1.0000 0.07540  0.95941  0.84299  Biso   1.000  C
  C49      1.0000 0.02772  0.02346  0.83604  Biso   1.000  C
  C50      1.0000 0.83612  0.95038  0.07762  Biso   1.000  C
  C51      1.0000 0.07861  0.78965  0.02636  Biso   1.000  C
  C52      1.0000 0.51789  0.04536  0.70269  Biso   1.000  C
  C53      1.0000 0.33745  0.98241  0.46568  Biso   1.000  C
  C54      1.0000 0.56750  0.78758  0.53814  Biso   1.000  C
  C55      1.0000 0.50709  0.54629  0.84486  Biso   1.000  C
  C56      1.0000 0.70453  0.45079  0.06940  Biso   1.000  C
  C57      1.0000 0.45963  0.29546  0.00600  Biso   1.000  C
  C58      1.0000 0.01204  0.52443  0.70121  Biso   1.000  C
  C59      1.0000 0.20049  0.47984  0.47824  Biso   1.000  C
  C60      1.0000 0.96595  0.28311  0.51561  Biso   1.000  C
  C61      1.0000 0.01933  0.91797  0.20068  Biso   1.000  C
  C62      1.0000 0.19672  0.97883  0.96754  Biso   1.000  C
  C63      1.0000 0.95473  0.14238  0.01797  Biso   1.000  C
  C64      1.0000 0.51709  0.89479  0.35009  Biso   1.000  C
  C65      1.0000 0.69993  0.95366  0.57912  Biso   1.000  C
  C66      1.0000 0.46583  0.15001  0.49961  Biso   1.000  C
  C67      1.0000 0.52090  0.39439  0.20051  Biso   1.000  C
  C68      1.0000 0.33342  0.47925  0.97675  Biso   1.000  C
  C69      1.0000 0.58277  0.64527  0.04210  Biso   1.000  C
  C70      1.0000 0.01907  0.41749  0.33528  Biso   1.000  C
  C71      1.0000 0.83182  0.44852  0.56907  Biso   1.000  C
  C72      1.0000 0.06668  0.65412  0.52146  Biso   1.000  C
  C73      1.0000 0.01790  0.52491  0.33939  Biso   1.000  C
  C74      1.0000 0.33774  0.97074  0.57134  Biso   1.000  C
  C75      1.0000 0.56649  0.28353  0.01361  Biso   1.000  C
  C76      1.0000 0.53318  0.50206  0.20704  Biso   1.000  C
  C77      1.0000 0.84048  0.97040  0.96983  Biso   1.000  C
  C78      1.0000 0.07580  0.29710  0.52128  Biso   1.000  C
  C79      1.0000 0.52691  0.00236  0.33941  Biso   1.000  C
  C80      1.0000 0.19485  0.48056  0.58783  Biso   1.000  C
  C81      1.0000 0.97091  0.78058  0.02272  Biso   1.000  C
  C82      1.0000 0.00702  0.02569  0.19976  Biso   1.000  C
  C83      1.0000 0.69443  0.45864  0.96149  Biso   1.000  C
  C84      1.0000 0.45853  0.79945  0.54030  Biso   1.000  C
  C85      1.0000 0.99701  0.41750  0.70525  Biso   1.000  C
  C86      1.0000 0.70484  0.95636  0.47014  Biso   1.000  C
  C87      1.0000 0.47528  0.65200  0.03673  Biso   1.000  C
  C88      1.0000 0.50674  0.43709  0.84068  Biso   1.000  C
  C89      1.0000 0.19903  0.97165  0.07741  Biso   1.000  C
  C90      1.0000 0.95438  0.64393  0.52666  Biso   1.000  C
  C91      1.0000 0.50686  0.93758  0.70368  Biso   1.000  C
  C92      1.0000 0.83676  0.44809  0.45985  Biso   1.000  C
  C93      1.0000 0.06396  0.15231  0.01345  Biso   1.000  C
  C94      1.0000 0.01497  0.91445  0.84255  Biso   1.000  C
  C95      1.0000 0.34111  0.47289  0.08448  Biso   1.000  C
  C96      1.0000 0.57322  0.13986  0.51847  Biso   1.000  C
  C97      1.0000 0.70029  0.03879  0.52510  Biso   1.000  C
  C98      1.0000 0.52819  0.64026  0.12699  Biso   1.000  C
  C99      1.0000 0.08917  0.46475  0.70759  Biso   1.000  C
  C100     1.0000 0.19416  0.06238  0.02423  Biso   1.000  C
  C101     1.0000 0.01705  0.64849  0.43856  Biso   1.000  C
  C102     1.0000 0.59481  0.48596  0.83865  Biso   1.000  C
  C103     1.0000 0.83581  0.53708  0.52256  Biso   1.000  C
  C104     1.0000 0.01597  0.14674  0.10133  Biso   1.000  C
  C105     1.0000 0.42790  0.00317  0.69764  Biso   1.000  C
  C106     1.0000 0.34487  0.56269  0.03182  Biso   1.000  C
  C107     1.0000 0.52616  0.13598  0.42280  Biso   1.000  C
  C108     1.0000 0.93494  0.98501  0.83887  Biso   1.000  C
  C109     1.0000 0.33535  0.89214  0.50521  Biso   1.000  C
  C110     1.0000 0.51145  0.29911  0.92237  Biso   1.000  C
  C111     1.0000 0.93645  0.45841  0.33868  Biso   1.000  C
  C112     1.0000 0.84288  0.87323  0.01393  Biso   1.000  C
  C113     1.0000 0.01810  0.29482  0.60290  Biso   1.000  C
  C114     1.0000 0.44083  0.45812  0.20952  Biso   1.000  C
  C115     1.0000 0.20194  0.39291  0.53417  Biso   1.000  C
  C116     1.0000 0.02498  0.78831  0.93856  Biso   1.000  C
  C117     1.0000 0.60566  0.94671  0.34649  Biso   1.000  C
  C118     1.0000 0.69654  0.37046  0.01054  Biso   1.000  C
  C119     1.0000 0.51142  0.80197  0.62476  Biso   1.000  C
  C120     1.0000 0.09874  0.97231  0.20169  Biso   1.000  C
  C121     1.0000 0.83449  0.94983  0.10749  Biso   1.000  C
  C122     1.0000 0.11006  0.78991  0.03262  Biso   1.000  C
  C123     1.0000 0.02457  0.05550  0.83373  Biso   1.000  C
  C124     1.0000 0.33871  0.97525  0.43392  Biso   1.000  C
  C125     1.0000 0.60045  0.78306  0.53486  Biso   1.000  C
  C126     1.0000 0.51623  0.07720  0.70142  Biso   1.000  C
  C127     1.0000 0.70543  0.43905  0.09837  Biso   1.000  C
  C128     1.0000 0.42852  0.29417  0.00460  Biso   1.000  C
  C129     1.0000 0.51045  0.57896  0.84639  Biso   1.000  C
  C130     1.0000 0.20193  0.47880  0.44568  Biso   1.000  C
  C131     1.0000 0.93450  0.27837  0.52125  Biso   1.000  C
  C132     1.0000 0.01674  0.55552  0.70047  Biso   1.000  C
  C133     1.0000 0.19584  0.98068  0.93589  Biso   1.000  C
  C134     1.0000 0.92277  0.13922  0.01785  Biso   1.000  C
  C135     1.0000 0.02185  0.88563  0.20296  Biso   1.000  C
  C136     1.0000 0.69941  0.96038  0.61198  Biso   1.000  C
  C137     1.0000 0.43342  0.15283  0.49927  Biso   1.000  C
  C138     1.0000 0.51119  0.86312  0.35063  Biso   1.000  C
  C139     1.0000 0.33325  0.48422  0.94550  Biso   1.000  C
  C140     1.0000 0.61552  0.64226  0.04102  Biso   1.000  C
  C141     1.0000 0.52085  0.36246  0.19685  Biso   1.000  C
  C142     1.0000 0.83073  0.44425  0.60088  Biso   1.000  C
  C143     1.0000 0.09965  0.65830  0.52396  Biso   1.000  C
  C144     1.0000 0.01159  0.38654  0.33539  Biso   1.000  C
  C145     1.0000 0.34543  0.47437  0.11718  Biso   1.000  C
  C146     1.0000 0.10843  0.29821  0.52167  Biso   1.000  C
  C147     1.0000 0.52540  0.03398  0.33654  Biso   1.000  C
  C148     1.0000 0.83869  0.44086  0.42915  Biso   1.000  C
  C149     1.0000 0.59901  0.28159  0.00995  Biso   1.000  C
  C150     1.0000 0.00224  0.05856  0.19959  Biso   1.000  C
  C151     1.0000 0.19671  0.96788  0.10931  Biso   1.000  C
  C152     1.0000 0.42556  0.80115  0.54146  Biso   1.000  C
  C153     1.0000 0.01462  0.55750  0.34051  Biso   1.000  C
  C154     1.0000 0.70488  0.95550  0.43700  Biso   1.000  C
  C155     1.0000 0.93833  0.77802  0.02533  Biso   1.000  C
  C156     1.0000 0.53494  0.53426  0.21192  Biso   1.000  C
  C157     1.0000 0.69252  0.46152  0.92913  Biso   1.000  C
  C158     1.0000 0.92272  0.64111  0.52953  Biso   1.000  C
  C159     1.0000 0.50004  0.90670  0.70659  Biso   1.000  C
  C160     1.0000 0.19277  0.48086  0.62017  Biso   1.000  C
  C161     1.0000 0.44230  0.65452  0.03154  Biso   1.000  C
  C162     1.0000 0.01606  0.88219  0.84367  Biso   1.000  C
  C163     1.0000 0.84116  0.97741  0.93878  Biso   1.000  C
  C164     1.0000 0.60489  0.13606  0.52034  Biso   1.000  C
  C165     1.0000 0.99879  0.38433  0.70387  Biso   1.000  C
  C166     1.0000 0.33800  0.97017  0.60363  Biso   1.000  C
  C167     1.0000 0.09492  0.15388  0.01899  Biso   1.000  C
  C168     1.0000 0.50357  0.40532  0.83762  Biso   1.000  C
  C169     1.0000 0.02629  0.78852  0.11021  Biso   1.000  C
  C170     1.0000 0.10712  0.95799  0.84053  Biso   1.000  C
  C171     1.0000 0.83201  0.04222  0.03954  Biso   1.000  C
  C172     1.0000 0.51305  0.78235  0.45460  Biso   1.000  C
  C173     1.0000 0.60340  0.98371  0.70542  Biso   1.000  C
  C174     1.0000 0.33542  0.06358  0.52524  Biso   1.000  C
  C175     1.0000 0.50710  0.28150  0.09349  Biso   1.000  C
  C176     1.0000 0.42177  0.49204  0.84396  Biso   1.000  C
  C177     1.0000 0.70122  0.54306  0.01442  Biso   1.000  C
  C178     1.0000 0.02205  0.28818  0.42944  Biso   1.000  C
  C179     1.0000 0.91732  0.48135  0.70019  Biso   1.000  C
  C180     1.0000 0.19645  0.56565  0.53113  Biso   1.000  C
  C181     1.0000 0.01435  0.14957  0.92788  Biso   1.000  C
  C182     1.0000 0.92888  0.96172  0.20200  Biso   1.000  C
  C183     1.0000 0.20285  0.88743  0.01969  Biso   1.000  C
  C184     1.0000 0.51124  0.15928  0.59360  Biso   1.000  C
  C185     1.0000 0.43577  0.96106  0.34044  Biso   1.000  C
  C186     1.0000 0.70207  0.86644  0.52812  Biso   1.000  C
  C187     1.0000 0.52859  0.65887  0.95437  Biso   1.000  C
  C188     1.0000 0.61408  0.43768  0.19729  Biso   1.000  C
  C189     1.0000 0.33370  0.38810  0.02491  Biso   1.000  C
  C190     1.0000 0.01481  0.65391  0.61003  Biso   1.000  C
  C191     1.0000 0.11090  0.47533  0.34327  Biso   1.000  C
  C192     1.0000 0.83172  0.36616  0.51144  Biso   1.000  C
  C193     1.0000 0.86745  0.98307  0.92188  Biso   1.000  C
  C194     1.0000 0.92053  0.80421  0.01839  Biso   1.000  C
  C195     1.0000 0.01851  0.86715  0.87057  Biso   1.000  C
  C196     1.0000 0.36183  0.98203  0.61886  Biso   1.000  C
  C197     1.0000 0.40939  0.82561  0.53113  Biso   1.000  C
  C198     1.0000 0.50075  0.88645  0.68277  Biso   1.000  C
  C199     1.0000 0.66514  0.46925  0.91466  Biso   1.000  C
  C200     1.0000 0.61694  0.30744  0.00919  Biso   1.000  C
  C201     1.0000 0.50599  0.38556  0.86446  Biso   1.000  C
  C202     1.0000 0.16495  0.47671  0.63408  Biso   1.000  C
  C203     1.0000 0.12409  0.32539  0.52232  Biso   1.000  C
  C204     1.0000 0.00205  0.36984  0.67625  Biso   1.000  C
  C205     1.0000 0.16788  0.97110  0.12283  Biso   1.000  C
  C206     1.0000 0.11149  0.12810  0.01963  Biso   1.000  C
  C207     1.0000 0.00360  0.07331  0.17131  Biso   1.000  C
  C208     1.0000 0.67656  0.95273  0.42286  Biso   1.000  C
  C209     1.0000 0.61942  0.10800  0.51992  Biso   1.000  C
  C210     1.0000 0.53104  0.05144  0.36159  Biso   1.000  C
  C211     1.0000 0.37329  0.46942  0.13271  Biso   1.000  C
  C212     1.0000 0.42718  0.62799  0.02808  Biso   1.000  C
  C213     1.0000 0.53080  0.55239  0.18600  Biso   1.000  C
  C214     1.0000 0.86542  0.44855  0.41383  Biso   1.000  C
  C215     1.0000 0.91064  0.61152  0.52978  Biso   1.000  C
  C216     1.0000 0.01062  0.57286  0.36732  Biso   1.000  C
  C217     1.0000 0.12182  0.96219  0.86735  Biso   1.000  C
  C218     1.0000 0.85939  0.05934  0.03633  Biso   1.000  C
  C219     1.0000 0.02401  0.81667  0.12466  Biso   1.000  C
  C220     1.0000 0.61929  0.98064  0.67781  Biso   1.000  C
  C221     1.0000 0.36307  0.07983  0.52286  Biso   1.000  C
  C222     1.0000 0.51393  0.80613  0.43586  Biso   1.000  C
  C223     1.0000 0.40856  0.48974  0.87258  Biso   1.000  C
  C224     1.0000 0.67443  0.56052  0.02053  Biso   1.000  C
  C225     1.0000 0.51253  0.30463  0.11326  Biso   1.000  C
  C226     1.0000 0.90351  0.47589  0.67224  Biso   1.000  C
  C227     1.0000 0.16876  0.58121  0.53344  Biso   1.000  C
  C228     1.0000 0.01762  0.31541  0.41466  Biso   1.000  C
  C229     1.0000 0.91272  0.95680  0.17635  Biso   1.000  C
  C230     1.0000 0.17489  0.87001  0.02080  Biso   1.000  C
  C231     1.0000 0.02403  0.12492  0.91074  Biso   1.000  C
  C232     1.0000 0.41903  0.96684  0.36727  Biso   1.000  C
  C233     1.0000 0.67453  0.85297  0.53241  Biso   1.000  C
  C234     1.0000 0.51269  0.13365  0.61250  Biso   1.000  C
  C235     1.0000 0.62921  0.43909  0.16860  Biso   1.000  C
  C236     1.0000 0.36073  0.37302  0.02085  Biso   1.000  C
  C237     1.0000 0.52127  0.63555  0.93535  Biso   1.000  C
  C238     1.0000 0.12269  0.47456  0.37191  Biso   1.000  C
  C239     1.0000 0.85827  0.35020  0.51156  Biso   1.000  C
  C240     1.0000 0.01711  0.62593  0.62329  Biso   1.000  C
  C241     1.0000 0.61197  0.48049  0.86511  Biso   1.000  C
  C242     1.0000 0.86176  0.55445  0.52274  Biso   1.000  C
  C243     1.0000 0.50845  0.83072  0.63862  Biso   1.000  C
  C244     1.0000 0.10650  0.46730  0.68148  Biso   1.000  C
  C245     1.0000 0.37182  0.57730  0.02825  Biso   1.000  C
  C246     1.0000 0.02509  0.81393  0.92230  Biso   1.000  C
  C247     1.0000 0.92015  0.98374  0.86631  Biso   1.000  C
  C248     1.0000 0.67130  0.05427  0.52307  Biso   1.000  C
  C249     1.0000 0.01204  0.32223  0.61826  Biso   1.000  C
  C250     1.0000 0.41254  0.00042  0.67137  Biso   1.000  C
  C251     1.0000 0.16577  0.07755  0.02009  Biso   1.000  C
  C252     1.0000 0.50945  0.32764  0.90982  Biso   1.000  C
  C253     1.0000 0.42531  0.46293  0.18202  Biso   1.000  C
  C254     1.0000 0.17542  0.37736  0.52983  Biso   1.000  C
  C255     1.0000 0.52873  0.10827  0.40877  Biso   1.000  C
  C256     1.0000 0.91942  0.45212  0.36543  Biso   1.000  C
  C257     1.0000 0.66821  0.35488  0.01183  Biso   1.000  C
  C258     1.0000 0.01191  0.12067  0.11778  Biso   1.000  C
  C259     1.0000 0.11493  0.97028  0.17466  Biso   1.000  C
  C260     1.0000 0.36105  0.87598  0.51473  Biso   1.000  C
  C261     1.0000 0.01511  0.62204  0.42199  Biso   1.000  C
  C262     1.0000 0.62285  0.94960  0.37283  Biso   1.000  C
  C263     1.0000 0.86913  0.85646  0.01537  Biso   1.000  C
  C264     1.0000 0.52984  0.61093  0.14059  Biso   1.000  C
  C265     1.0000 0.02651  0.07238  0.85933  Biso   1.000  C
  C266     1.0000 0.86142  0.94885  0.12440  Biso   1.000  C
  C267     1.0000 0.12549  0.81624  0.02947  Biso   1.000  C
  C268     1.0000 0.51491  0.09014  0.67275  Biso   1.000  C
  C269     1.0000 0.36609  0.97670  0.41841  Biso   1.000  C
  C270     1.0000 0.61870  0.80790  0.53449  Biso   1.000  C
  C271     1.0000 0.51167  0.59117  0.87590  Biso   1.000  C
  C272     1.0000 0.67829  0.43604  0.11448  Biso   1.000  C
  C273     1.0000 0.41309  0.32103  0.00986  Biso   1.000  C
  C274     1.0000 0.01729  0.57096  0.67313  Biso   1.000  C
  C275     1.0000 0.17437  0.47849  0.42851  Biso   1.000  C
  C276     1.0000 0.91581  0.30404  0.51624  Biso   1.000  C
  C277     1.0000 0.01892  0.86957  0.17607  Biso   1.000  C
  C278     1.0000 0.16945  0.97731  0.91882  Biso   1.000  C
  C279     1.0000 0.90918  0.11140  0.02521  Biso   1.000  C
  C280     1.0000 0.50679  0.84998  0.37755  Biso   1.000  C
  C281     1.0000 0.67209  0.96652  0.62618  Biso   1.000  C
  C282     1.0000 0.41598  0.12739  0.50792  Biso   1.000  C
  C283     1.0000 0.51716  0.34983  0.16860  Biso   1.000  C
  C284     1.0000 0.36052  0.48363  0.92941  Biso   1.000  C
  C285     1.0000 0.62733  0.61327  0.03386  Biso   1.000  C
  C286     1.0000 0.01156  0.36835  0.36277  Biso   1.000  C
  C287     1.0000 0.85589  0.45411  0.61945  Biso   1.000  C
  C288     1.0000 0.11768  0.63284  0.52774  Biso   1.000  C
  C289     1.0000 0.35818  0.84561  0.51653  Biso   1.000  C
  C290     1.0000 0.50842  0.33031  0.87834  Biso   1.000  C
  C291     1.0000 0.88763  0.44959  0.36262  Biso   1.000  C
  C292     1.0000 0.86779  0.82563  0.01778  Biso   1.000  C
  C293     1.0000 0.01110  0.31959  0.65001  Biso   1.000  C
  C294     1.0000 0.39437  0.46366  0.18455  Biso   1.000  C
  C295     1.0000 0.17605  0.34695  0.52615  Biso   1.000  C
  C296     1.0000 0.02421  0.81420  0.89147  Biso   1.000  C
  C297     1.0000 0.65348  0.94580  0.37033  Biso   1.000  C
  C298     1.0000 0.66917  0.32384  0.00963  Biso   1.000  C
  C299     1.0000 0.50864  0.83330  0.67015  Biso   1.000  C
  C300     1.0000 0.14622  0.97178  0.17564  Biso   1.000  C
  C301     1.0000 0.67269  0.08594  0.52290  Biso   1.000  C
  C302     1.0000 0.53061  0.60836  0.17134  Biso   1.000  C
  C303     1.0000 0.13820  0.47348  0.68540  Biso   1.000  C
  C304     1.0000 0.16533  0.10916  0.02164  Biso   1.000  C
  C305     1.0000 0.01428  0.62356  0.38991  Biso   1.000  C
  C306     1.0000 0.64377  0.47604  0.86194  Biso   1.000  C
  C307     1.0000 0.85826  0.58561  0.52744  Biso   1.000  C
  C308     1.0000 0.00997  0.12551  0.14913  Biso   1.000  C
  C309     1.0000 0.38176  0.99403  0.67211  Biso   1.000  C
  C310     1.0000 0.37272  0.60806  0.03079  Biso   1.000  C
  C311     1.0000 0.52857  0.10720  0.37711  Biso   1.000  C
  C312     1.0000 0.88863  0.98333  0.86733  Biso   1.000  C
  C313     1.0000 0.17539  0.47810  0.39646  Biso   1.000  C
  C314     1.0000 0.38419  0.13039  0.50720  Biso   1.000  C
  C315     1.0000 0.51702  0.31863  0.16641  Biso   1.000  C
  C316     1.0000 0.68168  0.43142  0.14552  Biso   1.000  C
  C317     1.0000 0.87749  0.11091  0.02434  Biso   1.000  C
  C318     1.0000 0.01267  0.33733  0.36141  Biso   1.000  C
  C319     1.0000 0.36509  0.96957  0.38678  Biso   1.000  C
  C320     1.0000 0.14899  0.63436  0.52765  Biso   1.000  C
  C321     1.0000 0.02400  0.83724  0.17787  Biso   1.000  C
  C322     1.0000 0.85966  0.94821  0.15511  Biso   1.000  C
  C323     1.0000 0.65903  0.61208  0.03095  Biso   1.000  C
  C324     1.0000 0.51145  0.82047  0.38030  Biso   1.000  C
  C325     1.0000 0.85449  0.45607  0.65068  Biso   1.000  C
  C326     1.0000 0.64978  0.80272  0.53238  Biso   1.000  C
  C327     1.0000 0.51559  0.62209  0.87910  Biso   1.000  C
  C328     1.0000 0.35701  0.48372  0.89709  Biso   1.000  C
  C329     1.0000 0.15704  0.81662  0.03025  Biso   1.000  C
  C330     1.0000 0.01895  0.60296  0.67461  Biso   1.000  C
  C331     1.0000 0.67321  0.97129  0.65739  Biso   1.000  C
  C332     1.0000 0.88407  0.30013  0.51668  Biso   1.000  C
  C333     1.0000 0.02361  0.10362  0.85789  Biso   1.000  C
  C334     1.0000 0.17205  0.97372  0.88791  Biso   1.000  C
  C335     1.0000 0.38218  0.32040  0.01278  Biso   1.000  C
  C336     1.0000 0.51207  0.12107  0.66950  Biso   1.000  C
  C337     1.0000 0.66543  0.46980  0.88240  Biso   1.000  C
  C338     1.0000 0.87814  0.60996  0.52820  Biso   1.000  C
  C339     1.0000 0.50497  0.85644  0.68992  Biso   1.000  C
  C340     1.0000 0.16220  0.47732  0.66594  Biso   1.000  C
  C341     1.0000 0.39470  0.62937  0.03054  Biso   1.000  C
  C342     1.0000 0.02202  0.83591  0.87010  Biso   1.000  C
  C343     1.0000 0.86782  0.98084  0.89016  Biso   1.000  C
  C344     1.0000 0.65126  0.10827  0.52188  Biso   1.000  C
  C345     1.0000 0.00766  0.34016  0.67457  Biso   1.000  C
  C346     1.0000 0.36115  0.98712  0.65076  Biso   1.000  C
  C347     1.0000 0.14354  0.13015  0.02090  Biso   1.000  C
  C348     1.0000 0.50735  0.35481  0.86037  Biso   1.000  C
  C349     1.0000 0.37255  0.46853  0.16385  Biso   1.000  C
  C350     1.0000 0.15469  0.32561  0.52234  Biso   1.000  C
  C351     1.0000 0.52910  0.08341  0.35808  Biso   1.000  C
  C352     1.0000 0.86501  0.44437  0.38317  Biso   1.000  C
  C353     1.0000 0.64731  0.30403  0.00874  Biso   1.000  C
  C354     1.0000 0.00551  0.10481  0.17061  Biso   1.000  C
  C355     1.0000 0.16675  0.96923  0.15381  Biso   1.000  C
  C356     1.0000 0.37940  0.82301  0.52328  Biso   1.000  C
  C357     1.0000 0.01182  0.60344  0.36718  Biso   1.000  C
  C358     1.0000 0.67665  0.94631  0.39174  Biso   1.000  C
  C359     1.0000 0.88920  0.80405  0.02111  Biso   1.000  C
  C360     1.0000 0.53118  0.58407  0.19015  Biso   1.000  C
  C361     1.0000 0.02211  0.12574  0.87888  Biso   1.000  C
  C362     1.0000 0.88109  0.95126  0.17683  Biso   1.000  C
  C363     1.0000 0.17760  0.83731  0.02577  Biso   1.000  C
  C364     1.0000 0.51212  0.13863  0.64380  Biso   1.000  C
  C365     1.0000 0.38783  0.96687  0.36605  Biso   1.000  C
  C366     1.0000 0.67350  0.82175  0.53236  Biso   1.000  C
  C367     1.0000 0.51985  0.63968  0.90380  Biso   1.000  C
  C368     1.0000 0.66078  0.43339  0.16826  Biso   1.000  C
  C369     1.0000 0.36038  0.34158  0.01733  Biso   1.000  C
  C370     1.0000 0.01791  0.62587  0.65440  Biso   1.000  C
  C371     1.0000 0.15463  0.47652  0.37389  Biso   1.000  C
  C372     1.0000 0.85971  0.31956  0.51543  Biso   1.000  C
  C373     1.0000 0.02334  0.81594  0.15678  Biso   1.000  C
  C374     1.0000 0.15284  0.96744  0.86457  Biso   1.000  C
  C375     1.0000 0.85707  0.08926  0.03086  Biso   1.000  C
  C376     1.0000 0.51224  0.80135  0.40490  Biso   1.000  C
  C377     1.0000 0.65187  0.97825  0.67816  Biso   1.000  C
  C378     1.0000 0.36231  0.11050  0.51250  Biso   1.000  C
  C379     1.0000 0.51448  0.29893  0.14352  Biso   1.000  C
  C380     1.0000 0.37720  0.48565  0.87370  Biso   1.000  C
  C381     1.0000 0.67808  0.58988  0.02561  Biso   1.000  C
  C382     1.0000 0.01598  0.31544  0.38310  Biso   1.000  C
  C383     1.0000 0.87382  0.46526  0.67229  Biso   1.000  C
  C384     1.0000 0.16984  0.61244  0.53036  Biso   1.000  C
  C385     1.0000 0.19173  0.12612  0.02307  Biso   1.000  C
  C386     1.0000 0.01127  0.15271  0.16350  Biso   1.000  C
  C387     1.0000 0.16233  0.97234  0.20220  Biso   1.000  C
  C388     1.0000 0.70016  0.10020  0.52330  Biso   1.000  C
  C389     1.0000 0.52327  0.13181  0.35995  Biso   1.000  C
  C390     1.0000 0.66720  0.93776  0.34334  Biso   1.000  C
  C391     1.0000 0.34658  0.62343  0.03413  Biso   1.000  C
  C392     1.0000 0.52814  0.63332  0.18918  Biso   1.000  C
  C393     1.0000 0.37829  0.46225  0.21081  Biso   1.000  C
  C394     1.0000 0.82965  0.59893  0.52597  Biso   1.000  C
  C395     1.0000 0.01734  0.65127  0.37578  Biso   1.000  C
  C396     1.0000 0.87360  0.44843  0.33412  Biso   1.000  C
  C397     1.0000 0.84013  0.81068  0.01837  Biso   1.000  C
  C398     1.0000 0.02405  0.78806  0.87512  Biso   1.000  C
  C399     1.0000 0.87258  0.98210  0.84073  Biso   1.000  C
  C400     1.0000 0.33203  0.82958  0.51415  Biso   1.000  C
  C401     1.0000 0.51193  0.80754  0.68907  Biso   1.000  C
  C402     1.0000 0.36656  0.99450  0.69920  Biso   1.000  C
  C403     1.0000 0.69545  0.30695  0.01002  Biso   1.000  C
  C404     1.0000 0.50823  0.30613  0.85841  Biso   1.000  C
  C405     1.0000 0.65788  0.47550  0.83320  Biso   1.000  C
  C406     1.0000 0.20316  0.33126  0.52614  Biso   1.000  C
  C407     1.0000 0.01557  0.29194  0.66457  Biso   1.000  C
  C408     1.0000 0.15230  0.47412  0.71320  Biso   1.000  C
  C409     1.0000 0.16969  0.96851  0.83935  Biso   1.000  C
  C410     1.0000 0.82872  0.10400  0.02660  Biso   1.000  C
  C411     1.0000 0.02700  0.78979  0.17211  Biso   1.000  C
  C412     1.0000 0.66795  0.97965  0.70592  Biso   1.000  C
  C413     1.0000 0.33593  0.12620  0.50672  Biso   1.000  C
  C414     1.0000 0.51338  0.77346  0.39294  Biso   1.000  C
  C415     1.0000 0.35952  0.48595  0.84732  Biso   1.000  C
  C416     1.0000 0.70658  0.60338  0.01919  Biso   1.000  C
  C417     1.0000 0.51406  0.27065  0.15630  Biso   1.000  C
  C418     1.0000 0.85677  0.46455  0.69815  Biso   1.000  C
  C419     1.0000 0.19670  0.62802  0.52659  Biso   1.000  C
  C420     1.0000 0.01748  0.29005  0.36596  Biso   1.000  C
  C421     1.0000 0.86568  0.94989  0.20395  Biso   1.000  C
  C422     1.0000 0.20521  0.82313  0.02679  Biso   1.000  C
  C423     1.0000 0.01843  0.15152  0.86215  Biso   1.000  C
  C424     1.0000 0.37349  0.96019  0.33968  Biso   1.000  C
  C425     1.0000 0.69794  0.80346  0.52749  Biso   1.000  C
  C426     1.0000 0.51017  0.16700  0.65541  Biso   1.000  C
  C427     1.0000 0.67667  0.42899  0.19380  Biso   1.000  C
  C428     1.0000 0.33363  0.32563  0.01928  Biso   1.000  C
  C429     1.0000 0.52269  0.66766  0.89182  Biso   1.000  C
  C430     1.0000 0.17210  0.47682  0.34819  Biso   1.000  C
  C431     1.0000 0.83404  0.30277  0.51785  Biso   1.000  C
  C432     1.0000 0.01728  0.65183  0.67186  Biso   1.000  C
  C433     1.0000 0.01934  0.11787  0.83010  Biso   1.000  C
  C434     1.0000 0.83272  0.94574  0.17062  Biso   1.000  C
  C435     1.0000 0.17274  0.79017  0.03380  Biso   1.000  C
  C436     1.0000 0.51211  0.14024  0.69411  Biso   1.000  C
  C437     1.0000 0.33819  0.96267  0.37078  Biso   1.000  C
  C438     1.0000 0.66260  0.77478  0.52991  Biso   1.000  C
  C439     1.0000 0.51389  0.64068  0.85529  Biso   1.000  C
  C440     1.0000 0.70890  0.42650  0.15930  Biso   1.000  C
  C441     1.0000 0.36637  0.29244  0.01141  Biso   1.000  C
  C442     1.0000 0.02090  0.61781  0.70203  Biso   1.000  C
  C443     1.0000 0.20408  0.47803  0.38101  Biso   1.000  C
  C444     1.0000 0.86990  0.27282  0.52121  Biso   1.000  C
  C445     1.0000 0.02597  0.82314  0.20590  Biso   1.000  C
  C446     1.0000 0.19960  0.97685  0.87343  Biso   1.000  C
  C447     1.0000 0.86052  0.13575  0.01776  Biso   1.000  C
  C448     1.0000 0.51391  0.80186  0.35532  Biso   1.000  C
  C449     1.0000 0.69956  0.96817  0.67425  Biso   1.000  C
  C450     1.0000 0.37027  0.15729  0.50060  Biso   1.000  C
  C451     1.0000 0.51880  0.29928  0.19174  Biso   1.000  C
  C452     1.0000 0.32984  0.48252  0.88288  Biso   1.000  C
  C453     1.0000 0.67678  0.63690  0.03189  Biso   1.000  C
  C454     1.0000 0.01202  0.32391  0.33284  Biso   1.000  C
  C455     1.0000 0.82893  0.44717  0.66456  Biso   1.000  C
  C456     1.0000 0.16364  0.66050  0.52315  Biso   1.000  C
  C457     1.0000 0.01287  0.61977  0.34064  Biso   1.000  C
  C458     1.0000 0.33360  0.98071  0.66789  Biso   1.000  C
  C459     1.0000 0.66117  0.27642  0.00820  Biso   1.000  C
  C460     1.0000 0.53200  0.59729  0.21895  Biso   1.000  C
  C461     1.0000 0.83905  0.97769  0.87438  Biso   1.000  C
  C462     1.0000 0.17221  0.29969  0.52004  Biso   1.000  C
  C463     1.0000 0.52294  0.09664  0.32918  Biso   1.000  C
  C464     1.0000 0.18745  0.47760  0.68370  Biso   1.000  C
  C465     1.0000 0.87330  0.77788  0.02479  Biso   1.000  C
  C466     1.0000 0.00608  0.12035  0.19815  Biso   1.000  C
  C467     1.0000 0.69052  0.46613  0.86553  Biso   1.000  C
  C468     1.0000 0.36512  0.79675  0.52533  Biso   1.000  C
  C469     1.0000 0.01061  0.32320  0.69935  Biso   1.000  C
  C470     1.0000 0.70302  0.94306  0.37488  Biso   1.000  C
  C471     1.0000 0.37880  0.65618  0.03130  Biso   1.000  C
  C472     1.0000 0.50555  0.34293  0.83155  Biso   1.000  C
  C473     1.0000 0.19396  0.96528  0.16972  Biso   1.000  C
  C474     1.0000 0.85890  0.63557  0.52833  Biso   1.000  C
  C475     1.0000 0.50543  0.84506  0.71867  Biso   1.000  C
  C476     1.0000 0.83993  0.43906  0.36629  Biso   1.000  C
  C477     1.0000 0.15872  0.15715  0.02190  Biso   1.000  C
  C478     1.0000 0.02044  0.81963  0.84330  Biso   1.000  C
  C479     1.0000 0.34624  0.47094  0.18115  Biso   1.000  C
  C480     1.0000 0.66661  0.13464  0.52321  Biso   1.000  C
  C481     1.0000 0.37964  0.77166  0.53684  Biso   1.000  C
  C482     1.0000 0.50229  0.36115  0.80643  Biso   1.000  C
  C483     1.0000 0.81295  0.43166  0.38147  Biso   1.000  C
  C484     1.0000 0.89007  0.75178  0.03188  Biso   1.000  C
  C485     1.0000 0.00573  0.33698  0.72770  Biso   1.000  C
  C486     1.0000 0.31947  0.47880  0.16560  Biso   1.000  C
  C487     1.0000 0.15682  0.27203  0.52225  Biso   1.000  C
  C488     1.0000 0.01984  0.83415  0.81615  Biso   1.000  C
  C489     1.0000 0.73046  0.94674  0.38823  Biso   1.000  C
  C490     1.0000 0.64482  0.24996  0.00833  Biso   1.000  C
  C491     1.0000 0.50208  0.86567  0.74281  Biso   1.000  C
  C492     1.0000 0.22269  0.95820  0.15554  Biso   1.000  C
  C493     1.0000 0.65149  0.16288  0.52610  Biso   1.000  C
  C494     1.0000 0.53596  0.57837  0.24425  Biso   1.000  C
  C495     1.0000 0.21571  0.48201  0.67129  Biso   1.000  C
  C496     1.0000 0.14111  0.18348  0.02331  Biso   1.000  C
  C497     1.0000 0.01342  0.60433  0.31310  Biso   1.000  C
  C498     1.0000 0.71707  0.45753  0.87943  Biso   1.000  C
  C499     1.0000 0.87114  0.66412  0.52938  Biso   1.000  C
  C500     1.0000 0.00055  0.10635  0.22620  Biso   1.000  C
  C501     1.0000 0.30844  0.96867  0.65104  Biso   1.000  C
  C502     1.0000 0.39537  0.68299  0.03379  Biso   1.000  C
  C503     1.0000 0.51824  0.07788  0.30527  Biso   1.000  C
  C504     1.0000 0.81321  0.97428  0.89128  Biso   1.000  C
  C505     1.0000 0.64118  0.48241  0.80623  Biso   1.000  C
  C506     1.0000 0.80368  0.58072  0.52160  Biso   1.000  C
  C507     1.0000 0.51536  0.77973  0.67415  Biso   1.000  C
  C508     1.0000 0.13376  0.46992  0.73906  Biso   1.000  C
  C509     1.0000 0.31751  0.61019  0.03641  Biso   1.000  C
  C510     1.0000 0.02382  0.75992  0.89136  Biso   1.000  C
  C511     1.0000 0.88834  0.98459  0.81285  Biso   1.000  C
  C512     1.0000 0.72820  0.08514  0.52380  Biso   1.000  C
  C513     1.0000 0.02454  0.26619  0.64917  Biso   1.000  C
  C514     1.0000 0.38071  0.00481  0.72566  Biso   1.000  C
  C515     1.0000 0.21920  0.11124  0.02458  Biso   1.000  C
  C516     1.0000 0.51380  0.27824  0.87153  Biso   1.000  C
  C517     1.0000 0.39469  0.45667  0.23836  Biso   1.000  C
  C518     1.0000 0.23083  0.34429  0.53346  Biso   1.000  C
  C519     1.0000 0.52077  0.16065  0.37336  Biso   1.000  C
  C520     1.0000 0.89121  0.45372  0.30789  Biso   1.000  C
  C521     1.0000 0.72359  0.32155  0.00852  Biso   1.000  C
  C522     1.0000 0.01893  0.17821  0.14609  Biso   1.000  C
  C523     1.0000 0.14628  0.97455  0.22915  Biso   1.000  C
  C524     1.0000 0.30616  0.84554  0.50444  Biso   1.000  C
  C525     1.0000 0.01788  0.68007  0.39146  Biso   1.000  C
  C526     1.0000 0.65084  0.93377  0.31667  Biso   1.000  C
  C527     1.0000 0.81351  0.82767  0.01411  Biso   1.000  C
  C528     1.0000 0.52383  0.66157  0.17731  Biso   1.000  C
  C529     1.0000 0.80145  0.08822  0.03135  Biso   1.000  C
  C530     1.0000 0.03109  0.76134  0.15772  Biso   1.000  C
  C531     1.0000 0.15462  0.96663  0.81163  Biso   1.000  C
  C532     1.0000 0.30827  0.11022  0.50981  Biso   1.000  C
  C533     1.0000 0.51509  0.74800  0.41112  Biso   1.000  C
  C534     1.0000 0.65169  0.98483  0.73297  Biso   1.000  C
  C535     1.0000 0.73187  0.58633  0.01217  Biso   1.000  C
  C536     1.0000 0.50929  0.24708  0.13770  Biso   1.000  C
  C537     1.0000 0.37409  0.48673  0.81874  Biso   1.000  C
  C538     1.0000 0.22275  0.61121  0.52337  Biso   1.000  C
  C539     1.0000 0.02266  0.26192  0.38071  Biso   1.000  C
  C540     1.0000 0.86906  0.47454  0.72502  Biso   1.000  C
  C541     1.0000 0.23148  0.84020  0.02534  Biso   1.000  C
  C542     1.0000 0.01289  0.17813  0.88053  Biso   1.000  C
  C543     1.0000 0.88241  0.95333  0.23033  Biso   1.000  C
  C544     1.0000 0.72784  0.81741  0.52513  Biso   1.000  C
  C545     1.0000 0.50831  0.19286  0.63682  Biso   1.000  C
  C546     1.0000 0.38920  0.95789  0.31199  Biso   1.000  C
  C547     1.0000 0.30780  0.34175  0.02601  Biso   1.000  C
  C548     1.0000 0.52702  0.69191  0.91124  Biso   1.000  C
  C549     1.0000 0.66146  0.42943  0.22079  Biso   1.000  C
  C550     1.0000 0.80583  0.31749  0.51260  Biso   1.000  C
  C551     1.0000 0.01500  0.68157  0.65962  Biso   1.000  C
  C552     1.0000 0.15792  0.47528  0.32088  Biso   1.000  C
  C553     1.0000 0.01809  0.10129  0.80340  Biso   1.000  C
  C554     1.0000 0.80577  0.94284  0.15401  Biso   1.000  C
  C555     1.0000 0.15710  0.76275  0.03878  Biso   1.000  C
  C556     1.0000 0.51506  0.12637  0.72329  Biso   1.000  C
  C557     1.0000 0.31047  0.96433  0.38679  Biso   1.000  C
  C558     1.0000 0.64343  0.74936  0.53229  Biso   1.000  C
  C559     1.0000 0.50826  0.62959  0.82612  Biso   1.000  C
  C560     1.0000 0.73640  0.42567  0.14270  Biso   1.000  C
  C561     1.0000 0.38203  0.26573  0.00511  Biso   1.000  C
  C562     1.0000 0.02371  0.60143  0.72894  Biso   1.000  C
  C563     1.0000 0.23120  0.47901  0.39845  Biso   1.000  C
  C564     1.0000 0.88924  0.24704  0.52504  Biso   1.000  C
  C565     1.0000 0.02270  0.83969  0.23277  Biso   1.000  C
  C566     1.0000 0.22598  0.97892  0.88934  Biso   1.000  C
  C567     1.0000 0.87539  0.16337  0.01094  Biso   1.000  C
  C568     1.0000 0.51612  0.81423  0.32475  Biso   1.000  C
  C569     1.0000 0.72708  0.96341  0.65955  Biso   1.000  C
  C570     1.0000 0.38790  0.18325  0.49411  Biso   1.000  C
  C571     1.0000 0.52363  0.31246  0.22052  Biso   1.000  C
  C572     1.0000 0.30360  0.48248  0.90048  Biso   1.000  C
  C573     1.0000 0.66411  0.66365  0.04204  Biso   1.000  C
  C574     1.0000 0.00832  0.34073  0.30644  Biso   1.000  C
  C575     1.0000 0.80674  0.43093  0.64734  Biso   1.000  C
  C576     1.0000 0.14568  0.68831  0.52125  Biso   1.000  C
  C577     1.0000 0.31914  0.47924  0.13408  Biso   1.000  C
  C578     1.0000 0.12482  0.27232  0.52377  Biso   1.000  C
  C579     1.0000 0.51967  0.04681  0.30789  Biso   1.000  C
  C580     1.0000 0.81297  0.43290  0.41276  Biso   1.000  C
  C581     1.0000 0.61322  0.25317  0.00774  Biso   1.000  C
  C582     1.0000 0.00128  0.07506  0.22670  Biso   1.000  C
  C583     1.0000 0.22427  0.95908  0.12394  Biso   1.000  C
  C584     1.0000 0.40961  0.77380  0.54513  Biso   1.000  C
  C585     1.0000 0.01440  0.57262  0.31359  Biso   1.000  C
  C586     1.0000 0.73078  0.95362  0.41932  Biso   1.000  C
  C587     1.0000 0.92214  0.75154  0.03300  Biso   1.000  C
  C588     1.0000 0.53727  0.54705  0.24230  Biso   1.000  C
  C589     1.0000 0.71788  0.45517  0.91071  Biso   1.000  C
  C590     1.0000 0.90215  0.66669  0.53237  Biso   1.000  C
  C591     1.0000 0.49936  0.89585  0.73628  Biso   1.000  C
  C592     1.0000 0.21804  0.48431  0.63988  Biso   1.000  C
  C593     1.0000 0.42593  0.68147  0.03399  Biso   1.000  C
  C594     1.0000 0.01427  0.86551  0.81633  Biso   1.000  C
  C595     1.0000 0.81344  0.97310  0.92270  Biso   1.000  C
  C596     1.0000 0.62110  0.16348  0.52288  Biso   1.000  C
  C597     1.0000 0.99861  0.36799  0.72963  Biso   1.000  C
  C598     1.0000 0.31055  0.96710  0.61859  Biso   1.000  C
  C599     1.0000 0.10923  0.18262  0.01852  Biso   1.000  C
  C600     1.0000 0.50233  0.39318  0.81022  Biso   1.000  C
  C601     1.0000 0.22462  0.98210  0.92044  Biso   1.000  C
  C602     1.0000 0.90620  0.16465  0.01132  Biso   1.000  C
  C603     1.0000 0.02273  0.87115  0.23084  Biso   1.000  C
  C604     1.0000 0.72603  0.95759  0.62827  Biso   1.000  C
  C605     1.0000 0.42021  0.18062  0.49307  Biso   1.000  C
  C606     1.0000 0.51512  0.84648  0.32444  Biso   1.000  C
  C607     1.0000 0.30406  0.48310  0.93178  Biso   1.000  C
  C608     1.0000 0.63317  0.66653  0.04639  Biso   1.000  C
  C609     1.0000 0.52267  0.34434  0.22333  Biso   1.000  C
  C610     1.0000 0.80663  0.42980  0.61571  Biso   1.000  C
  C611     1.0000 0.11353  0.68658  0.52093  Biso   1.000  C
  C612     1.0000 0.00866  0.37173  0.30750  Biso   1.000  C
  C613     1.0000 0.80591  0.94542  0.12310  Biso   1.000  C
  C614     1.0000 0.12601  0.76243  0.04048  Biso   1.000  C
  C615     1.0000 0.02046  0.06952  0.80629  Biso   1.000  C
  C616     1.0000 0.31156  0.96937  0.41706  Biso   1.000  C
  C617     1.0000 0.61228  0.75378  0.53518  Biso   1.000  C
  C618     1.0000 0.51796  0.09568  0.72698  Biso   1.000  C
  C619     1.0000 0.73341  0.43087  0.11190  Biso   1.000  C
  C620     1.0000 0.41326  0.26702  0.00213  Biso   1.000  C
  C621     1.0000 0.50880  0.59794  0.82099  Biso   1.000  C
  C622     1.0000 0.23001  0.47686  0.43058  Biso   1.000  C
  C623     1.0000 0.92081  0.25049  0.52553  Biso   1.000  C
  C624     1.0000 0.02221  0.56979  0.72748  Biso   1.000  C
  C625     1.0000 0.00875  0.17661  0.91275  Biso   1.000  C
  C626     1.0000 0.91388  0.95891  0.22964  Biso   1.000  C
  C627     1.0000 0.22969  0.87078  0.02077  Biso   1.000  C
  C628     1.0000 0.50892  0.18906  0.60556  Biso   1.000  C
  C629     1.0000 0.41980  0.95750  0.31332  Biso   1.000  C
  C630     1.0000 0.72855  0.84913  0.52500  Biso   1.000  C
  C631     1.0000 0.53298  0.68689  0.94171  Biso   1.000  C
  C632     1.0000 0.63127  0.43381  0.22294  Biso   1.000  C
  C633     1.0000 0.30608  0.37271  0.02580  Biso   1.000  C
  C634     1.0000 0.01421  0.68208  0.62695  Biso   1.000  C
  C635     1.0000 0.12754  0.47626  0.31740  Biso   1.000  C
  C636     1.0000 0.80532  0.34838  0.51089  Biso   1.000  C
  C637     1.0000 0.03076  0.76179  0.12556  Biso   1.000  C
  C638     1.0000 0.12349  0.96094  0.81346  Biso   1.000  C
  C639     1.0000 0.80323  0.05725  0.03695  Biso   1.000  C
  C640     1.0000 0.51508  0.75219  0.44242  Biso   1.000  C
  C641     1.0000 0.62027  0.98603  0.73377  Biso   1.000  C
  C642     1.0000 0.30876  0.07856  0.51705  Biso   1.000  C
  C643     1.0000 0.50496  0.25212  0.10534  Biso   1.000  C
  C644     1.0000 0.40466  0.49105  0.81849  Biso   1.000  C
  C645     1.0000 0.72900  0.55512  0.01031  Biso   1.000  C
  C646     1.0000 0.02593  0.26079  0.41217  Biso   1.000  C
  C647     1.0000 0.89870  0.48144  0.72555  Biso   1.000  C
  C648     1.0000 0.22271  0.58008  0.52400  Biso   1.000  C
  C649     1.0000 0.02092  0.67687  0.42377  Biso   1.000  C
  C650     1.0000 0.41201  0.00798  0.72436  Biso   1.000  C
  C651     1.0000 0.72423  0.35284  0.00841  Biso   1.000  C
  C652     1.0000 0.52423  0.66661  0.14554  Biso   1.000  C
  C653     1.0000 0.91866  0.98592  0.81166  Biso   1.000  C
  C654     1.0000 0.23015  0.37589  0.53896  Biso   1.000  C
  C655     1.0000 0.52233  0.16295  0.40500  Biso   1.000  C
  C656     1.0000 0.10278  0.46590  0.73534  Biso   1.000  C
  C657     1.0000 0.81512  0.85904  0.01284  Biso   1.000  C
  C658     1.0000 0.02206  0.17567  0.11522  Biso   1.000  C
  C659     1.0000 0.61091  0.48894  0.81122  Biso   1.000  C
  C660     1.0000 0.30955  0.87574  0.49916  Biso   1.000  C
  C661     1.0000 0.02457  0.26815  0.61788  Biso   1.000  C
  C662     1.0000 0.61978  0.93958  0.31868  Biso   1.000  C
  C663     1.0000 0.31745  0.57847  0.03466  Biso   1.000  C
  C664     1.0000 0.51462  0.27508  0.90264  Biso   1.000  C
  C665     1.0000 0.11523  0.97546  0.22828  Biso   1.000  C
  C666     1.0000 0.80667  0.54990  0.52084  Biso   1.000  C
  C667     1.0000 0.51456  0.77776  0.64263  Biso   1.000  C
  C668     1.0000 0.92253  0.45836  0.31056  Biso   1.000  C
  C669     1.0000 0.22116  0.07909  0.02623  Biso   1.000  C
  C670     1.0000 0.02524  0.76168  0.92335  Biso   1.000  C
  C671     1.0000 0.42573  0.45576  0.23775  Biso   1.000  C
  C672     1.0000 0.72809  0.05408  0.52638  Biso   1.000  C
  C673     1.0000 0.21738  0.97136  0.82738  Biso   1.000  C
  C674     1.0000 0.81605  0.15166  0.01906  Biso   1.000  C
  C675     1.0000 0.02616  0.77646  0.21913  Biso   1.000  C
  C676     1.0000 0.71252  0.97247  0.72162  Biso   1.000  C
  C677     1.0000 0.32320  0.17337  0.50202  Biso   1.000  C
  C678     1.0000 0.51559  0.75236  0.34754  Biso   1.000  C
  C679     1.0000 0.31094  0.48291  0.83734  Biso   1.000  C
  C680     1.0000 0.72272  0.64981  0.02054  Biso   1.000  C
  C681     1.0000 0.51684  0.25346  0.20392  Biso   1.000  C
  C682     1.0000 0.80955  0.45374  0.70880  Biso   1.000  C
  C683     1.0000 0.20880  0.67578  0.52214  Biso   1.000  C
  C684     1.0000 0.01558  0.27668  0.31982  Biso   1.000  C
  C685     1.0000 0.81950  0.94213  0.21815  Biso   1.000  C
  C686     1.0000 0.22144  0.77677  0.03338  Biso   1.000  C
  C687     1.0000 0.01766  0.16432  0.81358  Biso   1.000  C
  C688     1.0000 0.32546  0.95858  0.32266  Biso   1.000  C
  C689     1.0000 0.70852  0.75634  0.52450  Biso   1.000  C
  C690     1.0000 0.50786  0.18739  0.70108  Biso   1.000  C
  C691     1.0000 0.72299  0.42353  0.20632  Biso   1.000  C
  C692     1.0000 0.31884  0.27905  0.01703  Biso   1.000  C
  C693     1.0000 0.52016  0.68840  0.84593  Biso   1.000  C
  C694     1.0000 0.22026  0.47464  0.33485  Biso   1.000  C
  C695     1.0000 0.82456  0.25610  0.52783  Biso   1.000  C
  C696     1.0000 0.01888  0.66476  0.71776  Biso   1.000  C
  C697     1.0000 0.71417  0.93147  0.32899  Biso   1.000  C
  C698     1.0000 0.33505  0.67169  0.03252  Biso   1.000  C
  C699     1.0000 0.01784  0.27618  0.70973  Biso   1.000  C
  C700     1.0000 0.20890  0.96794  0.21867  Biso   1.000  C
  C701     1.0000 0.81074  0.64377  0.52650  Biso   1.000  C
  C702     1.0000 0.50520  0.29568  0.81096  Biso   1.000  C
  C703     1.0000 0.82874  0.43864  0.31892  Biso   1.000  C
  C704     1.0000 0.20555  0.17309  0.02219  Biso   1.000  C
  C705     1.0000 0.51039  0.80012  0.73701  Biso   1.000  C
  C706     1.0000 0.33215  0.46630  0.22790  Biso   1.000  C
  C707     1.0000 0.71280  0.14791  0.52916  Biso   1.000  C
  C708     1.0000 0.01949  0.77309  0.82889  Biso   1.000  C
  C709     1.0000 0.32175  0.97949  0.71513  Biso   1.000  C
  C710     1.0000 0.70735  0.25886  0.00686  Biso   1.000  C
  C711     1.0000 0.01664  0.66654  0.32690  Biso   1.000  C
  C712     1.0000 0.82445  0.97719  0.82689  Biso   1.000  C
  C713     1.0000 0.21962  0.28685  0.51800  Biso   1.000  C
  C714     1.0000 0.52614  0.64380  0.23538  Biso   1.000  C
  C715     1.0000 0.19720  0.47512  0.73192  Biso   1.000  C
  C716     1.0000 0.82602  0.76295  0.02154  Biso   1.000  C
  C717     1.0000 0.51637  0.14143  0.31310  Biso   1.000  C
  C718     1.0000 0.70212  0.46744  0.81717  Biso   1.000  C
  C719     1.0000 0.31971  0.78122  0.52116  Biso   1.000  C
  C720     1.0000 0.01105  0.16884  0.20800  Biso   1.000  C
  C721     1.0000 0.53769  0.75185  0.32359  Biso   1.000  C
  C722     1.0000 0.30974  0.49993  0.81018  Biso   1.000  C
  C723     1.0000 0.79510  0.26123  0.54029  Biso   1.000  C
  C724     1.0000 0.01141  0.74949  0.21447  Biso   1.000  C
  C725     1.0000 0.77940  0.46361  0.70107  Biso   1.000  C
  C726     1.0000 0.29092  0.28528  0.00038  Biso   1.000  C
  C727     1.0000 0.99686  0.25077  0.32288  Biso   1.000  C
  C728     1.0000 0.24299  0.98938  0.82471  Biso   1.000  C
  C729     1.0000 0.73632  0.75646  0.53835  Biso   1.000  C
  C730     1.0000 0.49837  0.25338  0.22883  Biso   1.000  C
  C731     1.0000 0.73386  0.94889  0.72262  Biso   1.000  C
  C732     1.0000 0.24929  0.78151  0.01619  Biso   1.000  C
  C733     1.0000 0.49061  0.18493  0.72660  Biso   1.000  C
  C734     1.0000 0.71971  0.40930  0.23411  Biso   1.000  C
  C735     1.0000 0.20620  0.70289  0.50575  Biso   1.000  C
  C736     1.0000 0.99768  0.19053  0.81492  Biso   1.000  C
  C737     1.0000 0.24850  0.45850  0.34086  Biso   1.000  C
  C738     1.0000 0.75415  0.64506  0.02524  Biso   1.000  C
  C739     1.0000 0.04305  0.66890  0.73778  Biso   1.000  C
  C740     1.0000 0.79582  0.92172  0.21244  Biso   1.000  C
  C741     1.0000 0.29494  0.17304  0.48791  Biso   1.000  C
  C742     1.0000 0.53521  0.68774  0.81841  Biso   1.000  C
  C743     1.0000 0.29733  0.94531  0.32906  Biso   1.000  C
  C744     1.0000 0.82106  0.18121  0.02940  Biso   1.000  C
  C745     1.0000 0.03822  0.68842  0.32915  Biso   1.000  C
  C746     1.0000 0.29113  0.98286  0.70954  Biso   1.000  C
  C747     1.0000 0.73502  0.26286  0.02292  Biso   1.000  C
  C748     1.0000 0.54240  0.67175  0.23486  Biso   1.000  C
  C749     1.0000 0.82914  0.96158  0.79990  Biso   1.000  C
  C750     1.0000 0.24345  0.28425  0.53901  Biso   1.000  C
  C751     1.0000 0.53384  0.13619  0.28637  Biso   1.000  C
  C752     1.0000 0.22469  0.45654  0.73021  Biso   1.000  C
  C753     1.0000 0.80346  0.76349  0.99996  Biso   1.000  C
  C754     1.0000 0.02589  0.16337  0.23526  Biso   1.000  C
  C755     1.0000 0.69547  0.45525  0.78862  Biso   1.000  C
  C756     1.0000 0.28910  0.78642  0.53062  Biso   1.000  C
  C757     1.0000 0.00402  0.24852  0.70245  Biso   1.000  C
  C758     1.0000 0.71094  0.94390  0.30018  Biso   1.000  C
  C759     1.0000 0.31166  0.67028  0.05298  Biso   1.000  C
  C760     1.0000 0.51627  0.30051  0.78210  Biso   1.000  C
  C761     1.0000 0.23417  0.98534  0.21850  Biso   1.000  C
  C762     1.0000 0.81295  0.67016  0.50982  Biso   1.000  C
  C763     1.0000 0.49162  0.80124  0.76242  Biso   1.000  C
  C764     1.0000 0.79835  0.44843  0.32244  Biso   1.000  C
  C765     1.0000 0.23151  0.17271  0.04196  Biso   1.000  C
  C766     1.0000 0.00131  0.77685  0.80318  Biso   1.000  C
  C767     1.0000 0.33779  0.47591  0.25865  Biso   1.000  C
  C768     1.0000 0.71401  0.17350  0.51099  Biso   1.000  C
  C769     1.0000 0.50538  0.71521  0.85162  Biso   1.000  C
  C770     1.0000 0.81606  0.44366  0.73785  Biso   1.000  C
  C771     1.0000 0.69976  0.73089  0.50690  Biso   1.000  C
  C772     1.0000 0.99429  0.68435  0.72148  Biso   1.000  C
  C773     1.0000 0.28613  0.46202  0.84253  Biso   1.000  C
  C774     1.0000 0.22058  0.75120  0.05171  Biso   1.000  C
  C775     1.0000 0.03862  0.16377  0.78914  Biso   1.000  C
  C776     1.0000 0.71265  0.99207  0.74624  Biso   1.000  C
  C777     1.0000 0.82947  0.22662  0.51775  Biso   1.000  C
  C778     1.0000 0.52700  0.21402  0.69755  Biso   1.000  C
  C779     1.0000 0.21269  0.94895  0.80423  Biso   1.000  C
  C780     1.0000 0.32391  0.25030  0.03059  Biso   1.000  C
  C781     1.0000 0.53465  0.22704  0.19812  Biso   1.000  C
  C782     1.0000 0.21781  0.48772  0.30539  Biso   1.000  C
  C783     1.0000 0.33268  0.20092  0.51520  Biso   1.000  C
  C784     1.0000 0.03073  0.27989  0.29244  Biso   1.000  C
  C785     1.0000 0.75073  0.44044  0.20199  Biso   1.000  C
  C786     1.0000 0.79150  0.14626  0.00071  Biso   1.000  C
  C787     1.0000 0.04103  0.77979  0.24748  Biso   1.000  C
  C788     1.0000 0.32970  0.97137  0.29403  Biso   1.000  C
  C789     1.0000 0.23678  0.67013  0.53689  Biso   1.000  C
  C790     1.0000 0.49899  0.72676  0.35018  Biso   1.000  C
  C791     1.0000 0.82045  0.95603  0.24747  Biso   1.000  C
  C792     1.0000 0.71444  0.67986  0.01049  Biso   1.000  C
  C793     1.0000 0.49828  0.16775  0.31593  Biso   1.000  C
  C794     1.0000 0.30264  0.45543  0.22086  Biso   1.000  C
  C795     1.0000 0.21877  0.26740  0.49371  Biso   1.000  C
  C796     1.0000 0.99926  0.19804  0.20381  Biso   1.000  C
  C797     1.0000 0.83691  0.42593  0.29011  Biso   1.000  C
  C798     1.0000 0.70333  0.23236  0.98999  Biso   1.000  C
  C799     1.0000 0.99854  0.66643  0.30150  Biso   1.000  C
  C800     1.0000 0.20639  0.94990  0.24481  Biso   1.000  C
  C801     1.0000 0.32662  0.75210  0.51331  Biso   1.000  C
  C802     1.0000 0.50960  0.63909  0.26154  Biso   1.000  C
  C803     1.0000 0.74076  0.91469  0.33197  Biso   1.000  C
  C804     1.0000 0.82693  0.73712  0.03930  Biso   1.000  C
  C805     1.0000 0.53043  0.77613  0.73569  Biso   1.000  C
  C806     1.0000 0.73195  0.47767  0.82153  Biso   1.000  C
  C807     1.0000 0.78395  0.63849  0.54204  Biso   1.000  C
  C808     1.0000 0.03565  0.74531  0.82990  Biso   1.000  C
  C809     1.0000 0.19191  0.48825  0.76041  Biso   1.000  C
  C810     1.0000 0.33627  0.69494  0.01168  Biso   1.000  C
  C811     1.0000 0.03260  0.27982  0.73704  Biso   1.000  C
  C812     1.0000 0.79594  0.98852  0.83258  Biso   1.000  C
  C813     1.0000 0.73790  0.14419  0.54787  Biso   1.000  C
  C814     1.0000 0.49398  0.26704  0.81573  Biso   1.000  C
  C815     1.0000 0.33100  0.97102  0.74510  Biso   1.000  C
  C816     1.0000 0.20496  0.19567  0.00082  Biso   1.000  C
  C817     1.0000 0.99996  0.21343  0.79507  Biso   1.000  C
  C818     1.0000 0.77536  0.91662  0.23368  Biso   1.000  C
  C819     1.0000 0.27083  0.76067  0.01765  Biso   1.000  C
  C820     1.0000 0.48946  0.20687  0.74624  Biso   1.000  C
  C821     1.0000 0.27582  0.94515  0.30886  Biso   1.000  C
  C822     1.0000 0.75231  0.73138  0.53762  Biso   1.000  C
  C823     1.0000 0.53384  0.70965  0.79774  Biso   1.000  C
  C824     1.0000 0.74021  0.41314  0.25640  Biso   1.000  C
  C825     1.0000 0.26973  0.26301  0.00293  Biso   1.000  C
  C826     1.0000 0.04144  0.69058  0.75969  Biso   1.000  C
  C827     1.0000 0.27051  0.45512  0.31976  Biso   1.000  C
  C828     1.0000 0.77547  0.23991  0.54264  Biso   1.000  C
  C829     1.0000 0.01135  0.72692  0.23448  Biso   1.000  C
  C830     1.0000 0.26385  0.98500  0.80376  Biso   1.000  C
  C831     1.0000 0.80099  0.20068  0.02205  Biso   1.000  C
  C832     1.0000 0.54065  0.72871  0.30475  Biso   1.000  C
  C833     1.0000 0.75362  0.94432  0.74584  Biso   1.000  C
  C834     1.0000 0.27632  0.19636  0.49071  Biso   1.000  C
  C835     1.0000 0.49904  0.23075  0.24899  Biso   1.000  C
  C836     1.0000 0.28532  0.49610  0.79260  Biso   1.000  C
  C837     1.0000 0.77443  0.66715  0.02327  Biso   1.000  C
  C838     1.0000 0.99724  0.22978  0.30102  Biso   1.000  C
  C839     1.0000 0.75824  0.46543  0.72218  Biso   1.000  C
  C840     1.0000 0.22906  0.72313  0.50470  Biso   1.000  C
  C841     1.0000 0.23393  0.94853  0.78097  Biso   1.000  C
  C842     1.0000 0.77024  0.16700  0.99701  Biso   1.000  C
  C843     1.0000 0.03940  0.75660  0.26639  Biso   1.000  C
  C844     1.0000 0.73332  0.99012  0.76840  Biso   1.000  C
  C845     1.0000 0.31360  0.22481  0.51603  Biso   1.000  C
  C846     1.0000 0.50116  0.70436  0.33051  Biso   1.000  C
  C847     1.0000 0.26271  0.46059  0.82496  Biso   1.000  C
  C848     1.0000 0.73650  0.70049  0.00957  Biso   1.000  C
  C849     1.0000 0.53335  0.20541  0.21956  Biso   1.000  C
  C850     1.0000 0.79282  0.44468  0.75684  Biso   1.000  C
  C851     1.0000 0.25874  0.69096  0.53600  Biso   1.000  C
  C852     1.0000 0.03108  0.25716  0.27314  Biso   1.000  C
  C853     1.0000 0.80016  0.94833  0.26826  Biso   1.000  C
  C854     1.0000 0.24330  0.73269  0.05109  Biso   1.000  C
  C855     1.0000 0.03912  0.18657  0.76987  Biso   1.000  C
  C856     1.0000 0.30642  0.97326  0.27547  Biso   1.000  C
  C857     1.0000 0.71666  0.70576  0.50883  Biso   1.000  C
  C858     1.0000 0.52802  0.23375  0.72161  Biso   1.000  C
  C859     1.0000 0.77084  0.44153  0.22377  Biso   1.000  C
  C860     1.0000 0.30216  0.23051  0.02743  Biso   1.000  C
  C861     1.0000 0.50600  0.73825  0.83209  Biso   1.000  C
  C862     1.0000 0.23906  0.48290  0.28571  Biso   1.000  C
  C863     1.0000 0.80692  0.20533  0.51884  Biso   1.000  C
  C864     1.0000 0.99513  0.70781  0.74084  Biso   1.000  C
  C865     1.0000 0.71707  0.45225  0.76822  Biso   1.000  C
  C866     1.0000 0.79111  0.68964  0.50895  Biso   1.000  C
  C867     1.0000 0.49551  0.78257  0.78519  Biso   1.000  C
  C868     1.0000 0.24512  0.45812  0.75270  Biso   1.000  C
  C869     1.0000 0.29061  0.69291  0.05438  Biso   1.000  C
  C870     1.0000 0.00173  0.75579  0.78155  Biso   1.000  C
  C871     1.0000 0.80615  0.95881  0.78035  Biso   1.000  C
  C872     1.0000 0.73559  0.19464  0.51209  Biso   1.000  C
  C873     1.0000 0.00703  0.22532  0.72238  Biso   1.000  C
  C874     1.0000 0.26979  0.97678  0.73115  Biso   1.000  C
  C875     1.0000 0.25295  0.19314  0.03798  Biso   1.000  C
  C876     1.0000 0.51674  0.27989  0.76091  Biso   1.000  C
  C877     1.0000 0.31449  0.47349  0.27785  Biso   1.000  C
  C878     1.0000 0.26621  0.26474  0.53352  Biso   1.000  C
  C879     1.0000 0.53424  0.15798  0.26462  Biso   1.000  C
  C880     1.0000 0.77858  0.44351  0.30160  Biso   1.000  C
  C881     1.0000 0.75565  0.24143  0.02238  Biso   1.000  C
  C882     1.0000 0.02511  0.18496  0.25729  Biso   1.000  C
  C883     1.0000 0.25741  0.98135  0.23814  Biso   1.000  C
  C884     1.0000 0.26725  0.76646  0.52925  Biso   1.000  C
  C885     1.0000 0.04321  0.70754  0.30632  Biso   1.000  C
  C886     1.0000 0.73158  0.94162  0.27877  Biso   1.000  C
  C887     1.0000 0.78348  0.74179  0.99724  Biso   1.000  C
  C888     1.0000 0.53948  0.69095  0.25727  Biso   1.000  C
  C889     1.0000 0.76117  0.91323  0.31067  Biso   1.000  C
  C890     1.0000 0.31361  0.71444  0.01174  Biso   1.000  C
  C891     1.0000 0.03468  0.25735  0.75604  Biso   1.000  C
  C892     1.0000 0.22868  0.94820  0.26554  Biso   1.000  C
  C893     1.0000 0.76084  0.65975  0.54153  Biso   1.000  C
  C894     1.0000 0.49778  0.24538  0.79494  Biso   1.000  C
  C895     1.0000 0.81560  0.42414  0.26847  Biso   1.000  C
  C896     1.0000 0.22853  0.21405  0.99742  Biso   1.000  C
  C897     1.0000 0.53238  0.75650  0.75781  Biso   1.000  C
  C898     1.0000 0.28148  0.45228  0.24222  Biso   1.000  C
  C899     1.0000 0.75934  0.16514  0.54773  Biso   1.000  C
  C900     1.0000 0.03449  0.72506  0.80764  Biso   1.000  C
  C901     1.0000 0.30971  0.96581  0.76481  Biso   1.000  C
  C902     1.0000 0.72622  0.21271  0.99072  Biso   1.000  C
  C903     1.0000 0.00257  0.68820  0.28120  Biso   1.000  C
  C904     1.0000 0.77368  0.98459  0.81317  Biso   1.000  C
  C905     1.0000 0.24084  0.24696  0.49053  Biso   1.000  C
  C906     1.0000 0.50815  0.65793  0.28525  Biso   1.000  C
  C907     1.0000 0.21202  0.48669  0.78248  Biso   1.000  C
  C908     1.0000 0.80765  0.71550  0.03439  Biso   1.000  C
  C909     1.0000 0.49924  0.18795  0.29446  Biso   1.000  C
  C910     1.0000 0.75209  0.47463  0.79946  Biso   1.000  C
  C911     1.0000 0.30554  0.73230  0.51487  Biso   1.000  C
  C912     1.0000 0.00131  0.21847  0.22462  Biso   1.000  C
  C913     1.0000 0.76518  0.45749  0.74965  Biso   1.000  C
  C914     1.0000 0.74369  0.70702  0.52308  Biso   1.000  C
  C915     1.0000 0.51695  0.73491  0.80414  Biso   1.000  C
  C916     1.0000 0.26286  0.47695  0.79985  Biso   1.000  C
  C917     1.0000 0.26896  0.73614  0.03483  Biso   1.000  C
  C918     1.0000 0.01764  0.70959  0.75993  Biso   1.000  C
  C919     1.0000 0.75455  0.96726  0.76669  Biso   1.000  C
  C920     1.0000 0.78070  0.21177  0.53280  Biso   1.000  C
  C921     1.0000 0.01952  0.20948  0.77093  Biso   1.000  C
  C922     1.0000 0.25908  0.96483  0.78166  Biso   1.000  C
  C923     1.0000 0.27440  0.23639  0.01708  Biso   1.000  C
  C924     1.0000 0.50846  0.23082  0.74569  Biso   1.000  C
  C925     1.0000 0.26351  0.46539  0.29188  Biso   1.000  C
  C926     1.0000 0.28464  0.22232  0.50432  Biso   1.000  C
  C927     1.0000 0.51590  0.20550  0.24438  Biso   1.000  C
  C928     1.0000 0.76491  0.42881  0.25091  Biso   1.000  C
  C929     1.0000 0.77412  0.19443  0.00819  Biso   1.000  C
  C930     1.0000 0.01287  0.23347  0.27621  Biso   1.000  C
  C931     1.0000 0.27953  0.95975  0.28346  Biso   1.000  C
  C932     1.0000 0.25438  0.71700  0.51992  Biso   1.000  C
  C933     1.0000 0.02539  0.73044  0.26126  Biso   1.000  C
  C934     1.0000 0.77830  0.92868  0.26158  Biso   1.000  C
  C935     1.0000 0.76534  0.69620  0.01752  Biso   1.000  C
  C936     1.0000 0.52260  0.70606  0.30580  Biso   1.000  C
  C937     1.0000 0.75159  0.21756  0.00549  Biso   1.000  C
  C938     1.0000 0.02410  0.70777  0.28272  Biso   1.000  C
  C939     1.0000 0.27979  0.96616  0.75738  Biso   1.000  C
  C940     1.0000 0.26341  0.24589  0.50970  Biso   1.000  C
  C941     1.0000 0.52002  0.68627  0.28168  Biso   1.000  C
  C942     1.0000 0.77853  0.96877  0.78766  Biso   1.000  C
  C943     1.0000 0.78708  0.71802  0.01427  Biso   1.000  C
  C944     1.0000 0.51584  0.18304  0.26808  Biso   1.000  C
  C945     1.0000 0.23859  0.47336  0.77835  Biso   1.000  C
  C946     1.0000 0.27596  0.73979  0.52064  Biso   1.000  C
  C947     1.0000 0.01116  0.21203  0.25201  Biso   1.000  C
  C948     1.0000 0.74504  0.46185  0.77355  Biso   1.000  C
  C949     1.0000 0.29093  0.71401  0.03334  Biso   1.000  C
  C950     1.0000 0.02119  0.23049  0.74844  Biso   1.000  C
  C951     1.0000 0.75551  0.92456  0.28325  Biso   1.000  C
  C952     1.0000 0.76514  0.68395  0.52331  Biso   1.000  C
  C953     1.0000 0.50589  0.25280  0.76769  Biso   1.000  C
  C954     1.0000 0.25490  0.96269  0.26162  Biso   1.000  C
  C955     1.0000 0.25265  0.21280  0.01576  Biso   1.000  C
  C956     1.0000 0.51451  0.75853  0.78220  Biso   1.000  C
  C957     1.0000 0.78625  0.43224  0.27422  Biso   1.000  C
  C958     1.0000 0.75764  0.19070  0.53181  Biso   1.000  C
  C959     1.0000 0.01781  0.73107  0.78323  Biso   1.000  C
  C960     1.0000 0.28754  0.46285  0.26950  Biso   1.000  C
  Cu1      1.0000 0.00324  0.46829  0.67707  Biso   1.000  Cu
  Cu2      1.0000 0.67493  0.95145  0.52505  Biso   1.000  Cu
  Cu3      1.0000 0.52609  0.62182  0.03698  Biso   1.000  Cu
  Cu4      1.0000 0.50865  0.49136  0.87021  Biso   1.000  Cu
  Cu5      1.0000 0.17155  0.97303  0.02112  Biso   1.000  Cu
  Cu6      1.0000 0.01254  0.62253  0.52338  Biso   1.000  Cu
  Cu7      1.0000 0.51540  0.98991  0.67735  Biso   1.000  Cu
  Cu8      1.0000 0.86078  0.45177  0.51547  Biso   1.000  Cu
  Cu9      1.0000 0.01233  0.11909  0.01302  Biso   1.000  Cu
  Cu10     1.0000 0.02048  0.97017  0.86618  Biso   1.000  Cu
  Cu11     1.0000 0.36633  0.47309  0.02869  Biso   1.000  Cu
  Cu12     1.0000 0.51747  0.11793  0.51027  Biso   1.000  Cu
  Cu13     1.0000 0.02182  0.46929  0.36671  Biso   1.000  Cu
  Cu14     1.0000 0.36346  0.97599  0.51711  Biso   1.000  Cu
  Cu15     1.0000 0.51345  0.31728  0.01041  Biso   1.000  Cu
  Cu16     1.0000 0.52406  0.44963  0.17511  Biso   1.000  Cu
  Cu17     1.0000 0.86636  0.96021  0.02551  Biso   1.000  Cu
  Cu18     1.0000 0.02044  0.31717  0.51537  Biso   1.000  Cu
  Cu19     1.0000 0.52001  0.95212  0.37417  Biso   1.000  Cu
  Cu20     1.0000 0.17168  0.47882  0.53205  Biso   1.000  Cu
  Cu21     1.0000 0.02343  0.81329  0.02573  Biso   1.000  Cu
  Cu22     1.0000 0.01412  0.97244  0.17418  Biso   1.000  Cu
  Cu23     1.0000 0.67146  0.45735  0.01631  Biso   1.000  Cu
  Cu24     1.0000 0.51612  0.82155  0.53600  Biso   1.000  Cu
  Cu25     1.0000 0.22610  0.97504  0.02226  Biso   1.000  Cu
  Cu26     1.0000 0.00545  0.17228  0.01637  Biso   1.000  Cu
  Cu27     1.0000 0.01308  0.97327  0.22830  Biso   1.000  Cu
  Cu28     1.0000 0.72918  0.95350  0.52663  Biso   1.000  Cu
  Cu29     1.0000 0.52074  0.17153  0.50673  Biso   1.000  Cu
  Cu30     1.0000 0.52281  0.94713  0.31831  Biso   1.000  Cu
  Cu31     1.0000 0.31227  0.47705  0.03322  Biso   1.000  Cu
  Cu32     1.0000 0.53082  0.67524  0.04538  Biso   1.000  Cu
  Cu33     1.0000 0.52899  0.44485  0.22926  Biso   1.000  Cu
  Cu34     1.0000 0.80709  0.45207  0.51538  Biso   1.000  Cu
  Cu35     1.0000 0.00663  0.67600  0.52143  Biso   1.000  Cu
  Cu36     1.0000 0.02153  0.47034  0.31245  Biso   1.000  Cu
  Cu37     1.0000 0.81082  0.95640  0.02285  Biso   1.000  Cu
  Cu38     1.0000 0.02562  0.75927  0.02563  Biso   1.000  Cu
  Cu39     1.0000 0.02084  0.96865  0.81330  Biso   1.000  Cu
  Cu40     1.0000 0.30899  0.97724  0.51736  Biso   1.000  Cu
  Cu41     1.0000 0.51129  0.76743  0.54211  Biso   1.000  Cu
  Cu42     1.0000 0.51459  0.99209  0.73163  Biso   1.000  Cu
  Cu43     1.0000 0.72597  0.45729  0.01246  Biso   1.000  Cu
  Cu44     1.0000 0.51007  0.26180  0.00632  Biso   1.000  Cu
  Cu45     1.0000 0.50701  0.49244  0.81704  Biso   1.000  Cu
  Cu46     1.0000 0.22658  0.48066  0.53326  Biso   1.000  Cu
  Cu47     1.0000 0.02427  0.26282  0.51824  Biso   1.000  Cu
  Cu48     1.0000 0.00091  0.47188  0.73159  Biso   1.000  Cu
  H1       1.0000 0.24606  0.77294  0.53558  Biso   1.000  H
  H2       1.0000 0.52497  0.28648  0.73988  Biso   1.000  H
  H3       1.0000 0.75676  0.45087  0.30667  Biso   1.000  H
  H4       1.0000 0.76699  0.74335  0.98152  Biso   1.000  H
  H5       1.0000 0.99692  0.20498  0.71802  Biso   1.000  H
  H6       1.0000 0.31822  0.48065  0.29950  Biso   1.000  H
  H7       1.0000 0.28640  0.26489  0.54566  Biso   1.000  H
  H8       1.0000 0.98726  0.76002  0.76392  Biso   1.000  H
  H9       1.0000 0.72833  0.95570  0.25939  Biso   1.000  H
  H10      1.0000 0.77600  0.24702  0.03170  Biso   1.000  H
  H11      1.0000 0.48328  0.78803  0.80442  Biso   1.000  H
  H12      1.0000 0.27749  0.99338  0.23487  Biso   1.000  H
  H13      1.0000 0.73610  0.21303  0.49794  Biso   1.000  H
  H14      1.0000 0.54933  0.71226  0.25667  Biso   1.000  H
  H15      1.0000 0.26607  0.44690  0.75227  Biso   1.000  H
  H16      1.0000 0.27205  0.19220  0.05209  Biso   1.000  H
  H17      1.0000 0.05962  0.72368  0.30782  Biso   1.000  H
  H18      1.0000 0.71081  0.44427  0.74638  Biso   1.000  H
  H19      1.0000 0.79095  0.70964  0.49595  Biso   1.000  H
  H20      1.0000 0.03535  0.18388  0.27721  Biso   1.000  H
  H21      1.0000 0.24694  0.98103  0.72628  Biso   1.000  H
  H22      1.0000 0.27457  0.69277  0.07195  Biso   1.000  H
  H23      1.0000 0.54929  0.15656  0.24664  Biso   1.000  H
  H24      1.0000 0.81334  0.95202  0.75832  Biso   1.000  H
  H25      1.0000 0.28441  0.99779  0.80626  Biso   1.000  H
  H26      1.0000 0.80866  0.22278  0.02744  Biso   1.000  H
  H27      1.0000 0.00228  0.70600  0.22748  Biso   1.000  H
  H28      1.0000 0.77102  0.92952  0.74409  Biso   1.000  H
  H29      1.0000 0.25659  0.19392  0.47976  Biso   1.000  H
  H30      1.0000 0.55958  0.72943  0.28984  Biso   1.000  H
  H31      1.0000 0.28546  0.50866  0.77284  Biso   1.000  H
  H32      1.0000 0.79712  0.66207  0.02538  Biso   1.000  H
  H33      1.0000 0.48416  0.23344  0.26783  Biso   1.000  H
  H34      1.0000 0.73568  0.47288  0.71630  Biso   1.000  H
  H35      1.0000 0.22576  0.74189  0.49171  Biso   1.000  H
  H36      1.0000 0.98352  0.21121  0.30368  Biso   1.000  H
  H37      1.0000 0.75623  0.90202  0.22985  Biso   1.000  H
  H38      1.0000 0.29044  0.76461  0.00469  Biso   1.000  H
  H39      1.0000 0.98775  0.23279  0.79515  Biso   1.000  H
  H40      1.0000 0.25566  0.93260  0.31272  Biso   1.000  H
  H41      1.0000 0.77227  0.73118  0.55116  Biso   1.000  H
  H42      1.0000 0.47424  0.20375  0.76517  Biso   1.000  H
  H43      1.0000 0.73596  0.40165  0.27660  Biso   1.000  H
  H44      1.0000 0.24761  0.26812  0.99455  Biso   1.000  H
  H45      1.0000 0.54570  0.70715  0.77880  Biso   1.000  H
  H46      1.0000 0.29062  0.44477  0.32724  Biso   1.000  H
  H47      1.0000 0.75471  0.24451  0.55116  Biso   1.000  H
  H48      1.0000 0.06044  0.68981  0.77372  Biso   1.000  H
  H49      1.0000 0.23580  0.49189  0.26421  Biso   1.000  H
  H50      1.0000 0.31948  0.24433  0.52722  Biso   1.000  H
  H51      1.0000 0.54591  0.18441  0.21652  Biso   1.000  H
  H52      1.0000 0.79226  0.45134  0.22136  Biso   1.000  H
  H53      1.0000 0.75043  0.16108  0.98341  Biso   1.000  H
  H54      1.0000 0.04439  0.25712  0.25499  Biso   1.000  H
  H55      1.0000 0.31009  0.98525  0.25501  Biso   1.000  H
  H56      1.0000 0.27982  0.68688  0.54786  Biso   1.000  H
  H57      1.0000 0.04891  0.75755  0.28657  Biso   1.000  H
  H58      1.0000 0.80289  0.95676  0.29002  Biso   1.000  H
  H59      1.0000 0.72798  0.72308  0.00554  Biso   1.000  H
  H60      1.0000 0.48583  0.68620  0.33358  Biso   1.000  H
  H61      1.0000 0.79579  0.43582  0.77851  Biso   1.000  H
  H62      1.0000 0.70899  0.68499  0.49904  Biso   1.000  H
  H63      1.0000 0.49707  0.75916  0.83678  Biso   1.000  H
  H64      1.0000 0.24561  0.44375  0.83008  Biso   1.000  H
  H65      1.0000 0.24005  0.71487  0.06611  Biso   1.000  H
  H66      1.0000 0.97607  0.72144  0.74204  Biso   1.000  H
  H67      1.0000 0.73059  0.00424  0.78675  Biso   1.000  H
  H68      1.0000 0.81134  0.18349  0.51208  Biso   1.000  H
  H69      1.0000 0.05149  0.18360  0.75075  Biso   1.000  H
  H70      1.0000 0.23081  0.93353  0.76290  Biso   1.000  H
  H71      1.0000 0.30496  0.20957  0.03826  Biso   1.000  H
  H72      1.0000 0.54349  0.25047  0.72269  Biso   1.000  H
  H73      1.0000 0.77377  0.48345  0.80120  Biso   1.000  H
  H74      1.0000 0.73895  0.65555  0.55114  Biso   1.000  H
  H75      1.0000 0.54750  0.73801  0.75655  Biso   1.000  H
  H76      1.0000 0.20894  0.50121  0.80105  Biso   1.000  H
  H77      1.0000 0.31374  0.73164  0.99534  Biso   1.000  H
  H78      1.0000 0.04824  0.70623  0.80831  Biso   1.000  H
  H79      1.0000 0.75284  0.99244  0.81938  Biso   1.000  H
  H80      1.0000 0.77720  0.16141  0.56226  Biso   1.000  H
  H81      1.0000 0.04512  0.26012  0.77609  Biso   1.000  H
  H82      1.0000 0.31739  0.95496  0.78386  Biso   1.000  H
  H83      1.0000 0.22757  0.22881  0.97762  Biso   1.000  H
  H84      1.0000 0.49395  0.22394  0.80056  Biso   1.000  H
  H85      1.0000 0.26059  0.44250  0.23591  Biso   1.000  H
  H86      1.0000 0.23801  0.23286  0.47166  Biso   1.000  H
  H87      1.0000 0.48749  0.20773  0.29654  Biso   1.000  H
  H88      1.0000 0.82130  0.41595  0.24724  Biso   1.000  H
  H89      1.0000 0.72133  0.19184  0.97855  Biso   1.000  H
  H90      1.0000 0.99422  0.24061  0.21877  Biso   1.000  H
  H91      1.0000 0.22559  0.93260  0.28300  Biso   1.000  H
  H92      1.0000 0.31121  0.70980  0.51144  Biso   1.000  H
  H93      1.0000 0.98696  0.68706  0.26414  Biso   1.000  H
  H94      1.0000 0.78116  0.90089  0.31527  Biso   1.000  H
  H95      1.0000 0.80580  0.69907  0.05324  Biso   1.000  H
  H96      1.0000 0.49808  0.65234  0.30523  Biso   1.000  H
  H97      1.0000 0.88760  0.98848  0.93354  Biso   1.000  H
  H98      1.0000 0.93229  0.82484  0.01366  Biso   1.000  H
  H99      1.0000 0.01722  0.87943  0.89147  Biso   1.000  H
  H100     1.0000 0.38114  0.98553  0.60683  Biso   1.000  H
  H101     1.0000 0.41718  0.84802  0.52681  Biso   1.000  H
  H102     1.0000 0.50244  0.89104  0.66013  Biso   1.000  H
  H103     1.0000 0.64518  0.47432  0.92540  Biso   1.000  H
  H104     1.0000 0.60673  0.32930  0.01180  Biso   1.000  H
  H105     1.0000 0.50437  0.39586  0.88610  Biso   1.000  H
  H106     1.0000 0.14403  0.47594  0.62245  Biso   1.000  H
  H107     1.0000 0.11166  0.34583  0.52350  Biso   1.000  H
  H108     1.0000 0.00227  0.38275  0.65648  Biso   1.000  H
  H109     1.0000 0.14786  0.97908  0.11348  Biso   1.000  H
  H110     1.0000 0.09908  0.10770  0.01846  Biso   1.000  H
  H111     1.0000 0.00434  0.05979  0.15013  Biso   1.000  H
  H112     1.0000 0.65725  0.95328  0.43609  Biso   1.000  H
  H113     1.0000 0.60576  0.08747  0.51709  Biso   1.000  H
  H114     1.0000 0.53351  0.04135  0.38310  Biso   1.000  H
  H115     1.0000 0.39340  0.46763  0.12000  Biso   1.000  H
  H116     1.0000 0.43732  0.60827  0.02396  Biso   1.000  H
  H117     1.0000 0.52879  0.54229  0.16572  Biso   1.000  H
  H118     1.0000 0.88455  0.45480  0.42494  Biso   1.000  H
  H119     1.0000 0.92388  0.59195  0.53080  Biso   1.000  H
  H120     1.0000 0.01137  0.56108  0.38848  Biso   1.000  H
  H121     1.0000 0.11016  0.96226  0.88787  Biso   1.000  H
  H122     1.0000 0.88000  0.04877  0.03535  Biso   1.000  H
  H123     1.0000 0.02003  0.83537  0.11003  Biso   1.000  H
  H124     1.0000 0.60831  0.97720  0.65798  Biso   1.000  H
  H125     1.0000 0.38305  0.06928  0.52833  Biso   1.000  H
  H126     1.0000 0.51537  0.82771  0.44545  Biso   1.000  H
  H127     1.0000 0.42412  0.49010  0.89092  Biso   1.000  H
  H128     1.0000 0.65348  0.55104  0.02333  Biso   1.000  H
  H129     1.0000 0.51453  0.32661  0.10463  Biso   1.000  H
  H130     1.0000 0.91520  0.47879  0.65192  Biso   1.000  H
  H131     1.0000 0.14728  0.57151  0.53736  Biso   1.000  H
  H132     1.0000 0.01616  0.33558  0.42552  Biso   1.000  H
  H133     1.0000 0.92311  0.95859  0.15514  Biso   1.000  H
  H134     1.0000 0.15364  0.88060  0.02358  Biso   1.000  H
  H135     1.0000 0.03055  0.10484  0.92265  Biso   1.000  H
  H136     1.0000 0.43026  0.97366  0.38825  Biso   1.000  H
  H137     1.0000 0.65451  0.86559  0.53652  Biso   1.000  H
  H138     1.0000 0.51377  0.11206  0.60230  Biso   1.000  H
  H139     1.0000 0.61709  0.44140  0.14832  Biso   1.000  H
  H140     1.0000 0.37940  0.38609  0.01782  Biso   1.000  H
  H141     1.0000 0.51845  0.61345  0.94288  Biso   1.000  H
  H142     1.0000 0.10866  0.47062  0.39204  Biso   1.000  H
  H143     1.0000 0.87841  0.36347  0.50679  Biso   1.000  H
  H144     1.0000 0.01569  0.60569  0.61138  Biso   1.000  H
  H145     1.0000 0.60064  0.48100  0.88525  Biso   1.000  H
  H146     1.0000 0.88220  0.54444  0.52111  Biso   1.000  H
  H147     1.0000 0.50284  0.85132  0.62743  Biso   1.000  H
  H148     1.0000 0.09913  0.46511  0.66076  Biso   1.000  H
  H149     1.0000 0.39102  0.56395  0.02570  Biso   1.000  H
  H150     1.0000 0.02741  0.83463  0.93380  Biso   1.000  H
  H151     1.0000 0.93421  0.98226  0.88589  Biso   1.000  H
  H152     1.0000 0.65083  0.04282  0.52192  Biso   1.000  H
  H153     1.0000 0.01053  0.34271  0.60740  Biso   1.000  H
  H154     1.0000 0.42428  0.99917  0.65161  Biso   1.000  H
  H155     1.0000 0.14353  0.06776  0.01582  Biso   1.000  H
  H156     1.0000 0.50899  0.34744  0.92308  Biso   1.000  H
  H157     1.0000 0.43524  0.46158  0.16101  Biso   1.000  H
  H158     1.0000 0.15457  0.38879  0.52729  Biso   1.000  H
  H159     1.0000 0.52755  0.08964  0.42410  Biso   1.000  H
  H160     1.0000 0.92863  0.45031  0.38683  Biso   1.000  H
  H161     1.0000 0.64835  0.36638  0.01128  Biso   1.000  H
  H162     1.0000 0.01138  0.09869  0.10694  Biso   1.000  H
  H163     1.0000 0.10673  0.97174  0.15337  Biso   1.000  H
  H164     1.0000 0.38194  0.88469  0.51919  Biso   1.000  H
  H165     1.0000 0.01078  0.60095  0.43268  Biso   1.000  H
  H166     1.0000 0.61262  0.95504  0.39394  Biso   1.000  H
  H167     1.0000 0.89034  0.86757  0.01630  Biso   1.000  H
  H168     1.0000 0.53175  0.59154  0.12676  Biso   1.000  H
  H169     1.0000 0.02564  0.06335  0.88049  Biso   1.000  H
  H170     1.0000 0.88270  0.95236  0.11436  Biso   1.000  H
  H171     1.0000 0.11527  0.83721  0.02705  Biso   1.000  H
  H172     1.0000 0.51249  0.07638  0.65403  Biso   1.000  H
  H173     1.0000 0.38558  0.98379  0.43069  Biso   1.000  H
  H174     1.0000 0.61071  0.83015  0.53478  Biso   1.000  H
  H175     1.0000 0.51294  0.57918  0.89594  Biso   1.000  H
  H176     1.0000 0.65723  0.43670  0.10208  Biso   1.000  H
  H177     1.0000 0.42299  0.34182  0.01279  Biso   1.000  H
  H178     1.0000 0.01318  0.55713  0.65446  Biso   1.000  H
  H179     1.0000 0.15254  0.47441  0.43661  Biso   1.000  H
  H180     1.0000 0.92549  0.32426  0.51164  Biso   1.000  H
  H181     1.0000 0.01399  0.88047  0.15557  Biso   1.000  H
  H182     1.0000 0.14729  0.97410  0.92804  Biso   1.000  H
  H183     1.0000 0.92095  0.09192  0.02752  Biso   1.000  H
  H184     1.0000 0.50323  0.86398  0.39557  Biso   1.000  H
  H185     1.0000 0.65110  0.96744  0.61447  Biso   1.000  H
  H186     1.0000 0.42729  0.10917  0.51794  Biso   1.000  H
  H187     1.0000 0.51452  0.36389  0.14993  Biso   1.000  H
  H188     1.0000 0.38155  0.48635  0.93933  Biso   1.000  H
  H189     1.0000 0.61313  0.59404  0.03154  Biso   1.000  H
  H190     1.0000 0.00896  0.37934  0.38347  Biso   1.000  H
  H191     1.0000 0.87627  0.46087  0.60950  Biso   1.000  H
  H192     1.0000 0.10736  0.61263  0.53212  Biso   1.000  H
  H193     1.0000 0.28747  0.83598  0.49660  Biso   1.000  H
  H194     1.0000 0.51734  0.25923  0.85777  Biso   1.000  H
  H195     1.0000 0.88106  0.45652  0.28741  Biso   1.000  H
  H196     1.0000 0.79271  0.81745  0.01076  Biso   1.000  H
  H197     1.0000 0.03260  0.24622  0.65988  Biso   1.000  H
  H198     1.0000 0.38306  0.45492  0.25817  Biso   1.000  H
  H199     1.0000 0.25226  0.33407  0.53147  Biso   1.000  H
  H200     1.0000 0.01890  0.74130  0.87918  Biso   1.000  H
  H201     1.0000 0.66091  0.92588  0.29650  Biso   1.000  H
  H202     1.0000 0.74292  0.30934  0.00640  Biso   1.000  H
  H203     1.0000 0.51705  0.75974  0.68570  Biso   1.000  H
  H204     1.0000 0.15685  0.98068  0.24962  Biso   1.000  H
  H205     1.0000 0.74818  0.09633  0.52482  Biso   1.000  H
  H206     1.0000 0.52034  0.67858  0.19333  Biso   1.000  H
  H207     1.0000 0.14455  0.46900  0.76053  Biso   1.000  H
  H208     1.0000 0.24003  0.12377  0.02484  Biso   1.000  H
  H209     1.0000 0.01618  0.70162  0.38193  Biso   1.000  H
  H210     1.0000 0.65043  0.48121  0.78350  Biso   1.000  H
  H211     1.0000 0.78260  0.58996  0.51862  Biso   1.000  H
  H212     1.0000 0.02363  0.19739  0.15855  Biso   1.000  H
  H213     1.0000 0.36905  0.00823  0.74707  Biso   1.000  H
  H214     1.0000 0.29730  0.62340  0.03702  Biso   1.000  H
  H215     1.0000 0.51645  0.17985  0.36065  Biso   1.000  H
  H216     1.0000 0.87872  0.98693  0.79188  Biso   1.000  H
  H217     1.0000 0.25286  0.48295  0.38777  Biso   1.000  H
  H218     1.0000 0.37852  0.20430  0.48652  Biso   1.000  H
  H219     1.0000 0.52356  0.30079  0.24123  Biso   1.000  H
  H220     1.0000 0.75882  0.42198  0.15031  Biso   1.000  H
  H221     1.0000 0.86350  0.18306  0.00636  Biso   1.000  H
  H222     1.0000 0.00485  0.32981  0.28544  Biso   1.000  H
  H223     1.0000 0.28784  0.96166  0.37787  Biso   1.000  H
  H224     1.0000 0.15614  0.70928  0.52328  Biso   1.000  H
  H225     1.0000 0.02077  0.83136  0.25616  Biso   1.000  H
  H226     1.0000 0.78570  0.94108  0.16528  Biso   1.000  H
  H227     1.0000 0.67949  0.68121  0.04711  Biso   1.000  H
  H228     1.0000 0.52081  0.80216  0.30536  Biso   1.000  H
  H229     1.0000 0.78970  0.42105  0.65952  Biso   1.000  H
  H230     1.0000 0.65303  0.72862  0.53274  Biso   1.000  H
  H231     1.0000 0.50382  0.64358  0.80748  Biso   1.000  H
  H232     1.0000 0.28067  0.48196  0.89073  Biso   1.000  H
  H233     1.0000 0.16795  0.74370  0.04388  Biso   1.000  H
  H234     1.0000 0.02325  0.61265  0.74969  Biso   1.000  H
  H235     1.0000 0.74771  0.96226  0.67243  Biso   1.000  H
  H236     1.0000 0.88309  0.22481  0.52557  Biso   1.000  H
  H237     1.0000 0.01730  0.10960  0.78228  Biso   1.000  H
  H238     1.0000 0.24675  0.97796  0.87843  Biso   1.000  H
  H239     1.0000 0.37178  0.24456  0.00377  Biso   1.000  H
  H240     1.0000 0.51694  0.14051  0.74113  Biso   1.000  H
  H241     1.0000 0.73741  0.45294  0.86998  Biso   1.000  H
  H242     1.0000 0.85806  0.68320  0.53126  Biso   1.000  H
  H243     1.0000 0.50359  0.85803  0.76562  Biso   1.000  H
  H244     1.0000 0.23565  0.47924  0.68412  Biso   1.000  H
  H245     1.0000 0.38271  0.70365  0.03128  Biso   1.000  H
  H246     1.0000 0.02346  0.82290  0.79543  Biso   1.000  H
  H247     1.0000 0.79088  0.97296  0.88236  Biso   1.000  H
  H248     1.0000 0.66502  0.18171  0.53136  Biso   1.000  H
  H249     1.0000 0.00447  0.32141  0.74565  Biso   1.000  H
  H250     1.0000 0.28585  0.96633  0.65973  Biso   1.000  H
  H251     1.0000 0.15073  0.20514  0.02658  Biso   1.000  H
  H252     1.0000 0.49888  0.35052  0.78539  Biso   1.000  H
  H253     1.0000 0.30055  0.48912  0.17526  Biso   1.000  H
  H254     1.0000 0.16920  0.25169  0.52648  Biso   1.000  H
  H255     1.0000 0.51279  0.08798  0.28448  Biso   1.000  H
  H256     1.0000 0.79112  0.42880  0.37150  Biso   1.000  H
  H257     1.0000 0.65451  0.22801  0.01250  Biso   1.000  H
  H258     1.0000 0.99741  0.11789  0.24603  Biso   1.000  H
  H259     1.0000 0.24115  0.95587  0.16998  Biso   1.000  H
  H260     1.0000 0.37121  0.75092  0.54337  Biso   1.000  H
  H261     1.0000 0.01598  0.61799  0.29393  Biso   1.000  H
  H262     1.0000 0.75072  0.94330  0.37656  Biso   1.000  H
  H263     1.0000 0.88050  0.73071  0.03531  Biso   1.000  H
  H264     1.0000 0.53828  0.58809  0.26611  Biso   1.000  H
  H265     1.0000 0.00953  0.19981  0.87087  Biso   1.000  H
  H266     1.0000 0.87265  0.94899  0.25077  Biso   1.000  H
  H267     1.0000 0.25412  0.83101  0.02664  Biso   1.000  H
  H268     1.0000 0.50844  0.21516  0.64700  Biso   1.000  H
  H269     1.0000 0.37830  0.95434  0.29137  Biso   1.000  H
  H270     1.0000 0.74960  0.80760  0.52300  Biso   1.000  H
  H271     1.0000 0.52897  0.71372  0.90291  Biso   1.000  H
  H272     1.0000 0.67223  0.42662  0.24104  Biso   1.000  H
  H273     1.0000 0.28715  0.33307  0.03253  Biso   1.000  H
  H274     1.0000 0.01230  0.70213  0.67167  Biso   1.000  H
  H275     1.0000 0.16973  0.47056  0.29956  Biso   1.000  H
  H276     1.0000 0.78437  0.30672  0.51090  Biso   1.000  H
  H277     1.0000 0.03420  0.74163  0.16859  Biso   1.000  H
  H278     1.0000 0.16360  0.96866  0.79034  Biso   1.000  H
  H279     1.0000 0.77869  0.09547  0.02984  Biso   1.000  H
  H280     1.0000 0.51823  0.72659  0.40139  Biso   1.000  H
  H281     1.0000 0.66309  0.98675  0.75429  Biso   1.000  H
  H282     1.0000 0.28863  0.12150  0.50860  Biso   1.000  H
  H283     1.0000 0.50861  0.22393  0.14524  Biso   1.000  H
  H284     1.0000 0.36360  0.48241  0.79735  Biso   1.000  H
  H285     1.0000 0.75290  0.59654  0.00810  Biso   1.000  H
  H286     1.0000 0.02619  0.24127  0.36774  Biso   1.000  H
  H287     1.0000 0.85659  0.47591  0.74508  Biso   1.000  H
  H288     1.0000 0.24266  0.62127  0.51487  Biso   1.000  H
  H289     1.0000 0.09699  0.20205  0.01814  Biso   1.000  H
  H290     1.0000 0.00123  0.06285  0.24778  Biso   1.000  H
  H291     1.0000 0.24378  0.95185  0.11429  Biso   1.000  H
  H292     1.0000 0.61038  0.18387  0.52093  Biso   1.000  H
  H293     1.0000 0.51788  0.03502  0.28726  Biso   1.000  H
  H294     1.0000 0.75107  0.95810  0.43152  Biso   1.000  H
  H295     1.0000 0.43879  0.70168  0.03628  Biso   1.000  H
  H296     1.0000 0.53975  0.53346  0.26129  Biso   1.000  H
  H297     1.0000 0.29819  0.48334  0.12208  Biso   1.000  H
  H298     1.0000 0.91054  0.68920  0.53682  Biso   1.000  H
  H299     1.0000 0.01642  0.56237  0.29222  Biso   1.000  H
  H300     1.0000 0.79248  0.42731  0.42629  Biso   1.000  H
  H301     1.0000 0.93470  0.73313  0.04119  Biso   1.000  H
  H302     1.0000 0.01291  0.87678  0.79464  Biso   1.000  H
  H303     1.0000 0.79331  0.96944  0.93368  Biso   1.000  H
  H304     1.0000 0.42240  0.75436  0.55407  Biso   1.000  H
  H305     1.0000 0.49601  0.91013  0.75431  Biso   1.000  H
  H306     1.0000 0.29119  0.96172  0.60600  Biso   1.000  H
  H307     1.0000 0.59846  0.23479  0.00895  Biso   1.000  H
  H308     1.0000 0.50246  0.40662  0.79120  Biso   1.000  H
  H309     1.0000 0.73568  0.44693  0.92266  Biso   1.000  H
  H310     1.0000 0.11232  0.25065  0.52457  Biso   1.000  H
  H311     1.0000 0.99734  0.37770  0.75137  Biso   1.000  H
  H312     1.0000 0.23971  0.48104  0.62995  Biso   1.000  H
  H313     1.0000 0.24414  0.98509  0.93418  Biso   1.000  H
  H314     1.0000 0.91642  0.18468  0.00521  Biso   1.000  H
  H315     1.0000 0.02327  0.88280  0.25046  Biso   1.000  H
  H316     1.0000 0.74533  0.95216  0.61558  Biso   1.000  H
  H317     1.0000 0.43226  0.19891  0.48787  Biso   1.000  H
  H318     1.0000 0.51672  0.85828  0.30515  Biso   1.000  H
  H319     1.0000 0.28393  0.48657  0.94388  Biso   1.000  H
  H320     1.0000 0.62575  0.68829  0.05236  Biso   1.000  H
  H321     1.0000 0.52352  0.35339  0.24459  Biso   1.000  H
  H322     1.0000 0.78782  0.41995  0.60319  Biso   1.000  H
  H323     1.0000 0.09964  0.70571  0.51983  Biso   1.000  H
  H324     1.0000 0.00631  0.38341  0.28722  Biso   1.000  H
  H325     1.0000 0.78520  0.94349  0.11273  Biso   1.000  H
  H326     1.0000 0.11630  0.74144  0.04521  Biso   1.000  H
  H327     1.0000 0.01794  0.05660  0.78604  Biso   1.000  H
  H328     1.0000 0.29136  0.97103  0.43066  Biso   1.000  H
  H329     1.0000 0.59899  0.73559  0.53540  Biso   1.000  H
  H330     1.0000 0.52420  0.08755  0.74790  Biso   1.000  H
  H331     1.0000 0.75362  0.43040  0.09834  Biso   1.000  H
  H332     1.0000 0.42561  0.24710  0.99554  Biso   1.000  H
  H333     1.0000 0.51075  0.58966  0.79911  Biso   1.000  H
  H334     1.0000 0.25141  0.47700  0.44195  Biso   1.000  H
  H335     1.0000 0.93416  0.23168  0.52896  Biso   1.000  H
  H336     1.0000 0.02407  0.55666  0.74880  Biso   1.000  H
  H337     1.0000 0.00367  0.19577  0.92583  Biso   1.000  H
  H338     1.0000 0.92551  0.96190  0.24973  Biso   1.000  H
  H339     1.0000 0.24930  0.88355  0.02096  Biso   1.000  H
  H340     1.0000 0.50337  0.20758  0.59079  Biso   1.000  H
  H341     1.0000 0.43185  0.95448  0.29299  Biso   1.000  H
  H342     1.0000 0.74765  0.86212  0.52407  Biso   1.000  H
  H343     1.0000 0.53825  0.70622  0.95524  Biso   1.000  H
  H344     1.0000 0.62132  0.42970  0.24321  Biso   1.000  H
  H345     1.0000 0.28543  0.38405  0.03108  Biso   1.000  H
  H346     1.0000 0.01319  0.70136  0.61364  Biso   1.000  H
  H347     1.0000 0.12000  0.47826  0.29625  Biso   1.000  H
  H348     1.0000 0.78452  0.36037  0.50563  Biso   1.000  H
  H349     1.0000 0.02999  0.73956  0.11550  Biso   1.000  H
  H350     1.0000 0.11175  0.95758  0.79332  Biso   1.000  H
  H351     1.0000 0.78191  0.04599  0.03893  Biso   1.000  H
  H352     1.0000 0.51535  0.73432  0.45807  Biso   1.000  H
  H353     1.0000 0.60705  0.98931  0.75480  Biso   1.000  H
  H354     1.0000 0.28750  0.06856  0.51800  Biso   1.000  H
  H355     1.0000 0.50318  0.23258  0.09130  Biso   1.000  H
  H356     1.0000 0.41567  0.48947  0.79718  Biso   1.000  H
  H357     1.0000 0.74794  0.54166  0.00550  Biso   1.000  H
  H358     1.0000 0.02735  0.24109  0.42420  Biso   1.000  H
  H359     1.0000 0.90707  0.48903  0.74723  Biso   1.000  H
  H360     1.0000 0.24349  0.56791  0.52102  Biso   1.000  H
  H361     1.0000 0.02417  0.69515  0.43611  Biso   1.000  H
  H362     1.0000 0.42327  0.01560  0.74282  Biso   1.000  H
  H363     1.0000 0.74490  0.36464  0.00703  Biso   1.000  H
  H364     1.0000 0.51862  0.68786  0.13474  Biso   1.000  H
  H365     1.0000 0.93269  0.98913  0.79245  Biso   1.000  H
  H366     1.0000 0.25072  0.38587  0.54227  Biso   1.000  H
  H367     1.0000 0.52214  0.18399  0.41661  Biso   1.000  H
  H368     1.0000 0.09164  0.46215  0.75610  Biso   1.000  H
  H369     1.0000 0.79529  0.87163  0.00868  Biso   1.000  H
  H370     1.0000 0.02689  0.19606  0.10205  Biso   1.000  H
  H371     1.0000 0.60174  0.49272  0.78960  Biso   1.000  H
  H372     1.0000 0.29208  0.88690  0.48789  Biso   1.000  H
  H373     1.0000 0.02738  0.24849  0.60511  Biso   1.000  H
  H374     1.0000 0.60647  0.93948  0.29989  Biso   1.000  H
  H375     1.0000 0.29731  0.56719  0.03428  Biso   1.000  H
  H376     1.0000 0.51947  0.25457  0.91113  Biso   1.000  H
  H377     1.0000 0.10351  0.98101  0.24852  Biso   1.000  H
  H378     1.0000 0.78822  0.53588  0.51799  Biso   1.000  H
  H379     1.0000 0.51677  0.75727  0.63226  Biso   1.000  H
  H380     1.0000 0.93467  0.46010  0.29006  Biso   1.000  H
  H381     1.0000 0.24271  0.06872  0.02887  Biso   1.000  H
  H382     1.0000 0.02635  0.74052  0.93342  Biso   1.000  H
  H383     1.0000 0.43667  0.45109  0.25821  Biso   1.000  H
  H384     1.0000 0.74916  0.04417  0.53087  Biso   1.000  H
  H385     1.0000 0.25392  0.45084  0.36220  Biso   1.000  H
  H386     1.0000 0.28891  0.15458  0.47379  Biso   1.000  H
  H387     1.0000 0.48346  0.27100  0.23243  Biso   1.000  H
  H388     1.0000 0.70144  0.39398  0.23814  Biso   1.000  H
  H389     1.0000 0.84056  0.18946  0.04097  Biso   1.000  H
  H390     1.0000 0.98481  0.24726  0.34380  Biso   1.000  H
  H391     1.0000 0.29572  0.93225  0.34822  Biso   1.000  H
  H392     1.0000 0.18591  0.70676  0.49356  Biso   1.000  H
  H393     1.0000 0.99988  0.74630  0.19381  Biso   1.000  H
  H394     1.0000 0.79259  0.91013  0.19227  Biso   1.000  H
  H395     1.0000 0.76275  0.62621  0.03443  Biso   1.000  H
  H396     1.0000 0.55062  0.77127  0.32415  Biso   1.000  H
  H397     1.0000 0.77036  0.46806  0.67979  Biso   1.000  H
  H398     1.0000 0.74454  0.77272  0.55210  Biso   1.000  H
  H399     1.0000 0.55166  0.66983  0.81502  Biso   1.000  H
  H400     1.0000 0.32709  0.51666  0.80500  Biso   1.000  H
  H401     1.0000 0.25233  0.79969  0.00146  Biso   1.000  H
  H402     1.0000 0.06338  0.65530  0.73853  Biso   1.000  H
  H403     1.0000 0.73595  0.93355  0.70508  Biso   1.000  H
  H404     1.0000 0.78922  0.28183  0.54917  Biso   1.000  H
  H405     1.0000 0.97853  0.18806  0.82954  Biso   1.000  H
  H406     1.0000 0.24681  0.00721  0.83784  Biso   1.000  H
  H407     1.0000 0.28605  0.30540  0.98908  Biso   1.000  H
  H408     1.0000 0.47517  0.16686  0.72673  Biso   1.000  H
  H409     1.0000 0.29708  0.44889  0.19871  Biso   1.000  H
  H410     1.0000 0.20432  0.26979  0.47626  Biso   1.000  H
  H411     1.0000 0.48519  0.16973  0.33506  Biso   1.000  H
  H412     1.0000 0.85833  0.41781  0.28350  Biso   1.000  H
  H413     1.0000 0.68421  0.22935  0.97794  Biso   1.000  H
  H414     1.0000 0.98781  0.20490  0.18424  Biso   1.000  H
  H415     1.0000 0.18808  0.93450  0.24455  Biso   1.000  H
  H416     1.0000 0.34904  0.74701  0.50829  Biso   1.000  H
  H417     1.0000 0.98081  0.65218  0.29783  Biso   1.000  H
  H418     1.0000 0.74839  0.90452  0.35256  Biso   1.000  H
  H419     1.0000 0.84148  0.73264  0.05656  Biso   1.000  H
  H420     1.0000 0.50120  0.61744  0.26468  Biso   1.000  H
  H421     1.0000 0.73642  0.49100  0.84141  Biso   1.000  H
  H422     1.0000 0.78203  0.61814  0.55302  Biso   1.000  H
  H423     1.0000 0.54605  0.77447  0.71843  Biso   1.000  H
  H424     1.0000 0.17045  0.49981  0.76297  Biso   1.000  H
  H425     1.0000 0.35032  0.69620  0.99357  Biso   1.000  H
  H426     1.0000 0.05042  0.74347  0.84865  Biso   1.000  H
  H427     1.0000 0.79207  0.00215  0.85142  Biso   1.000  H
  H428     1.0000 0.74040  0.12623  0.56064  Biso   1.000  H
  H429     1.0000 0.04441  0.30052  0.74530  Biso   1.000  H
  H430     1.0000 0.35441  0.97154  0.74910  Biso   1.000  H
  H431     1.0000 0.18777  0.19630  0.98441  Biso   1.000  H
  H432     1.0000 0.48482  0.26270  0.83660  Biso   1.000  H
  H433     1.0000 0.28594  0.99608  0.69086  Biso   1.000  H
  H434     1.0000 0.73801  0.28169  0.03902  Biso   1.000  H
  H435     1.0000 0.05278  0.68981  0.34751  Biso   1.000  H
  H436     1.0000 0.84948  0.95252  0.79567  Biso   1.000  H
  H437     1.0000 0.24463  0.29704  0.56005  Biso   1.000  H
  H438     1.0000 0.55830  0.67619  0.21814  Biso   1.000  H
  H439     1.0000 0.22840  0.44237  0.71110  Biso   1.000  H
  H440     1.0000 0.80231  0.77976  0.98294  Biso   1.000  H
  H441     1.0000 0.54695  0.11704  0.28141  Biso   1.000  H
  H442     1.0000 0.67477  0.44419  0.78475  Biso   1.000  H
  H443     1.0000 0.27970  0.80616  0.53857  Biso   1.000  H
  H444     1.0000 0.03724  0.14299  0.23931  Biso   1.000  H
  H445     1.0000 0.69182  0.95796  0.29688  Biso   1.000  H
  H446     1.0000 0.30944  0.65367  0.06971  Biso   1.000  H
  H447     1.0000 0.99178  0.24274  0.68251  Biso   1.000  H
  H448     1.0000 0.23542  0.00170  0.20209  Biso   1.000  H
  H449     1.0000 0.83044  0.67331  0.49628  Biso   1.000  H
  H450     1.0000 0.52494  0.32053  0.77387  Biso   1.000  H
  H451     1.0000 0.79097  0.45711  0.34277  Biso   1.000  H
  H452     1.0000 0.23135  0.15704  0.05912  Biso   1.000  H
  H453     1.0000 0.47447  0.81747  0.76468  Biso   1.000  H
  H454     1.0000 0.35692  0.48557  0.26702  Biso   1.000  H
  H455     1.0000 0.69956  0.17435  0.49259  Biso   1.000  H
  H456     1.0000 0.98541  0.79417  0.80076  Biso   1.000  H
  H457     1.0000 0.67912  0.73303  0.49498  Biso   1.000  H
  H458     1.0000 0.49332  0.71646  0.87121  Biso   1.000  H
  H459     1.0000 0.83678  0.43525  0.74610  Biso   1.000  H
  H460     1.0000 0.20278  0.74652  0.06721  Biso   1.000  H
  H461     1.0000 0.97458  0.68118  0.71027  Biso   1.000  H
  H462     1.0000 0.28847  0.44580  0.85919  Biso   1.000  H
  H463     1.0000 0.85064  0.22245  0.50720  Biso   1.000  H
  H464     1.0000 0.05129  0.14510  0.78479  Biso   1.000  H
  H465     1.0000 0.70047  0.01193  0.74714  Biso   1.000  H
  H466     1.0000 0.34387  0.24449  0.04060  Biso   1.000  H
  H467     1.0000 0.54132  0.21653  0.68011  Biso   1.000  H
  H468     1.0000 0.19486  0.93383  0.80324  Biso   1.000  H
  H469     1.0000 0.35328  0.20600  0.52540  Biso   1.000  H
  H470     1.0000 0.54763  0.22491  0.17929  Biso   1.000  H
  H471     1.0000 0.19995  0.50167  0.29835  Biso   1.000  H
  H472     1.0000 0.78798  0.12537  0.98979  Biso   1.000  H
  H473     1.0000 0.04618  0.29732  0.29226  Biso   1.000  H
  H474     1.0000 0.75393  0.45335  0.18214  Biso   1.000  H
  H475     1.0000 0.23797  0.65287  0.55227  Biso   1.000  H
  H476     1.0000 0.05592  0.79776  0.25116  Biso   1.000  H
  H477     1.0000 0.34890  0.98188  0.28739  Biso   1.000  H
  H478     1.0000 0.69247  0.68531  0.00406  Biso   1.000  H
  H479     1.0000 0.48211  0.72444  0.36711  Biso   1.000  H
  H480     1.0000 0.83696  0.97269  0.25240  Biso   1.000  H
  N1       1.0000 0.69416  0.12799  0.52475  Biso   1.000  N
  N2       1.0000 0.52891  0.62520  0.21550  Biso   1.000  N
  N3       1.0000 0.17976  0.47589  0.70996  Biso   1.000  N
  N4       1.0000 0.18664  0.15327  0.02356  Biso   1.000  N
  N5       1.0000 0.01527  0.64753  0.34696  Biso   1.000  N
  N6       1.0000 0.68448  0.47007  0.83811  Biso   1.000  N
  N7       1.0000 0.83194  0.62717  0.52720  Biso   1.000  N
  N8       1.0000 0.00888  0.14741  0.19207  Biso   1.000  N
  N9       1.0000 0.34033  0.98629  0.69511  Biso   1.000  N
  N10      1.0000 0.35226  0.65038  0.03334  Biso   1.000  N
  N11      1.0000 0.51979  0.12431  0.33376  Biso   1.000  N
  N12      1.0000 0.84483  0.98082  0.84636  Biso   1.000  N
  N13      1.0000 0.33838  0.80112  0.51854  Biso   1.000  N
  N14      1.0000 0.50601  0.31485  0.83152  Biso   1.000  N
  N15      1.0000 0.84706  0.44145  0.33952  Biso   1.000  N
  N16      1.0000 0.84587  0.78328  0.02251  Biso   1.000  N
  N17      1.0000 0.01433  0.29652  0.69193  Biso   1.000  N
  N18      1.0000 0.35079  0.46698  0.20790  Biso   1.000  N
  N19      1.0000 0.20011  0.30578  0.52072  Biso   1.000  N
  N20      1.0000 0.02167  0.79268  0.84816  Biso   1.000  N
  N21      1.0000 0.69515  0.93534  0.34878  Biso   1.000  N
  N22      1.0000 0.68919  0.28009  0.00855  Biso   1.000  N
  N23      1.0000 0.50881  0.81757  0.71558  Biso   1.000  N
  N24      1.0000 0.18975  0.96817  0.19809  Biso   1.000  N
  N25      1.0000 0.83114  0.45497  0.69192  Biso   1.000  N
  N26      1.0000 0.69043  0.77718  0.52698  Biso   1.000  N
  N27      1.0000 0.51856  0.66727  0.86416  Biso   1.000  N
  N28      1.0000 0.33301  0.48291  0.85487  Biso   1.000  N
  N29      1.0000 0.20015  0.79540  0.03094  Biso   1.000  N
  N30      1.0000 0.01929  0.64488  0.69847  Biso   1.000  N
  N31      1.0000 0.69513  0.97458  0.70125  Biso   1.000  N
  N32      1.0000 0.84247  0.27670  0.52316  Biso   1.000  N
  N33      1.0000 0.01890  0.14581  0.83388  Biso   1.000  N
  N34      1.0000 0.19696  0.97234  0.84628  Biso   1.000  N
  N35      1.0000 0.33910  0.29807  0.01602  Biso   1.000  N
  N36      1.0000 0.50856  0.16626  0.68419  Biso   1.000  N
  N37      1.0000 0.19944  0.47594  0.35406  Biso   1.000  N
  N38      1.0000 0.34273  0.15303  0.50167  Biso   1.000  N
  N39      1.0000 0.51624  0.27266  0.18453  Biso   1.000  N
  N40      1.0000 0.70335  0.42484  0.18700  Biso   1.000  N
  N41      1.0000 0.83363  0.13025  0.02057  Biso   1.000  N
  N42      1.0000 0.01536  0.29667  0.33925  Biso   1.000  N
  N43      1.0000 0.34413  0.96012  0.34371  Biso   1.000  N
  N44      1.0000 0.19078  0.65504  0.52358  Biso   1.000  N
  N45      1.0000 0.02658  0.79598  0.20019  Biso   1.000  N
  N46      1.0000 0.83859  0.94483  0.19851  Biso   1.000  N
  N47      1.0000 0.70230  0.63064  0.02451  Biso   1.000  N
  N48      1.0000 0.51411  0.77512  0.36463  Biso   1.000  N
  O1       1.0000 0.36605  0.51488  0.03342  Biso   1.000  O
  O2       1.0000 0.01941  0.31902  0.55615  Biso   1.000  O
  O3       1.0000 0.56141  0.94951  0.37059  Biso   1.000  O
  O4       1.0000 0.86193  0.49369  0.51585  Biso   1.000  O
  O5       1.0000 0.51381  0.31864  0.96854  Biso   1.000  O
  O6       1.0000 0.05363  0.97745  0.17856  Biso   1.000  O
  O7       1.0000 0.17193  0.01642  0.02558  Biso   1.000  O
  O8       1.0000 0.51697  0.82284  0.57837  Biso   1.000  O
  O9       1.0000 0.98101  0.46423  0.36538  Biso   1.000  O
  O10      1.0000 0.67631  0.99377  0.52550  Biso   1.000  O
  O11      1.0000 0.02717  0.81122  0.98429  Biso   1.000  O
  O12      1.0000 0.48379  0.45595  0.18316  Biso   1.000  O
  O13      1.0000 0.67464  0.41549  0.01406  Biso   1.000  O
  O14      1.0000 0.00488  0.62467  0.48034  Biso   1.000  O
  O15      1.0000 0.47303  0.99469  0.67679  Biso   1.000  O
  O16      1.0000 0.17474  0.43547  0.53173  Biso   1.000  O
  O17      1.0000 0.52323  0.61961  0.07920  Biso   1.000  O
  O18      1.0000 0.97957  0.98167  0.86214  Biso   1.000  O
  O19      1.0000 0.86698  0.91890  0.01947  Biso   1.000  O
  O20      1.0000 0.52440  0.11525  0.46954  Biso   1.000  O
  O21      1.0000 0.04513  0.46135  0.68233  Biso   1.000  O
  O22      1.0000 0.36162  0.93558  0.50706  Biso   1.000  O
  O23      1.0000 0.01546  0.12028  0.05622  Biso   1.000  O
  O24      1.0000 0.55240  0.49504  0.86453  Biso   1.000  O
  O25      1.0000 0.97220  0.96705  0.17657  Biso   1.000  O
  O26      1.0000 0.17657  0.93048  0.01979  Biso   1.000  O
  O27      1.0000 0.01494  0.12144  0.96994  Biso   1.000  O
  O28      1.0000 0.47932  0.95559  0.36837  Biso   1.000  O
  O29      1.0000 0.67923  0.91169  0.52436  Biso   1.000  O
  O30      1.0000 0.51255  0.12837  0.55233  Biso   1.000  O
  O31      1.0000 0.56701  0.44366  0.17359  Biso   1.000  O
  O32      1.0000 0.35924  0.43275  0.02424  Biso   1.000  O
  O33      1.0000 0.53009  0.63045  0.99506  Biso   1.000  O
  O34      1.0000 0.06255  0.47430  0.36611  Biso   1.000  O
  O35      1.0000 0.85714  0.40884  0.51308  Biso   1.000  O
  O36      1.0000 0.01669  0.62928  0.56545  Biso   1.000  O
  O37      1.0000 0.06307  0.96029  0.86780  Biso   1.000  O
  O38      1.0000 0.86035  0.00052  0.03298  Biso   1.000  O
  O39      1.0000 0.02170  0.81322  0.06701  Biso   1.000  O
  O40      1.0000 0.55884  0.98707  0.67942  Biso   1.000  O
  O41      1.0000 0.35893  0.01720  0.52770  Biso   1.000  O
  O42      1.0000 0.51715  0.81298  0.49535  Biso   1.000  O
  O43      1.0000 0.46672  0.49156  0.86837  Biso   1.000  O
  O44      1.0000 0.67460  0.49938  0.01965  Biso   1.000  O
  O45      1.0000 0.50888  0.30977  0.05203  Biso   1.000  O
  O46      1.0000 0.96382  0.47612  0.68076  Biso   1.000  O
  O47      1.0000 0.17430  0.52006  0.53384  Biso   1.000  O
  O48      1.0000 0.02374  0.31314  0.47316  Biso   1.000  O
  O49      1.0000 0.02351  0.93092  0.17674  Biso   1.000  O
  O50      1.0000 0.17256  0.97639  0.98073  Biso   1.000  O
  O51      1.0000 0.97042  0.12101  0.01306  Biso   1.000  O
  O52      1.0000 0.51798  0.90983  0.37291  Biso   1.000  O
  O53      1.0000 0.67583  0.95167  0.56592  Biso   1.000  O
  O54      1.0000 0.47662  0.12287  0.50167  Biso   1.000  O
  O55      1.0000 0.51854  0.40864  0.17755  Biso   1.000  O
  O56      1.0000 0.35777  0.47541  0.98690  Biso   1.000  O
  O57      1.0000 0.56869  0.62162  0.04017  Biso   1.000  O
  O58      1.0000 0.02582  0.42757  0.35989  Biso   1.000  O
  O59      1.0000 0.85591  0.44860  0.55643  Biso   1.000  O
  O60      1.0000 0.05725  0.62882  0.52296  Biso   1.000  O
  O61      1.0000 0.03001  0.01239  0.86193  Biso   1.000  O
  O62      1.0000 0.86048  0.95355  0.06826  Biso   1.000  O
  O63      1.0000 0.06555  0.81346  0.02966  Biso   1.000  O
  O64      1.0000 0.51831  0.03148  0.67833  Biso   1.000  O
  O65      1.0000 0.36117  0.98528  0.47894  Biso   1.000  O
  O66      1.0000 0.55757  0.81347  0.53604  Biso   1.000  O
  O67      1.0000 0.50849  0.53359  0.86909  Biso   1.000  O
  O68      1.0000 0.67915  0.45520  0.05862  Biso   1.000  O
  O69      1.0000 0.47221  0.31928  0.00966  Biso   1.000  O
  O70      1.0000 0.01164  0.51011  0.67771  Biso   1.000  O
  O71      1.0000 0.17485  0.48033  0.49008  Biso   1.000  O
  O72      1.0000 0.97725  0.30723  0.51472  Biso   1.000  O
  O73      1.0000 0.99462  0.42848  0.68110  Biso   1.000  O
  O74      1.0000 0.67988  0.95502  0.48171  Biso   1.000  O
  O75      1.0000 0.48465  0.62648  0.03487  Biso   1.000  O
  O76      1.0000 0.50696  0.44887  0.86567  Biso   1.000  O
  O77      1.0000 0.17572  0.97395  0.06363  Biso   1.000  O
  O78      1.0000 0.97079  0.62075  0.52640  Biso   1.000  O
  O79      1.0000 0.51260  0.94764  0.67861  Biso   1.000  O
  O80      1.0000 0.85966  0.45032  0.47376  Biso   1.000  O
  O81      1.0000 0.05459  0.12694  0.01257  Biso   1.000  O
  O82      1.0000 0.01290  0.92947  0.86522  Biso   1.000  O
  O83      1.0000 0.36331  0.47047  0.06857  Biso   1.000  O
  O84      1.0000 0.55829  0.11793  0.51885  Biso   1.000  O
  O85      1.0000 0.01612  0.51191  0.36446  Biso   1.000  O
  O86      1.0000 0.36246  0.96918  0.55953  Biso   1.000  O
  O87      1.0000 0.55655  0.30887  0.01465  Biso   1.000  O
  O88      1.0000 0.53266  0.49213  0.18122  Biso   1.000  O
  O89      1.0000 0.86443  0.96839  0.98540  Biso   1.000  O
  O90      1.0000 0.06163  0.32007  0.51876  Biso   1.000  O
  O91      1.0000 0.52381  0.99189  0.36390  Biso   1.000  O
  O92      1.0000 0.17114  0.47863  0.57381  Biso   1.000  O
  O93      1.0000 0.98178  0.80614  0.02035  Biso   1.000  O
  O94      1.0000 0.00606  0.01227  0.17600  Biso   1.000  O
  O95      1.0000 0.67219  0.45837  0.97635  Biso   1.000  O
  O96      1.0000 0.47264  0.82339  0.53595  Biso   1.000  O
  O97      1.0000 0.47931  0.17393  0.49973  Biso   1.000  O
  O98      1.0000 0.52370  0.40468  0.22632  Biso   1.000  O
  O99      1.0000 0.22397  0.47927  0.49056  Biso   1.000  O
  O100     1.0000 0.96497  0.16816  0.02206  Biso   1.000  O
  O101     1.0000 0.02056  0.43044  0.31141  Biso   1.000  O
  O102     1.0000 0.72881  0.45625  0.05558  Biso   1.000  O
  O103     1.0000 0.04856  0.67514  0.51934  Biso   1.000  O
  O104     1.0000 0.01350  0.93041  0.22493  Biso   1.000  O
  O105     1.0000 0.31176  0.98345  0.47575  Biso   1.000  O
  O106     1.0000 0.57134  0.66911  0.04652  Biso   1.000  O
  O107     1.0000 0.51977  0.90568  0.32565  Biso   1.000  O
  O108     1.0000 0.81229  0.94856  0.06335  Biso   1.000  O
  O109     1.0000 0.55158  0.76510  0.54166  Biso   1.000  O
  O110     1.0000 0.50491  0.53377  0.82070  Biso   1.000  O
  O111     1.0000 0.80652  0.45342  0.55922  Biso   1.000  O
  O112     1.0000 0.06668  0.76560  0.02182  Biso   1.000  O
  O113     1.0000 0.00846  0.51249  0.72529  Biso   1.000  O
  O114     1.0000 0.30968  0.47904  0.98985  Biso   1.000  O
  O115     1.0000 0.98123  0.26039  0.51465  Biso   1.000  O
  O116     1.0000 0.02663  0.00919  0.81314  Biso   1.000  O
  O117     1.0000 0.72459  0.95282  0.56735  Biso   1.000  O
  O118     1.0000 0.47090  0.27003  0.00395  Biso   1.000  O
  O119     1.0000 0.51895  0.03436  0.72745  Biso   1.000  O
  O120     1.0000 0.22155  0.97827  0.98011  Biso   1.000  O
  O121     1.0000 0.04336  0.46599  0.73019  Biso   1.000  O
  O122     1.0000 0.72567  0.99330  0.52725  Biso   1.000  O
  O123     1.0000 0.52840  0.66718  0.08555  Biso   1.000  O
  O124     1.0000 0.54928  0.49115  0.81590  Biso   1.000  O
  O125     1.0000 0.21944  0.01820  0.02273  Biso   1.000  O
  O126     1.0000 0.00405  0.67385  0.47986  Biso   1.000  O
  O127     1.0000 0.47328  0.00022  0.72484  Biso   1.000  O
  O128     1.0000 0.81294  0.49273  0.51614  Biso   1.000  O
  O129     1.0000 0.00670  0.16886  0.05719  Biso   1.000  O
  O130     1.0000 0.97831  0.97546  0.81523  Biso   1.000  O
  O131     1.0000 0.31712  0.51791  0.03705  Biso   1.000  O
  O132     1.0000 0.52913  0.16409  0.46456  Biso   1.000  O
  O133     1.0000 0.97894  0.46598  0.31677  Biso   1.000  O
  O134     1.0000 0.31220  0.93696  0.51083  Biso   1.000  O
  O135     1.0000 0.51090  0.27021  0.96429  Biso   1.000  O
  O136     1.0000 0.48679  0.44667  0.22990  Biso   1.000  O
  O137     1.0000 0.81792  0.91668  0.01402  Biso   1.000  O
  O138     1.0000 0.02188  0.27022  0.55888  Biso   1.000  O
  O139     1.0000 0.56345  0.94557  0.32080  Biso   1.000  O
  O140     1.0000 0.22340  0.43868  0.53435  Biso   1.000  O
  O141     1.0000 0.02098  0.76340  0.98322  Biso   1.000  O
  O142     1.0000 0.05623  0.97148  0.22670  Biso   1.000  O
  O143     1.0000 0.72282  0.41477  0.01169  Biso   1.000  O
  O144     1.0000 0.51099  0.77405  0.58343  Biso   1.000  O
  O145     1.0000 0.57053  0.44037  0.22457  Biso   1.000  O
  O146     1.0000 0.22373  0.52122  0.52966  Biso   1.000  O
  O147     1.0000 0.51377  0.17719  0.54739  Biso   1.000  O
  O148     1.0000 0.06445  0.47350  0.31672  Biso   1.000  O
  O149     1.0000 0.72398  0.49825  0.01454  Biso   1.000  O
  O150     1.0000 0.00247  0.16935  0.97274  Biso   1.000  O
  O151     1.0000 0.97287  0.96944  0.22608  Biso   1.000  O
  O152     1.0000 0.31009  0.01935  0.52521  Biso   1.000  O
  O153     1.0000 0.01070  0.67733  0.56524  Biso   1.000  O
  O154     1.0000 0.48146  0.95443  0.31932  Biso   1.000  O
  O155     1.0000 0.81092  0.99810  0.03102  Biso   1.000  O
  O156     1.0000 0.53524  0.67727  0.00262  Biso   1.000  O
  O157     1.0000 0.46632  0.48896  0.82040  Biso   1.000  O
  O158     1.0000 0.80803  0.41055  0.51510  Biso   1.000  O
  O159     1.0000 0.51157  0.76452  0.50111  Biso   1.000  O
  O160     1.0000 0.96138  0.47926  0.72809  Biso   1.000  O
  O161     1.0000 0.31175  0.43484  0.03256  Biso   1.000  O
  O162     1.0000 0.02398  0.76335  0.06650  Biso   1.000  O
  O163     1.0000 0.06300  0.96333  0.81716  Biso   1.000  O
  O164     1.0000 0.72810  0.91157  0.52629  Biso   1.000  O
  O165     1.0000 0.02707  0.26477  0.47434  Biso   1.000  O
  O166     1.0000 0.55713  0.98387  0.72861  Biso   1.000  O
  O167     1.0000 0.22555  0.93241  0.01990  Biso   1.000  O
  O168     1.0000 0.50721  0.26104  0.04798  Biso   1.000  O
  O169     1.0000 0.01083  0.01425  0.22410  Biso   1.000  O
  O170     1.0000 0.22400  0.97118  0.06542  Biso   1.000  O
  O171     1.0000 0.04997  0.17609  0.01224  Biso   1.000  O
  O172     1.0000 0.52647  0.98845  0.31638  Biso   1.000  O
  O173     1.0000 0.72855  0.95678  0.48384  Biso   1.000  O
  O174     1.0000 0.56251  0.16499  0.51520  Biso   1.000  O
  O175     1.0000 0.53205  0.48721  0.22984  Biso   1.000  O
  O176     1.0000 0.31626  0.47573  0.07326  Biso   1.000  O
  O177     1.0000 0.48787  0.67441  0.04261  Biso   1.000  O
  O178     1.0000 0.02182  0.51297  0.31494  Biso   1.000  O
  O179     1.0000 0.81152  0.45177  0.47081  Biso   1.000  O
  O180     1.0000 0.96441  0.66955  0.52678  Biso   1.000  O
  O181     1.0000 0.01615  0.92700  0.81748  Biso   1.000  O
  O182     1.0000 0.81508  0.96648  0.98134  Biso   1.000  O
  O183     1.0000 0.98477  0.75715  0.02550  Biso   1.000  O
  O184     1.0000 0.50654  0.95144  0.72726  Biso   1.000  O
  O185     1.0000 0.31411  0.97104  0.55774  Biso   1.000  O
  O186     1.0000 0.47009  0.77509  0.54282  Biso   1.000  O
  O187     1.0000 0.50724  0.45138  0.81671  Biso   1.000  O
  O188     1.0000 0.72044  0.46118  0.97045  Biso   1.000  O
  O189     1.0000 0.55202  0.26018  0.01128  Biso   1.000  O
  O190     1.0000 0.99716  0.42974  0.72993  Biso   1.000  O
  O191     1.0000 0.21991  0.48184  0.57635  Biso   1.000  O
  O192     1.0000 0.06511  0.27209  0.52243  Biso   1.000  O
