data_image0
_cell_length_a       47.2827
_cell_length_b       46.6429
_cell_length_c       46.5511
_cell_angle_alpha    90
_cell_angle_beta     90
_cell_angle_gamma    90

_symmetry_space_group_name_H-M    "P 1"
_symmetry_int_tables_number       1

loop_
  _symmetry_equiv_pos_as_xyz
  'x, y, z'

loop_
  _atom_site_label
  _atom_site_occupancy
  _atom_site_fract_x
  _atom_site_fract_y
  _atom_site_fract_z
  _atom_site_thermal_displace_type
  _atom_site_B_iso_or_equiv
  _atom_site_type_symbol
  C1       1.0000 0.56349  0.96548  0.32320  Biso   1.000  C
  C2       1.0000 0.33006  0.52963  0.00430  Biso   1.000  C
  C3       1.0000 0.01483  0.29059  0.56154  Biso   1.000  C
  C4       1.0000 0.05968  0.97294  0.19183  Biso   1.000  C
  C5       1.0000 0.82279  0.52322  0.49369  Biso   1.000  C
  C6       1.0000 0.51602  0.30072  0.93974  Biso   1.000  C
  C7       1.0000 0.96511  0.47675  0.31719  Biso   1.000  C
  C8       1.0000 0.18664  0.03383  0.00509  Biso   1.000  C
  C9       1.0000 0.49543  0.80142  0.57121  Biso   1.000  C
  C10      1.0000 0.46109  0.46191  0.18386  Biso   1.000  C
  C11      1.0000 0.69172  0.02738  0.50934  Biso   1.000  C
  C12      1.0000 0.01203  0.79805  0.95213  Biso   1.000  C
  C13      1.0000 0.45968  0.98110  0.68772  Biso   1.000  C
  C14      1.0000 0.69128  0.42406  0.00177  Biso   1.000  C
  C15      1.0000 0.00504  0.65871  0.44931  Biso   1.000  C
  C16      1.0000 0.96297  0.97466  0.81648  Biso   1.000  C
  C17      1.0000 0.19425  0.42910  0.51932  Biso   1.000  C
  C18      1.0000 0.49999  0.65194  0.06937  Biso   1.000  C
  C19      1.0000 0.05688  0.46766  0.68656  Biso   1.000  C
  C20      1.0000 0.82500  0.91947  0.00247  Biso   1.000  C
  C21      1.0000 0.52021  0.15079  0.44076  Biso   1.000  C
  C22      1.0000 0.56174  0.50319  0.81930  Biso   1.000  C
  C23      1.0000 0.32567  0.92600  0.50893  Biso   1.000  C
  C24      1.0000 0.01491  0.15228  0.05612  Biso   1.000  C
  C25      1.0000 0.32835  0.03614  0.50667  Biso   1.000  C
  C26      1.0000 0.51334  0.28591  0.04760  Biso   1.000  C
  C27      1.0000 0.07235  0.48063  0.32299  Biso   1.000  C
  C28      1.0000 0.82862  0.02748  0.99523  Biso   1.000  C
  C29      1.0000 0.01962  0.29592  0.45076  Biso   1.000  C
  C30      1.0000 0.57078  0.46482  0.18563  Biso   1.000  C
  C31      1.0000 0.18756  0.53736  0.50734  Biso   1.000  C
  C32      1.0000 0.00037  0.79625  0.05889  Biso   1.000  C
  C33      1.0000 0.45290  0.96247  0.32703  Biso   1.000  C
  C34      1.0000 0.69055  0.53140  0.99922  Biso   1.000  C
  C35      1.0000 0.50213  0.79144  0.46105  Biso   1.000  C
  C36      1.0000 0.95099  0.98030  0.18567  Biso   1.000  C
  C37      1.0000 0.68463  0.92211  0.49558  Biso   1.000  C
  C38      1.0000 0.51491  0.65314  0.96184  Biso   1.000  C
  C39      1.0000 0.94968  0.48614  0.68222  Biso   1.000  C
  C40      1.0000 0.18655  0.92300  0.00910  Biso   1.000  C
  C41      1.0000 0.99914  0.65728  0.55805  Biso   1.000  C
  C42      1.0000 0.45247  0.48108  0.82076  Biso   1.000  C
  C43      1.0000 0.83418  0.41598  0.50218  Biso   1.000  C
  C44      1.0000 0.00084  0.15627  0.94734  Biso   1.000  C
  C45      1.0000 0.56551  0.98878  0.68649  Biso   1.000  C
  C46      1.0000 0.33504  0.42116  0.02070  Biso   1.000  C
  C47      1.0000 0.51307  0.16297  0.55061  Biso   1.000  C
  C48      1.0000 0.07085  0.98449  0.82088  Biso   1.000  C
  C49      1.0000 0.01123  0.03221  0.81870  Biso   1.000  C
  C50      1.0000 0.82699  0.97697  0.05275  Biso   1.000  C
  C51      1.0000 0.06213  0.79971  0.01078  Biso   1.000  C
  C52      1.0000 0.51081  0.04420  0.68614  Biso   1.000  C
  C53      1.0000 0.32473  0.97956  0.45314  Biso   1.000  C
  C54      1.0000 0.55371  0.79675  0.51568  Biso   1.000  C
  C55      1.0000 0.49533  0.54400  0.82389  Biso   1.000  C
  C56      1.0000 0.68924  0.48032  0.05391  Biso   1.000  C
  C57      1.0000 0.45862  0.29535  0.99318  Biso   1.000  C
  C58      1.0000 0.01241  0.53197  0.68690  Biso   1.000  C
  C59      1.0000 0.19075  0.48499  0.45991  Biso   1.000  C
  C60      1.0000 0.96427  0.29177  0.50589  Biso   1.000  C
  C61      1.0000 0.00108  0.92248  0.18742  Biso   1.000  C
  C62      1.0000 0.19091  0.97909  0.95164  Biso   1.000  C
  C63      1.0000 0.95197  0.15796  0.01485  Biso   1.000  C
  C64      1.0000 0.51044  0.91160  0.32799  Biso   1.000  C
  C65      1.0000 0.68855  0.96585  0.55644  Biso   1.000  C
  C66      1.0000 0.46104  0.15798  0.49464  Biso   1.000  C
  C67      1.0000 0.51982  0.40842  0.18191  Biso   1.000  C
  C68      1.0000 0.33015  0.46518  0.95398  Biso   1.000  C
  C69      1.0000 0.56135  0.65306  0.02530  Biso   1.000  C
  C70      1.0000 0.02200  0.42110  0.32194  Biso   1.000  C
  C71      1.0000 0.82384  0.47589  0.55114  Biso   1.000  C
  C72      1.0000 0.05350  0.65766  0.50847  Biso   1.000  C
  C73      1.0000 0.01881  0.53197  0.31970  Biso   1.000  C
  C74      1.0000 0.32947  0.97738  0.56325  Biso   1.000  C
  C75      1.0000 0.56722  0.29353  0.99128  Biso   1.000  C
  C76      1.0000 0.51628  0.51814  0.18417  Biso   1.000  C
  C77      1.0000 0.83598  0.96475  0.94450  Biso   1.000  C
  C78      1.0000 0.07243  0.29724  0.51275  Biso   1.000  C
  C79      1.0000 0.50458  0.01938  0.32497  Biso   1.000  C
  C80      1.0000 0.19023  0.48949  0.56781  Biso   1.000  C
  C81      1.0000 0.95287  0.79434  0.00406  Biso   1.000  C
  C82      1.0000 0.01078  0.03076  0.18477  Biso   1.000  C
  C83      1.0000 0.68855  0.47406  0.94469  Biso   1.000  C
  C84      1.0000 0.44457  0.79421  0.51768  Biso   1.000  C
  C85      1.0000 0.99795  0.42298  0.68353  Biso   1.000  C
  C86      1.0000 0.69220  0.97408  0.44929  Biso   1.000  C
  C87      1.0000 0.45398  0.65519  0.01258  Biso   1.000  C
  C88      1.0000 0.51944  0.43718  0.81611  Biso   1.000  C
  C89      1.0000 0.18475  0.97591  0.06054  Biso   1.000  C
  C90      1.0000 0.94350  0.65514  0.50599  Biso   1.000  C
  C91      1.0000 0.51374  0.93483  0.69241  Biso   1.000  C
  C92      1.0000 0.83388  0.46879  0.44181  Biso   1.000  C
  C93      1.0000 0.05966  0.15920  0.99461  Biso   1.000  C
  C94      1.0000 0.02803  0.92506  0.81684  Biso   1.000  C
  C95      1.0000 0.33261  0.48593  0.06453  Biso   1.000  C
  C96      1.0000 0.57052  0.15734  0.49835  Biso   1.000  C
  C97      1.0000 0.69617  0.05953  0.50918  Biso   1.000  C
  C98      1.0000 0.49760  0.65005  0.10243  Biso   1.000  C
  C99      1.0000 0.08831  0.46219  0.68743  Biso   1.000  C
  C100     1.0000 0.18699  0.06537  0.00260  Biso   1.000  C
  C101     1.0000 0.00048  0.65818  0.41666  Biso   1.000  C
  C102     1.0000 0.59440  0.50419  0.82107  Biso   1.000  C
  C103     1.0000 0.82262  0.55472  0.48828  Biso   1.000  C
  C104     1.0000 0.01928  0.15169  0.08777  Biso   1.000  C
  C105     1.0000 0.42845  0.97542  0.69098  Biso   1.000  C
  C106     1.0000 0.32814  0.56137  0.00868  Biso   1.000  C
  C107     1.0000 0.52315  0.14952  0.40866  Biso   1.000  C
  C108     1.0000 0.93109  0.97389  0.81517  Biso   1.000  C
  C109     1.0000 0.32398  0.89428  0.51353  Biso   1.000  C
  C110     1.0000 0.51569  0.30546  0.90828  Biso   1.000  C
  C111     1.0000 0.93345  0.47431  0.31581  Biso   1.000  C
  C112     1.0000 0.82348  0.88735  0.00012  Biso   1.000  C
  C113     1.0000 0.01360  0.29138  0.59325  Biso   1.000  C
  C114     1.0000 0.43057  0.47402  0.18507  Biso   1.000  C
  C115     1.0000 0.19482  0.39779  0.52531  Biso   1.000  C
  C116     1.0000 0.01844  0.79810  0.92062  Biso   1.000  C
  C117     1.0000 0.59688  0.96234  0.32238  Biso   1.000  C
  C118     1.0000 0.69398  0.39283  0.00185  Biso   1.000  C
  C119     1.0000 0.49553  0.80095  0.60393  Biso   1.000  C
  C120     1.0000 0.09205  0.97126  0.19344  Biso   1.000  C
  C121     1.0000 0.82657  0.97942  0.08424  Biso   1.000  C
  C122     1.0000 0.09432  0.79819  0.01378  Biso   1.000  C
  C123     1.0000 0.00883  0.06372  0.81892  Biso   1.000  C
  C124     1.0000 0.32466  0.98093  0.42144  Biso   1.000  C
  C125     1.0000 0.58622  0.79540  0.51395  Biso   1.000  C
  C126     1.0000 0.51097  0.07602  0.68540  Biso   1.000  C
  C127     1.0000 0.69135  0.47169  0.08528  Biso   1.000  C
  C128     1.0000 0.42620  0.29651  0.99049  Biso   1.000  C
  C129     1.0000 0.49305  0.57678  0.82720  Biso   1.000  C
  C130     1.0000 0.19337  0.49127  0.42904  Biso   1.000  C
  C131     1.0000 0.93180  0.28919  0.50333  Biso   1.000  C
  C132     1.0000 0.01800  0.56385  0.68791  Biso   1.000  C
  C133     1.0000 0.19345  0.97860  0.91969  Biso   1.000  C
  C134     1.0000 0.92003  0.15804  0.01128  Biso   1.000  C
  C135     1.0000 0.00322  0.89096  0.18555  Biso   1.000  C
  C136     1.0000 0.68909  0.96309  0.58853  Biso   1.000  C
  C137     1.0000 0.42802  0.16085  0.49555  Biso   1.000  C
  C138     1.0000 0.51050  0.87917  0.32951  Biso   1.000  C
  C139     1.0000 0.32936  0.46122  0.92085  Biso   1.000  C
  C140     1.0000 0.59273  0.65191  0.02992  Biso   1.000  C
  C141     1.0000 0.52150  0.37540  0.17880  Biso   1.000  C
  C142     1.0000 0.82325  0.48199  0.58268  Biso   1.000  C
  C143     1.0000 0.08700  0.65727  0.50856  Biso   1.000  C
  C144     1.0000 0.02528  0.38927  0.32117  Biso   1.000  C
  C145     1.0000 0.33462  0.49197  0.09700  Biso   1.000  C
  C146     1.0000 0.10262  0.29972  0.51987  Biso   1.000  C
  C147     1.0000 0.50858  0.05014  0.32219  Biso   1.000  C
  C148     1.0000 0.83442  0.46735  0.41002  Biso   1.000  C
  C149     1.0000 0.60010  0.29537  0.99034  Biso   1.000  C
  C150     1.0000 0.01528  0.06272  0.18451  Biso   1.000  C
  C151     1.0000 0.18576  0.97039  0.09313  Biso   1.000  C
  C152     1.0000 0.41206  0.79481  0.51593  Biso   1.000  C
  C153     1.0000 0.01757  0.56325  0.31979  Biso   1.000  C
  C154     1.0000 0.69197  0.96935  0.41760  Biso   1.000  C
  C155     1.0000 0.92117  0.79362  0.00251  Biso   1.000  C
  C156     1.0000 0.51905  0.55032  0.18583  Biso   1.000  C
  C157     1.0000 0.68579  0.47274  0.91307  Biso   1.000  C
  C158     1.0000 0.91107  0.65500  0.50682  Biso   1.000  C
  C159     1.0000 0.50896  0.90319  0.69319  Biso   1.000  C
  C160     1.0000 0.18951  0.48845  0.59943  Biso   1.000  C
  C161     1.0000 0.42175  0.65537  0.01165  Biso   1.000  C
  C162     1.0000 0.03083  0.89233  0.82065  Biso   1.000  C
  C163     1.0000 0.83703  0.96068  0.91179  Biso   1.000  C
  C164     1.0000 0.60358  0.15589  0.49680  Biso   1.000  C
  C165     1.0000 0.99468  0.39129  0.68348  Biso   1.000  C
  C166     1.0000 0.33201  0.97832  0.59510  Biso   1.000  C
  C167     1.0000 0.09242  0.16027  0.99782  Biso   1.000  C
  C168     1.0000 0.52290  0.40541  0.81424  Biso   1.000  C
  C169     1.0000 0.00119  0.79521  0.09094  Biso   1.000  C
  C170     1.0000 0.10274  0.98739  0.82279  Biso   1.000  C
  C171     1.0000 0.82722  0.06005  0.99648  Biso   1.000  C
  C172     1.0000 0.50896  0.78893  0.42951  Biso   1.000  C
  C173     1.0000 0.59829  0.98520  0.68580  Biso   1.000  C
  C174     1.0000 0.32954  0.06807  0.50649  Biso   1.000  C
  C175     1.0000 0.51342  0.28300  0.07982  Biso   1.000  C
  C176     1.0000 0.42063  0.48201  0.82357  Biso   1.000  C
  C177     1.0000 0.68929  0.56340  0.00410  Biso   1.000  C
  C178     1.0000 0.02289  0.29662  0.41764  Biso   1.000  C
  C179     1.0000 0.91720  0.49067  0.68055  Biso   1.000  C
  C180     1.0000 0.18596  0.56942  0.50255  Biso   1.000  C
  C181     1.0000 0.00299  0.15550  0.91598  Biso   1.000  C
  C182     1.0000 0.91878  0.98034  0.18342  Biso   1.000  C
  C183     1.0000 0.18753  0.89119  0.01317  Biso   1.000  C
  C184     1.0000 0.51173  0.16351  0.58196  Biso   1.000  C
  C185     1.0000 0.41944  0.95713  0.32883  Biso   1.000  C
  C186     1.0000 0.68099  0.88966  0.49533  Biso   1.000  C
  C187     1.0000 0.51598  0.65727  0.92964  Biso   1.000  C
  C188     1.0000 0.60257  0.46617  0.18472  Biso   1.000  C
  C189     1.0000 0.33184  0.39006  0.02233  Biso   1.000  C
  C190     1.0000 0.00619  0.65852  0.59098  Biso   1.000  C
  C191     1.0000 0.10463  0.48204  0.32594  Biso   1.000  C
  C192     1.0000 0.83403  0.38444  0.50782  Biso   1.000  C
  C193     1.0000 0.86466  0.96406  0.89544  Biso   1.000  C
  C194     1.0000 0.90419  0.81961  0.00090  Biso   1.000  C
  C195     1.0000 0.02693  0.88007  0.84930  Biso   1.000  C
  C196     1.0000 0.35936  0.97666  0.61002  Biso   1.000  C
  C197     1.0000 0.39712  0.82286  0.51355  Biso   1.000  C
  C198     1.0000 0.50645  0.88395  0.66726  Biso   1.000  C
  C199     1.0000 0.65900  0.48213  0.89863  Biso   1.000  C
  C200     1.0000 0.61561  0.32248  0.99266  Biso   1.000  C
  C201     1.0000 0.52267  0.38800  0.84236  Biso   1.000  C
  C202     1.0000 0.16180  0.48339  0.61508  Biso   1.000  C
  C203     1.0000 0.11543  0.32806  0.51853  Biso   1.000  C
  C204     1.0000 0.99506  0.37367  0.65724  Biso   1.000  C
  C205     1.0000 0.15927  0.97244  0.11007  Biso   1.000  C
  C206     1.0000 0.10909  0.13498  0.99832  Biso   1.000  C
  C207     1.0000 0.02020  0.07701  0.15795  Biso   1.000  C
  C208     1.0000 0.66449  0.96448  0.40214  Biso   1.000  C
  C209     1.0000 0.61845  0.12825  0.49857  Biso   1.000  C
  C210     1.0000 0.51369  0.06813  0.34773  Biso   1.000  C
  C211     1.0000 0.36111  0.48668  0.11156  Biso   1.000  C
  C212     1.0000 0.40500  0.62869  0.00993  Biso   1.000  C
  C213     1.0000 0.51266  0.56793  0.16129  Biso   1.000  C
  C214     1.0000 0.86268  0.47110  0.39398  Biso   1.000  C
  C215     1.0000 0.89581  0.62619  0.50320  Biso   1.000  C
  C216     1.0000 0.01684  0.57936  0.34720  Biso   1.000  C
  C217     1.0000 0.11615  0.98458  0.85062  Biso   1.000  C
  C218     1.0000 0.85517  0.07504  0.00173  Biso   1.000  C
  C219     1.0000 0.99931  0.82193  0.10680  Biso   1.000  C
  C220     1.0000 0.61394  0.97899  0.65805  Biso   1.000  C
  C221     1.0000 0.35671  0.08466  0.49910  Biso   1.000  C
  C222     1.0000 0.50817  0.81519  0.41288  Biso   1.000  C
  C223     1.0000 0.40552  0.47711  0.85230  Biso   1.000  C
  C224     1.0000 0.66224  0.57855  0.01056  Biso   1.000  C
  C225     1.0000 0.51637  0.30921  0.09779  Biso   1.000  C
  C226     1.0000 0.90307  0.48964  0.65278  Biso   1.000  C
  C227     1.0000 0.15795  0.58311  0.50360  Biso   1.000  C
  C228     1.0000 0.02116  0.32266  0.40126  Biso   1.000  C
  C229     1.0000 0.90295  0.98137  0.15643  Biso   1.000  C
  C230     1.0000 0.15969  0.87517  0.01388  Biso   1.000  C
  C231     1.0000 0.00642  0.12912  0.89867  Biso   1.000  C
  C232     1.0000 0.40469  0.96189  0.35546  Biso   1.000  C
  C233     1.0000 0.65352  0.87607  0.50540  Biso   1.000  C
  C234     1.0000 0.50933  0.13664  0.59890  Biso   1.000  C
  C235     1.0000 0.61669  0.46719  0.15728  Biso   1.000  C
  C236     1.0000 0.35875  0.37435  0.02058  Biso   1.000  C
  C237     1.0000 0.50766  0.63432  0.91038  Biso   1.000  C
  C238     1.0000 0.11852  0.48569  0.35480  Biso   1.000  C
  C239     1.0000 0.86096  0.36817  0.50502  Biso   1.000  C
  C240     1.0000 0.00972  0.63137  0.60683  Biso   1.000  C
  C241     1.0000 0.60905  0.49717  0.84803  Biso   1.000  C
  C242     1.0000 0.84742  0.57299  0.49356  Biso   1.000  C
  C243     1.0000 0.49740  0.82884  0.61782  Biso   1.000  C
  C244     1.0000 0.10633  0.47008  0.66303  Biso   1.000  C
  C245     1.0000 0.35437  0.57819  0.00661  Biso   1.000  C
  C246     1.0000 0.02308  0.82617  0.90593  Biso   1.000  C
  C247     1.0000 0.91389  0.97177  0.84211  Biso   1.000  C
  C248     1.0000 0.66870  0.07625  0.50514  Biso   1.000  C
  C249     1.0000 0.00569  0.31948  0.60787  Biso   1.000  C
  C250     1.0000 0.41161  0.97165  0.66351  Biso   1.000  C
  C251     1.0000 0.15913  0.08389  0.99955  Biso   1.000  C
  C252     1.0000 0.51888  0.33310  0.89509  Biso   1.000  C
  C253     1.0000 0.41411  0.47904  0.15938  Biso   1.000  C
  C254     1.0000 0.16765  0.38098  0.52536  Biso   1.000  C
  C255     1.0000 0.51979  0.12179  0.39461  Biso   1.000  C
  C256     1.0000 0.91558  0.47130  0.34208  Biso   1.000  C
  C257     1.0000 0.66821  0.37559  0.99948  Biso   1.000  C
  C258     1.0000 0.01747  0.12721  0.10483  Biso   1.000  C
  C259     1.0000 0.10878  0.97240  0.16661  Biso   1.000  C
  C260     1.0000 0.34817  0.87513  0.51751  Biso   1.000  C
  C261     1.0000 0.00815  0.63212  0.40132  Biso   1.000  C
  C262     1.0000 0.61235  0.96414  0.35031  Biso   1.000  C
  C263     1.0000 0.85071  0.87156  0.99775  Biso   1.000  C
  C264     1.0000 0.50190  0.62156  0.11504  Biso   1.000  C
  C265     1.0000 0.00713  0.07870  0.84601  Biso   1.000  C
  C266     1.0000 0.85327  0.97995  0.10094  Biso   1.000  C
  C267     1.0000 0.11049  0.82480  0.01287  Biso   1.000  C
  C268     1.0000 0.51001  0.08962  0.65618  Biso   1.000  C
  C269     1.0000 0.35105  0.97476  0.40645  Biso   1.000  C
  C270     1.0000 0.60203  0.82188  0.50905  Biso   1.000  C
  C271     1.0000 0.49667  0.58810  0.85560  Biso   1.000  C
  C272     1.0000 0.66622  0.47041  0.10349  Biso   1.000  C
  C273     1.0000 0.41039  0.32307  0.00015  Biso   1.000  C
  C274     1.0000 0.01393  0.57921  0.66072  Biso   1.000  C
  C275     1.0000 0.16779  0.48898  0.41126  Biso   1.000  C
  C276     1.0000 0.91438  0.31544  0.50190  Biso   1.000  C
  C277     1.0000 0.00263  0.87479  0.15865  Biso   1.000  C
  C278     1.0000 0.16718  0.97901  0.90476  Biso   1.000  C
  C279     1.0000 0.90594  0.13073  0.00807  Biso   1.000  C
  C280     1.0000 0.51278  0.86499  0.35751  Biso   1.000  C
  C281     1.0000 0.66306  0.96748  0.60564  Biso   1.000  C
  C282     1.0000 0.41009  0.13422  0.49519  Biso   1.000  C
  C283     1.0000 0.52000  0.35971  0.15027  Biso   1.000  C
  C284     1.0000 0.35441  0.46707  0.90396  Biso   1.000  C
  C285     1.0000 0.61038  0.62633  0.02197  Biso   1.000  C
  C286     1.0000 0.02671  0.37337  0.34838  Biso   1.000  C
  C287     1.0000 0.84963  0.48574  0.59977  Biso   1.000  C
  C288     1.0000 0.10361  0.63060  0.50362  Biso   1.000  C
  C289     1.0000 0.34434  0.84489  0.51465  Biso   1.000  C
  C290     1.0000 0.51674  0.33461  0.86459  Biso   1.000  C
  C291     1.0000 0.88485  0.47021  0.34161  Biso   1.000  C
  C292     1.0000 0.85051  0.84094  0.00468  Biso   1.000  C
  C293     1.0000 0.00093  0.31920  0.63895  Biso   1.000  C
  C294     1.0000 0.38486  0.49095  0.16270  Biso   1.000  C
  C295     1.0000 0.16882  0.34983  0.52305  Biso   1.000  C
  C296     1.0000 0.02819  0.82646  0.87450  Biso   1.000  C
  C297     1.0000 0.64417  0.96640  0.34916  Biso   1.000  C
  C298     1.0000 0.66858  0.34431  0.99737  Biso   1.000  C
  C299     1.0000 0.50074  0.83054  0.64928  Biso   1.000  C
  C300     1.0000 0.14010  0.97201  0.16431  Biso   1.000  C
  C301     1.0000 0.67114  0.10727  0.50315  Biso   1.000  C
  C302     1.0000 0.50565  0.62160  0.14572  Biso   1.000  C
  C303     1.0000 0.13779  0.47096  0.66581  Biso   1.000  C
  C304     1.0000 0.16154  0.11357  0.99590  Biso   1.000  C
  C305     1.0000 0.00948  0.63050  0.36941  Biso   1.000  C
  C306     1.0000 0.64072  0.49159  0.84557  Biso   1.000  C
  C307     1.0000 0.84501  0.60373  0.49623  Biso   1.000  C
  C308     1.0000 0.02021  0.12979  0.13650  Biso   1.000  C
  C309     1.0000 0.37986  0.97525  0.66415  Biso   1.000  C
  C310     1.0000 0.35266  0.60905  0.01133  Biso   1.000  C
  C311     1.0000 0.51781  0.12168  0.36407  Biso   1.000  C
  C312     1.0000 0.88329  0.96876  0.84121  Biso   1.000  C
  C313     1.0000 0.17013  0.49013  0.38001  Biso   1.000  C
  C314     1.0000 0.37920  0.13704  0.50181  Biso   1.000  C
  C315     1.0000 0.51904  0.32899  0.15065  Biso   1.000  C
  C316     1.0000 0.66864  0.46765  0.13393  Biso   1.000  C
  C317     1.0000 0.87459  0.13003  0.01008  Biso   1.000  C
  C318     1.0000 0.02419  0.34319  0.34740  Biso   1.000  C
  C319     1.0000 0.35076  0.97287  0.37472  Biso   1.000  C
  C320     1.0000 0.13481  0.63467  0.50078  Biso   1.000  C
  C321     1.0000 0.00261  0.84415  0.15921  Biso   1.000  C
  C322     1.0000 0.85021  0.98109  0.13193  Biso   1.000  C
  C323     1.0000 0.64133  0.62957  0.02288  Biso   1.000  C
  C324     1.0000 0.51184  0.83377  0.35841  Biso   1.000  C
  C325     1.0000 0.84946  0.49044  0.63078  Biso   1.000  C
  C326     1.0000 0.63276  0.82172  0.50576  Biso   1.000  C
  C327     1.0000 0.49809  0.61923  0.85677  Biso   1.000  C
  C328     1.0000 0.35216  0.46965  0.87353  Biso   1.000  C
  C329     1.0000 0.13972  0.82313  0.01843  Biso   1.000  C
  C330     1.0000 0.01749  0.61083  0.66064  Biso   1.000  C
  C331     1.0000 0.66481  0.97182  0.63639  Biso   1.000  C
  C332     1.0000 0.88278  0.31451  0.50179  Biso   1.000  C
  C333     1.0000 0.00534  0.11023  0.84520  Biso   1.000  C
  C334     1.0000 0.16758  0.98145  0.87395  Biso   1.000  C
  C335     1.0000 0.37799  0.32289  0.00057  Biso   1.000  C
  C336     1.0000 0.50624  0.12097  0.65473  Biso   1.000  C
  C337     1.0000 0.66124  0.48565  0.86718  Biso   1.000  C
  C338     1.0000 0.86466  0.62562  0.50033  Biso   1.000  C
  C339     1.0000 0.50320  0.85343  0.66976  Biso   1.000  C
  C340     1.0000 0.16099  0.47624  0.64548  Biso   1.000  C
  C341     1.0000 0.37408  0.63013  0.01017  Biso   1.000  C
  C342     1.0000 0.02913  0.84793  0.85194  Biso   1.000  C
  C343     1.0000 0.86279  0.96669  0.86373  Biso   1.000  C
  C344     1.0000 0.64952  0.12874  0.49983  Biso   1.000  C
  C345     1.0000 0.99450  0.34167  0.65929  Biso   1.000  C
  C346     1.0000 0.35802  0.97831  0.64257  Biso   1.000  C
  C347     1.0000 0.13986  0.13475  0.99588  Biso   1.000  C
  C348     1.0000 0.51986  0.35728  0.84217  Biso   1.000  C
  C349     1.0000 0.36154  0.49189  0.14270  Biso   1.000  C
  C350     1.0000 0.14705  0.32815  0.51964  Biso   1.000  C
  C351     1.0000 0.51556  0.09896  0.34356  Biso   1.000  C
  C352     1.0000 0.86276  0.46937  0.36249  Biso   1.000  C
  C353     1.0000 0.64721  0.32310  0.99531  Biso   1.000  C
  C354     1.0000 0.01955  0.10911  0.15930  Biso   1.000  C
  C355     1.0000 0.16135  0.97165  0.14108  Biso   1.000  C
  C356     1.0000 0.36491  0.82323  0.51205  Biso   1.000  C
  C357     1.0000 0.01358  0.61008  0.34677  Biso   1.000  C
  C358     1.0000 0.66608  0.96644  0.37051  Biso   1.000  C
  C359     1.0000 0.87321  0.82062  0.00562  Biso   1.000  C
  C360     1.0000 0.50999  0.59851  0.16486  Biso   1.000  C
  C361     1.0000 0.00474  0.13180  0.86701  Biso   1.000  C
  C362     1.0000 0.87023  0.98141  0.15501  Biso   1.000  C
  C363     1.0000 0.16079  0.84388  0.01660  Biso   1.000  C
  C364     1.0000 0.50686  0.13968  0.63027  Biso   1.000  C
  C365     1.0000 0.37244  0.96817  0.35273  Biso   1.000  C
  C366     1.0000 0.65397  0.84395  0.50290  Biso   1.000  C
  C367     1.0000 0.50367  0.63904  0.87974  Biso   1.000  C
  C368     1.0000 0.64851  0.46608  0.15742  Biso   1.000  C
  C369     1.0000 0.35654  0.34314  0.01075  Biso   1.000  C
  C370     1.0000 0.01539  0.63281  0.63906  Biso   1.000  C
  C371     1.0000 0.14945  0.48799  0.35747  Biso   1.000  C
  C372     1.0000 0.86029  0.33665  0.50299  Biso   1.000  C
  C373     1.0000 0.99876  0.82189  0.13742  Biso   1.000  C
  C374     1.0000 0.14712  0.98485  0.85123  Biso   1.000  C
  C375     1.0000 0.85434  0.10642  0.00698  Biso   1.000  C
  C376     1.0000 0.51032  0.81297  0.38250  Biso   1.000  C
  C377     1.0000 0.64432  0.97633  0.65895  Biso   1.000  C
  C378     1.0000 0.35739  0.11586  0.50267  Biso   1.000  C
  C379     1.0000 0.51759  0.30714  0.12844  Biso   1.000  C
  C380     1.0000 0.37377  0.47486  0.85114  Biso   1.000  C
  C381     1.0000 0.66228  0.60913  0.01623  Biso   1.000  C
  C382     1.0000 0.02175  0.32208  0.36902  Biso   1.000  C
  C383     1.0000 0.87043  0.49081  0.65305  Biso   1.000  C
  C384     1.0000 0.15691  0.61453  0.50201  Biso   1.000  C
  C385     1.0000 0.18907  0.12727  0.99527  Biso   1.000  C
  C386     1.0000 0.02086  0.15735  0.15015  Biso   1.000  C
  C387     1.0000 0.15716  0.96922  0.18993  Biso   1.000  C
  C388     1.0000 0.69857  0.12183  0.50420  Biso   1.000  C
  C389     1.0000 0.52119  0.14820  0.34472  Biso   1.000  C
  C390     1.0000 0.65875  0.97048  0.32183  Biso   1.000  C
  C391     1.0000 0.32626  0.62480  0.01681  Biso   1.000  C
  C392     1.0000 0.50620  0.64718  0.16210  Biso   1.000  C
  C393     1.0000 0.37039  0.49625  0.19104  Biso   1.000  C
  C394     1.0000 0.81686  0.61773  0.49229  Biso   1.000  C
  C395     1.0000 0.00459  0.65726  0.35440  Biso   1.000  C
  C396     1.0000 0.87030  0.46953  0.31373  Biso   1.000  C
  C397     1.0000 0.82547  0.82538  0.01273  Biso   1.000  C
  C398     1.0000 0.02987  0.79922  0.85810  Biso   1.000  C
  C399     1.0000 0.86758  0.96728  0.81402  Biso   1.000  C
  C400     1.0000 0.31678  0.83135  0.51394  Biso   1.000  C
  C401     1.0000 0.49950  0.80430  0.66602  Biso   1.000  C
  C402     1.0000 0.36405  0.97856  0.69190  Biso   1.000  C
  C403     1.0000 0.69525  0.33028  0.99742  Biso   1.000  C
  C404     1.0000 0.51240  0.30892  0.84698  Biso   1.000  C
  C405     1.0000 0.65740  0.49083  0.81983  Biso   1.000  C
  C406     1.0000 0.19670  0.33517  0.52280  Biso   1.000  C
  C407     1.0000 0.00234  0.29317  0.65603  Biso   1.000  C
  C408     1.0000 0.15158  0.46303  0.69261  Biso   1.000  C
  C409     1.0000 0.16466  0.98640  0.82473  Biso   1.000  C
  C410     1.0000 0.82644  0.12096  0.00609  Biso   1.000  C
  C411     1.0000 0.99958  0.79477  0.15240  Biso   1.000  C
  C412     1.0000 0.66076  0.97775  0.68456  Biso   1.000  C
  C413     1.0000 0.33152  0.13159  0.50823  Biso   1.000  C
  C414     1.0000 0.51122  0.78612  0.36732  Biso   1.000  C
  C415     1.0000 0.35782  0.47248  0.82435  Biso   1.000  C
  C416     1.0000 0.68955  0.62514  0.01542  Biso   1.000  C
  C417     1.0000 0.51570  0.28114  0.14352  Biso   1.000  C
  C418     1.0000 0.85442  0.49193  0.67954  Biso   1.000  C
  C419     1.0000 0.18244  0.63161  0.50218  Biso   1.000  C
  C420     1.0000 0.02020  0.29464  0.35351  Biso   1.000  C
  C421     1.0000 0.85410  0.98038  0.18167  Biso   1.000  C
  C422     1.0000 0.18713  0.82895  0.01987  Biso   1.000  C
  C423     1.0000 0.00305  0.15774  0.85189  Biso   1.000  C
  C424     1.0000 0.35675  0.96687  0.32629  Biso   1.000  C
  C425     1.0000 0.68059  0.82825  0.49692  Biso   1.000  C
  C426     1.0000 0.50437  0.16795  0.64505  Biso   1.000  C
  C427     1.0000 0.66669  0.46464  0.18218  Biso   1.000  C
  C428     1.0000 0.32970  0.32786  0.00759  Biso   1.000  C
  C429     1.0000 0.50557  0.66657  0.86794  Biso   1.000  C
  C430     1.0000 0.16745  0.49010  0.32993  Biso   1.000  C
  C431     1.0000 0.83432  0.32082  0.50194  Biso   1.000  C
  C432     1.0000 0.01943  0.65886  0.65352  Biso   1.000  C
  C433     1.0000 0.00622  0.12617  0.81861  Biso   1.000  C
  C434     1.0000 0.82241  0.97949  0.14759  Biso   1.000  C
  C435     1.0000 0.15473  0.79566  0.02428  Biso   1.000  C
  C436     1.0000 0.50580  0.13697  0.68130  Biso   1.000  C
  C437     1.0000 0.32536  0.97547  0.35920  Biso   1.000  C
  C438     1.0000 0.64783  0.79491  0.50332  Biso   1.000  C
  C439     1.0000 0.49638  0.63784  0.83198  Biso   1.000  C
  C440     1.0000 0.69693  0.46569  0.14725  Biso   1.000  C
  C441     1.0000 0.36197  0.29701  0.99214  Biso   1.000  C
  C442     1.0000 0.02286  0.62710  0.68585  Biso   1.000  C
  C443     1.0000 0.19778  0.49263  0.36557  Biso   1.000  C
  C444     1.0000 0.86753  0.28760  0.50033  Biso   1.000  C
  C445     1.0000 0.00258  0.82872  0.18595  Biso   1.000  C
  C446     1.0000 0.19625  0.98209  0.85955  Biso   1.000  C
  C447     1.0000 0.85678  0.15575  0.01117  Biso   1.000  C
  C448     1.0000 0.51345  0.81694  0.33272  Biso   1.000  C
  C449     1.0000 0.69164  0.96935  0.65059  Biso   1.000  C
  C450     1.0000 0.36459  0.16407  0.50480  Biso   1.000  C
  C451     1.0000 0.51957  0.31334  0.17791  Biso   1.000  C
  C452     1.0000 0.32518  0.46558  0.85873  Biso   1.000  C
  C453     1.0000 0.65656  0.65653  0.02693  Biso   1.000  C
  C454     1.0000 0.02484  0.32647  0.32153  Biso   1.000  C
  C455     1.0000 0.82165  0.48880  0.64548  Biso   1.000  C
  C456     1.0000 0.14864  0.66210  0.50043  Biso   1.000  C
  C457     1.0000 0.01068  0.62625  0.32023  Biso   1.000  C
  C458     1.0000 0.33052  0.98224  0.65880  Biso   1.000  C
  C459     1.0000 0.66380  0.29709  0.99625  Biso   1.000  C
  C460     1.0000 0.51501  0.61265  0.19295  Biso   1.000  C
  C461     1.0000 0.83591  0.96473  0.84810  Biso   1.000  C
  C462     1.0000 0.16422  0.30221  0.52323  Biso   1.000  C
  C463     1.0000 0.51760  0.11168  0.31571  Biso   1.000  C
  C464     1.0000 0.18674  0.47471  0.66199  Biso   1.000  C
  C465     1.0000 0.85774  0.79321  0.01140  Biso   1.000  C
  C466     1.0000 0.02012  0.12723  0.18554  Biso   1.000  C
  C467     1.0000 0.68818  0.48098  0.85191  Biso   1.000  C
  C468     1.0000 0.34839  0.79749  0.51187  Biso   1.000  C
  C469     1.0000 0.99212  0.32834  0.68706  Biso   1.000  C
  C470     1.0000 0.69330  0.96921  0.35406  Biso   1.000  C
  C471     1.0000 0.35853  0.65689  0.01619  Biso   1.000  C
  C472     1.0000 0.51882  0.34144  0.81373  Biso   1.000  C
  C473     1.0000 0.18837  0.96954  0.15570  Biso   1.000  C
  C474     1.0000 0.84801  0.65116  0.50148  Biso   1.000  C
  C475     1.0000 0.50132  0.83932  0.69767  Biso   1.000  C
  C476     1.0000 0.83604  0.46976  0.34600  Biso   1.000  C
  C477     1.0000 0.15605  0.15972  0.99395  Biso   1.000  C
  C478     1.0000 0.03506  0.83068  0.82606  Biso   1.000  C
  C479     1.0000 0.33555  0.49857  0.15999  Biso   1.000  C
  C480     1.0000 0.66561  0.15469  0.49957  Biso   1.000  C
  C481     1.0000 0.36408  0.77086  0.51438  Biso   1.000  C
  C482     1.0000 0.52312  0.35771  0.78709  Biso   1.000  C
  C483     1.0000 0.80812  0.46474  0.36004  Biso   1.000  C
  C484     1.0000 0.87342  0.76623  0.00858  Biso   1.000  C
  C485     1.0000 0.98879  0.34581  0.71297  Biso   1.000  C
  C486     1.0000 0.30989  0.50441  0.14405  Biso   1.000  C
  C487     1.0000 0.15009  0.27472  0.52636  Biso   1.000  C
  C488     1.0000 0.04100  0.84411  0.79799  Biso   1.000  C
  C489     1.0000 0.72007  0.97031  0.37004  Biso   1.000  C
  C490     1.0000 0.64895  0.26751  0.99509  Biso   1.000  C
  C491     1.0000 0.50251  0.85792  0.72383  Biso   1.000  C
  C492     1.0000 0.21551  0.96752  0.13824  Biso   1.000  C
  C493     1.0000 0.65155  0.18148  0.49522  Biso   1.000  C
  C494     1.0000 0.52203  0.59464  0.21630  Biso   1.000  C
  C495     1.0000 0.21422  0.48403  0.64908  Biso   1.000  C
  C496     1.0000 0.14065  0.18731  0.99519  Biso   1.000  C
  C497     1.0000 0.01369  0.60939  0.29321  Biso   1.000  C
  C498     1.0000 0.71414  0.47049  0.86605  Biso   1.000  C
  C499     1.0000 0.86222  0.67935  0.50683  Biso   1.000  C
  C500     1.0000 0.01671  0.11245  0.21236  Biso   1.000  C
  C501     1.0000 0.30348  0.98183  0.64290  Biso   1.000  C
  C502     1.0000 0.37486  0.68364  0.01892  Biso   1.000  C
  C503     1.0000 0.51413  0.09308  0.28990  Biso   1.000  C
  C504     1.0000 0.80945  0.96038  0.86576  Biso   1.000  C
  C505     1.0000 0.64338  0.49922  0.79403  Biso   1.000  C
  C506     1.0000 0.79175  0.59943  0.48717  Biso   1.000  C
  C507     1.0000 0.49818  0.77568  0.65133  Biso   1.000  C
  C508     1.0000 0.13352  0.45433  0.71721  Biso   1.000  C
  C509     1.0000 0.29908  0.60941  0.01780  Biso   1.000  C
  C510     1.0000 0.02153  0.77136  0.87296  Biso   1.000  C
  C511     1.0000 0.88366  0.97195  0.78678  Biso   1.000  C
  C512     1.0000 0.72571  0.10611  0.50741  Biso   1.000  C
  C513     1.0000 0.00994  0.26611  0.64125  Biso   1.000  C
  C514     1.0000 0.38100  0.97952  0.71822  Biso   1.000  C
  C515     1.0000 0.21582  0.11032  0.99672  Biso   1.000  C
  C516     1.0000 0.50894  0.28158  0.86102  Biso   1.000  C
  C517     1.0000 0.38808  0.49368  0.21660  Biso   1.000  C
  C518     1.0000 0.22408  0.35079  0.52558  Biso   1.000  C
  C519     1.0000 0.52623  0.17457  0.35943  Biso   1.000  C
  C520     1.0000 0.88698  0.47157  0.28673  Biso   1.000  C
  C521     1.0000 0.72261  0.34677  0.99949  Biso   1.000  C
  C522     1.0000 0.02363  0.18321  0.13301  Biso   1.000  C
  C523     1.0000 0.14104  0.96716  0.21842  Biso   1.000  C
  C524     1.0000 0.29159  0.84964  0.51281  Biso   1.000  C
  C525     1.0000 0.99312  0.68332  0.36984  Biso   1.000  C
  C526     1.0000 0.64300  0.96960  0.29437  Biso   1.000  C
  C527     1.0000 0.79863  0.84170  0.01427  Biso   1.000  C
  C528     1.0000 0.49897  0.67514  0.15105  Biso   1.000  C
  C529     1.0000 0.79974  0.10546  0.00247  Biso   1.000  C
  C530     1.0000 0.00060  0.76746  0.13638  Biso   1.000  C
  C531     1.0000 0.15127  0.98992  0.79601  Biso   1.000  C
  C532     1.0000 0.30362  0.11597  0.51389  Biso   1.000  C
  C533     1.0000 0.51346  0.75971  0.38450  Biso   1.000  C
  C534     1.0000 0.64632  0.98487  0.71243  Biso   1.000  C
  C535     1.0000 0.71614  0.60993  0.00871  Biso   1.000  C
  C536     1.0000 0.51131  0.25418  0.12626  Biso   1.000  C
  C537     1.0000 0.37310  0.47696  0.79654  Biso   1.000  C
  C538     1.0000 0.21054  0.61814  0.50061  Biso   1.000  C
  C539     1.0000 0.01853  0.26798  0.37093  Biso   1.000  C
  C540     1.0000 0.87015  0.49364  0.70792  Biso   1.000  C
  C541     1.0000 0.21379  0.84450  0.01949  Biso   1.000  C
  C542     1.0000 0.00345  0.18532  0.86941  Biso   1.000  C
  C543     1.0000 0.86980  0.97876  0.21001  Biso   1.000  C
  C544     1.0000 0.70665  0.84259  0.48989  Biso   1.000  C
  C545     1.0000 0.50425  0.19378  0.62821  Biso   1.000  C
  C546     1.0000 0.37167  0.95917  0.30036  Biso   1.000  C
  C547     1.0000 0.30356  0.34353  0.01456  Biso   1.000  C
  C548     1.0000 0.51378  0.69151  0.88592  Biso   1.000  C
  C549     1.0000 0.65190  0.46588  0.21097  Biso   1.000  C
  C550     1.0000 0.80659  0.33550  0.50283  Biso   1.000  C
  C551     1.0000 0.01777  0.68639  0.63709  Biso   1.000  C
  C552     1.0000 0.15462  0.48711  0.30174  Biso   1.000  C
  C553     1.0000 0.00660  0.11012  0.79203  Biso   1.000  C
  C554     1.0000 0.79553  0.97681  0.12985  Biso   1.000  C
  C555     1.0000 0.14022  0.76781  0.02221  Biso   1.000  C
  C556     1.0000 0.50962  0.12330  0.70969  Biso   1.000  C
  C557     1.0000 0.29894  0.98398  0.37407  Biso   1.000  C
  C558     1.0000 0.63189  0.76845  0.50908  Biso   1.000  C
  C559     1.0000 0.48913  0.62429  0.80283  Biso   1.000  C
  C560     1.0000 0.72359  0.46257  0.12927  Biso   1.000  C
  C561     1.0000 0.37745  0.27169  0.98121  Biso   1.000  C
  C562     1.0000 0.02601  0.61265  0.71374  Biso   1.000  C
  C563     1.0000 0.22351  0.49482  0.38404  Biso   1.000  C
  C564     1.0000 0.88381  0.25979  0.50182  Biso   1.000  C
  C565     1.0000 0.00370  0.84547  0.21218  Biso   1.000  C
  C566     1.0000 0.22302  0.97921  0.87568  Biso   1.000  C
  C567     1.0000 0.87090  0.18307  0.01064  Biso   1.000  C
  C568     1.0000 0.51441  0.83127  0.30439  Biso   1.000  C
  C569     1.0000 0.71972  0.96482  0.63450  Biso   1.000  C
  C570     1.0000 0.38246  0.19088  0.50634  Biso   1.000  C
  C571     1.0000 0.52199  0.32809  0.20636  Biso   1.000  C
  C572     1.0000 0.29957  0.45891  0.87638  Biso   1.000  C
  C573     1.0000 0.63911  0.68196  0.03762  Biso   1.000  C
  C574     1.0000 0.02450  0.34217  0.29438  Biso   1.000  C
  C575     1.0000 0.79348  0.48407  0.63087  Biso   1.000  C
  C576     1.0000 0.13157  0.68840  0.50521  Biso   1.000  C
  C577     1.0000 0.30856  0.50207  0.11338  Biso   1.000  C
  C578     1.0000 0.11925  0.27353  0.52359  Biso   1.000  C
  C579     1.0000 0.50636  0.06309  0.29351  Biso   1.000  C
  C580     1.0000 0.80720  0.46447  0.39255  Biso   1.000  C
  C581     1.0000 0.61826  0.26698  0.99075  Biso   1.000  C
  C582     1.0000 0.01512  0.08151  0.21062  Biso   1.000  C
  C583     1.0000 0.21329  0.96789  0.10684  Biso   1.000  C
  C584     1.0000 0.39618  0.76827  0.51298  Biso   1.000  C
  C585     1.0000 0.01613  0.57771  0.29276  Biso   1.000  C
  C586     1.0000 0.72044  0.96922  0.40190  Biso   1.000  C
  C587     1.0000 0.90662  0.76559  0.00431  Biso   1.000  C
  C588     1.0000 0.52346  0.56378  0.21427  Biso   1.000  C
  C589     1.0000 0.71203  0.46630  0.89592  Biso   1.000  C
  C590     1.0000 0.89403  0.68080  0.50772  Biso   1.000  C
  C591     1.0000 0.50318  0.88940  0.72096  Biso   1.000  C
  C592     1.0000 0.21555  0.48978  0.61836  Biso   1.000  C
  C593     1.0000 0.40714  0.68301  0.01532  Biso   1.000  C
  C594     1.0000 0.03906  0.87528  0.79643  Biso   1.000  C
  C595     1.0000 0.80966  0.96155  0.89725  Biso   1.000  C
  C596     1.0000 0.62047  0.18180  0.49405  Biso   1.000  C
  C597     1.0000 0.99092  0.37731  0.71194  Biso   1.000  C
  C598     1.0000 0.30610  0.97957  0.61102  Biso   1.000  C
  C599     1.0000 0.10788  0.18715  0.99698  Biso   1.000  C
  C600     1.0000 0.52500  0.38943  0.78745  Biso   1.000  C
  C601     1.0000 0.22246  0.97786  0.90649  Biso   1.000  C
  C602     1.0000 0.90275  0.18599  0.01362  Biso   1.000  C
  C603     1.0000 0.00477  0.87676  0.21304  Biso   1.000  C
  C604     1.0000 0.71782  0.96073  0.60360  Biso   1.000  C
  C605     1.0000 0.41367  0.18980  0.50091  Biso   1.000  C
  C606     1.0000 0.50968  0.86159  0.30143  Biso   1.000  C
  C607     1.0000 0.30135  0.45528  0.90757  Biso   1.000  C
  C608     1.0000 0.60724  0.67821  0.04063  Biso   1.000  C
  C609     1.0000 0.52152  0.35968  0.20640  Biso   1.000  C
  C610     1.0000 0.79365  0.48192  0.59868  Biso   1.000  C
  C611     1.0000 0.09999  0.68534  0.51024  Biso   1.000  C
  C612     1.0000 0.02464  0.37410  0.29428  Biso   1.000  C
  C613     1.0000 0.79721  0.97705  0.09814  Biso   1.000  C
  C614     1.0000 0.10892  0.76827  0.01808  Biso   1.000  C
  C615     1.0000 0.00905  0.07885  0.79234  Biso   1.000  C
  C616     1.0000 0.29896  0.98571  0.40509  Biso   1.000  C
  C617     1.0000 0.60047  0.76831  0.51389  Biso   1.000  C
  C618     1.0000 0.51058  0.09258  0.71301  Biso   1.000  C
  C619     1.0000 0.72041  0.46727  0.09712  Biso   1.000  C
  C620     1.0000 0.40856  0.27057  0.98068  Biso   1.000  C
  C621     1.0000 0.48744  0.59315  0.80149  Biso   1.000  C
  C622     1.0000 0.22133  0.49433  0.41577  Biso   1.000  C
  C623     1.0000 0.91594  0.26240  0.50194  Biso   1.000  C
  C624     1.0000 0.02438  0.58093  0.71471  Biso   1.000  C
  C625     1.0000 0.00228  0.18423  0.90061  Biso   1.000  C
  C626     1.0000 0.90093  0.97785  0.20873  Biso   1.000  C
  C627     1.0000 0.21499  0.87592  0.01687  Biso   1.000  C
  C628     1.0000 0.50880  0.19172  0.59815  Biso   1.000  C
  C629     1.0000 0.40239  0.95273  0.29982  Biso   1.000  C
  C630     1.0000 0.70641  0.87376  0.48695  Biso   1.000  C
  C631     1.0000 0.52038  0.68566  0.91670  Biso   1.000  C
  C632     1.0000 0.61890  0.46804  0.21113  Biso   1.000  C
  C633     1.0000 0.30378  0.37315  0.02369  Biso   1.000  C
  C634     1.0000 0.01214  0.68666  0.60575  Biso   1.000  C
  C635     1.0000 0.12297  0.48488  0.29927  Biso   1.000  C
  C636     1.0000 0.80664  0.36707  0.50856  Biso   1.000  C
  C637     1.0000 0.00043  0.76766  0.10529  Biso   1.000  C
  C638     1.0000 0.12020  0.99180  0.79492  Biso   1.000  C
  C639     1.0000 0.80061  0.07512  0.99753  Biso   1.000  C
  C640     1.0000 0.51089  0.76148  0.41606  Biso   1.000  C
  C641     1.0000 0.61490  0.98878  0.71302  Biso   1.000  C
  C642     1.0000 0.30344  0.08512  0.51400  Biso   1.000  C
  C643     1.0000 0.50863  0.25412  0.09373  Biso   1.000  C
  C644     1.0000 0.40464  0.48127  0.79709  Biso   1.000  C
  C645     1.0000 0.71647  0.57954  0.00209  Biso   1.000  C
  C646     1.0000 0.02260  0.26890  0.40197  Biso   1.000  C
  C647     1.0000 0.90125  0.49321  0.70760  Biso   1.000  C
  C648     1.0000 0.21250  0.58658  0.49980  Biso   1.000  C
  C649     1.0000 0.99181  0.68367  0.40118  Biso   1.000  C
  C650     1.0000 0.41268  0.97717  0.71907  Biso   1.000  C
  C651     1.0000 0.72156  0.37820  0.00249  Biso   1.000  C
  C652     1.0000 0.49519  0.67673  0.11913  Biso   1.000  C
  C653     1.0000 0.91595  0.97584  0.78714  Biso   1.000  C
  C654     1.0000 0.22265  0.38242  0.52547  Biso   1.000  C
  C655     1.0000 0.52808  0.17539  0.39034  Biso   1.000  C
  C656     1.0000 0.10265  0.45307  0.71428  Biso   1.000  C
  C657     1.0000 0.79771  0.87351  0.00847  Biso   1.000  C
  C658     1.0000 0.02399  0.18017  0.10103  Biso   1.000  C
  C659     1.0000 0.61324  0.50625  0.79482  Biso   1.000  C
  C660     1.0000 0.29561  0.88072  0.51157  Biso   1.000  C
  C661     1.0000 0.01479  0.26436  0.61086  Biso   1.000  C
  C662     1.0000 0.61181  0.96511  0.29506  Biso   1.000  C
  C663     1.0000 0.30037  0.57800  0.01435  Biso   1.000  C
  C664     1.0000 0.51104  0.27882  0.89144  Biso   1.000  C
  C665     1.0000 0.10853  0.96763  0.22009  Biso   1.000  C
  C666     1.0000 0.79494  0.56904  0.48447  Biso   1.000  C
  C667     1.0000 0.49552  0.77506  0.62005  Biso   1.000  C
  C668     1.0000 0.91917  0.47279  0.28699  Biso   1.000  C
  C669     1.0000 0.21486  0.07983  0.00006  Biso   1.000  C
  C670     1.0000 0.01747  0.77027  0.90335  Biso   1.000  C
  C671     1.0000 0.41712  0.48230  0.21322  Biso   1.000  C
  C672     1.0000 0.72463  0.07464  0.51154  Biso   1.000  C
  C673     1.0000 0.21035  0.98526  0.81393  Biso   1.000  C
  C674     1.0000 0.80948  0.16749  0.01353  Biso   1.000  C
  C675     1.0000 0.00125  0.78157  0.19956  Biso   1.000  C
  C676     1.0000 0.70793  0.97298  0.69613  Biso   1.000  C
  C677     1.0000 0.31954  0.17790  0.51363  Biso   1.000  C
  C678     1.0000 0.51617  0.76990  0.32034  Biso   1.000  C
  C679     1.0000 0.31027  0.46800  0.81311  Biso   1.000  C
  C680     1.0000 0.70153  0.67356  0.02510  Biso   1.000  C
  C681     1.0000 0.51917  0.26555  0.18914  Biso   1.000  C
  C682     1.0000 0.80959  0.48916  0.69252  Biso   1.000  C
  C683     1.0000 0.19303  0.67965  0.50682  Biso   1.000  C
  C684     1.0000 0.02324  0.27917  0.30645  Biso   1.000  C
  C685     1.0000 0.80730  0.97701  0.19474  Biso   1.000  C
  C686     1.0000 0.20260  0.78252  0.02492  Biso   1.000  C
  C687     1.0000 0.00112  0.17245  0.80467  Biso   1.000  C
  C688     1.0000 0.31046  0.97333  0.31229  Biso   1.000  C
  C689     1.0000 0.69361  0.77821  0.49814  Biso   1.000  C
  C690     1.0000 0.50283  0.18621  0.69023  Biso   1.000  C
  C691     1.0000 0.71331  0.46460  0.19283  Biso   1.000  C
  C692     1.0000 0.31562  0.28226  0.99590  Biso   1.000  C
  C693     1.0000 0.50207  0.68557  0.82300  Biso   1.000  C
  C694     1.0000 0.21552  0.49835  0.31781  Biso   1.000  C
  C695     1.0000 0.82246  0.27419  0.50086  Biso   1.000  C
  C696     1.0000 0.02795  0.67407  0.69943  Biso   1.000  C
  C697     1.0000 0.70453  0.97096  0.30661  Biso   1.000  C
  C698     1.0000 0.31155  0.67268  0.02236  Biso   1.000  C
  C699     1.0000 0.99537  0.28134  0.70218  Biso   1.000  C
  C700     1.0000 0.20362  0.96797  0.20142  Biso   1.000  C
  C701     1.0000 0.79783  0.66331  0.49528  Biso   1.000  C
  C702     1.0000 0.51439  0.29565  0.79927  Biso   1.000  C
  C703     1.0000 0.82316  0.47121  0.29879  Biso   1.000  C
  C704     1.0000 0.20342  0.17365  0.99476  Biso   1.000  C
  C705     1.0000 0.49897  0.79252  0.71353  Biso   1.000  C
  C706     1.0000 0.32289  0.50457  0.20659  Biso   1.000  C
  C707     1.0000 0.71233  0.16589  0.50549  Biso   1.000  C
  C708     1.0000 0.03579  0.78269  0.81198  Biso   1.000  C
  C709     1.0000 0.31751  0.98412  0.70708  Biso   1.000  C
  C710     1.0000 0.70941  0.28445  0.99824  Biso   1.000  C
  C711     1.0000 0.00195  0.67255  0.30771  Biso   1.000  C
  C712     1.0000 0.82148  0.96586  0.80115  Biso   1.000  C
  C713     1.0000 0.21114  0.28813  0.52167  Biso   1.000  C
  C714     1.0000 0.51732  0.66228  0.20659  Biso   1.000  C
  C715     1.0000 0.19911  0.46494  0.70840  Biso   1.000  C
  C716     1.0000 0.81123  0.77788  0.01825  Biso   1.000  C
  C717     1.0000 0.52185  0.15658  0.29711  Biso   1.000  C
  C718     1.0000 0.70497  0.48092  0.80669  Biso   1.000  C
  C719     1.0000 0.29930  0.78618  0.51344  Biso   1.000  C
  C720     1.0000 0.01954  0.17391  0.19723  Biso   1.000  C
  C721     1.0000 0.53483  0.77203  0.29440  Biso   1.000  C
  C722     1.0000 0.30762  0.48875  0.79021  Biso   1.000  C
  C723     1.0000 0.79753  0.27739  0.52084  Biso   1.000  C
  C724     1.0000 0.98145  0.75701  0.19480  Biso   1.000  C
  C725     1.0000 0.78046  0.50242  0.68959  Biso   1.000  C
  C726     1.0000 0.28890  0.28949  0.98134  Biso   1.000  C
  C727     1.0000 0.99923  0.25826  0.30723  Biso   1.000  C
  C728     1.0000 0.23539  0.00592  0.81693  Biso   1.000  C
  C729     1.0000 0.72173  0.78174  0.51332  Biso   1.000  C
  C730     1.0000 0.50364  0.26968  0.21676  Biso   1.000  C
  C731     1.0000 0.72564  0.94653  0.70048  Biso   1.000  C
  C732     1.0000 0.22592  0.78147  0.00413  Biso   1.000  C
  C733     1.0000 0.48688  0.18506  0.71827  Biso   1.000  C
  C734     1.0000 0.71232  0.44678  0.21992  Biso   1.000  C
  C735     1.0000 0.18755  0.70646  0.49148  Biso   1.000  C
  C736     1.0000 0.97962  0.19547  0.80883  Biso   1.000  C
  C737     1.0000 0.24603  0.48892  0.32054  Biso   1.000  C
  C738     1.0000 0.73214  0.66807  0.03348  Biso   1.000  C
  C739     1.0000 0.05085  0.67217  0.72173  Biso   1.000  C
  C740     1.0000 0.78251  0.95749  0.19107  Biso   1.000  C
  C741     1.0000 0.29196  0.17623  0.50026  Biso   1.000  C
  C742     1.0000 0.51485  0.68029  0.79459  Biso   1.000  C
  C743     1.0000 0.28259  0.95771  0.31600  Biso   1.000  C
  C744     1.0000 0.81362  0.19348  0.03250  Biso   1.000  C
  C745     1.0000 0.01397  0.70036  0.31251  Biso   1.000  C
  C746     1.0000 0.29374  0.00321  0.70244  Biso   1.000  C
  C747     1.0000 0.73316  0.28825  0.01905  Biso   1.000  C
  C748     1.0000 0.52916  0.69130  0.20364  Biso   1.000  C
  C749     1.0000 0.82549  0.95139  0.77227  Biso   1.000  C
  C750     1.0000 0.23690  0.29296  0.53803  Biso   1.000  C
  C751     1.0000 0.53576  0.15041  0.26880  Biso   1.000  C
  C752     1.0000 0.22803  0.45215  0.70164  Biso   1.000  C
  C753     1.0000 0.78547  0.78049  0.00072  Biso   1.000  C
  C754     1.0000 0.03482  0.16962  0.22422  Biso   1.000  C
  C755     1.0000 0.69858  0.46882  0.77822  Biso   1.000  C
  C756     1.0000 0.27037  0.79319  0.52747  Biso   1.000  C
  C757     1.0000 0.98208  0.25281  0.69566  Biso   1.000  C
  C758     1.0000 0.70141  0.98889  0.28186  Biso   1.000  C
  C759     1.0000 0.28395  0.66907  0.03911  Biso   1.000  C
  C760     1.0000 0.53818  0.28828  0.77823  Biso   1.000  C
  C761     1.0000 0.23115  0.98466  0.19643  Biso   1.000  C
  C762     1.0000 0.80417  0.69363  0.48579  Biso   1.000  C
  C763     1.0000 0.48085  0.79560  0.73895  Biso   1.000  C
  C764     1.0000 0.79573  0.48692  0.30201  Biso   1.000  C
  C765     1.0000 0.22729  0.17361  0.01544  Biso   1.000  C
  C766     1.0000 0.02096  0.78800  0.78494  Biso   1.000  C
  C767     1.0000 0.32968  0.51988  0.23409  Biso   1.000  C
  C768     1.0000 0.71453  0.18857  0.48394  Biso   1.000  C
  C769     1.0000 0.49081  0.71479  0.83118  Biso   1.000  C
  C770     1.0000 0.81506  0.47390  0.72107  Biso   1.000  C
  C771     1.0000 0.68761  0.75005  0.48538  Biso   1.000  C
  C772     1.0000 0.00884  0.69895  0.70120  Biso   1.000  C
  C773     1.0000 0.28748  0.44580  0.81518  Biso   1.000  C
  C774     1.0000 0.20025  0.75920  0.04408  Biso   1.000  C
  C775     1.0000 0.01904  0.17206  0.77852  Biso   1.000  C
  C776     1.0000 0.71767  0.99802  0.71200  Biso   1.000  C
  C777     1.0000 0.82406  0.24557  0.48515  Biso   1.000  C
  C778     1.0000 0.52108  0.21189  0.68701  Biso   1.000  C
  C779     1.0000 0.20809  0.96762  0.78611  Biso   1.000  C
  C780     1.0000 0.31958  0.25380  0.00426  Biso   1.000  C
  C781     1.0000 0.53382  0.23831  0.18297  Biso   1.000  C
  C782     1.0000 0.20946  0.51301  0.29104  Biso   1.000  C
  C783     1.0000 0.32333  0.20261  0.53423  Biso   1.000  C
  C784     1.0000 0.04079  0.28082  0.28036  Biso   1.000  C
  C785     1.0000 0.73969  0.48282  0.18874  Biso   1.000  C
  C786     1.0000 0.78392  0.16654  0.99567  Biso   1.000  C
  C787     1.0000 0.01457  0.78512  0.22796  Biso   1.000  C
  C788     1.0000 0.31715  0.98586  0.28398  Biso   1.000  C
  C789     1.0000 0.21734  0.67641  0.52512  Biso   1.000  C
  C790     1.0000 0.49667  0.74436  0.32311  Biso   1.000  C
  C791     1.0000 0.80958  0.99247  0.22171  Biso   1.000  C
  C792     1.0000 0.69480  0.70396  0.02082  Biso   1.000  C
  C793     1.0000 0.50498  0.18395  0.29918  Biso   1.000  C
  C794     1.0000 0.29675  0.48959  0.20437  Biso   1.000  C
  C795     1.0000 0.20750  0.26091  0.50575  Biso   1.000  C
  C796     1.0000 0.00124  0.19952  0.19193  Biso   1.000  C
  C797     1.0000 0.82816  0.45563  0.27087  Biso   1.000  C
  C798     1.0000 0.70768  0.25702  0.98194  Biso   1.000  C
  C799     1.0000 0.98630  0.66709  0.28098  Biso   1.000  C
  C800     1.0000 0.19945  0.95232  0.22898  Biso   1.000  C
  C801     1.0000 0.30200  0.75736  0.50080  Biso   1.000  C
  C802     1.0000 0.50725  0.65539  0.23673  Biso   1.000  C
  C803     1.0000 0.73144  0.95454  0.30704  Biso   1.000  C
  C804     1.0000 0.81451  0.75589  0.03945  Biso   1.000  C
  C805     1.0000 0.51706  0.76747  0.71129  Biso   1.000  C
  C806     1.0000 0.73279  0.49670  0.81185  Biso   1.000  C
  C807     1.0000 0.76736  0.65847  0.50427  Biso   1.000  C
  C808     1.0000 0.05040  0.75516  0.81484  Biso   1.000  C
  C809     1.0000 0.19372  0.47298  0.73915  Biso   1.000  C
  C810     1.0000 0.31582  0.70115  0.00897  Biso   1.000  C
  C811     1.0000 0.00924  0.28633  0.73015  Biso   1.000  C
  C812     1.0000 0.79391  0.98121  0.80707  Biso   1.000  C
  C813     1.0000 0.73233  0.16799  0.52991  Biso   1.000  C
  C814     1.0000 0.48656  0.28060  0.79615  Biso   1.000  C
  C815     1.0000 0.32011  0.96903  0.73440  Biso   1.000  C
  C816     1.0000 0.20384  0.19610  0.97243  Biso   1.000  C
  C817     1.0000 0.97874  0.21776  0.78904  Biso   1.000  C
  C818     1.0000 0.76250  0.95431  0.21423  Biso   1.000  C
  C819     1.0000 0.24700  0.76071  0.00446  Biso   1.000  C
  C820     1.0000 0.48483  0.20902  0.73730  Biso   1.000  C
  C821     1.0000 0.26310  0.95792  0.29378  Biso   1.000  C
  C822     1.0000 0.74147  0.75943  0.51089  Biso   1.000  C
  C823     1.0000 0.51382  0.70359  0.77499  Biso   1.000  C
  C824     1.0000 0.73549  0.44892  0.23924  Biso   1.000  C
  C825     1.0000 0.26797  0.26754  0.98028  Biso   1.000  C
  C826     1.0000 0.05303  0.69247  0.74385  Biso   1.000  C
  C827     1.0000 0.26757  0.49281  0.29998  Biso   1.000  C
  C828     1.0000 0.77571  0.25661  0.52213  Biso   1.000  C
  C829     1.0000 0.98126  0.73652  0.21701  Biso   1.000  C
  C830     1.0000 0.25506  0.00961  0.79447  Biso   1.000  C
  C831     1.0000 0.79400  0.21703  0.02903  Biso   1.000  C
  C832     1.0000 0.53711  0.75060  0.27369  Biso   1.000  C
  C833     1.0000 0.74866  0.94478  0.71982  Biso   1.000  C
  C834     1.0000 0.27202  0.19816  0.50260  Biso   1.000  C
  C835     1.0000 0.50242  0.24567  0.23512  Biso   1.000  C
  C836     1.0000 0.28628  0.48590  0.76955  Biso   1.000  C
  C837     1.0000 0.75118  0.69166  0.03785  Biso   1.000  C
  C838     1.0000 0.99777  0.23711  0.28555  Biso   1.000  C
  C839     1.0000 0.76002  0.50069  0.71254  Biso   1.000  C
  C840     1.0000 0.20672  0.72892  0.49642  Biso   1.000  C
  C841     1.0000 0.22854  0.97250  0.76475  Biso   1.000  C
  C842     1.0000 0.76585  0.19004  0.99487  Biso   1.000  C
  C843     1.0000 0.01195  0.76426  0.24837  Biso   1.000  C
  C844     1.0000 0.74049  0.99457  0.73320  Biso   1.000  C
  C845     1.0000 0.30215  0.22320  0.53929  Biso   1.000  C
  C846     1.0000 0.50058  0.72226  0.30207  Biso   1.000  C
  C847     1.0000 0.26485  0.44600  0.79617  Biso   1.000  C
  C848     1.0000 0.71545  0.72621  0.02221  Biso   1.000  C
  C849     1.0000 0.53324  0.21676  0.20329  Biso   1.000  C
  C850     1.0000 0.79348  0.47287  0.74210  Biso   1.000  C
  C851     1.0000 0.23633  0.69771  0.52880  Biso   1.000  C
  C852     1.0000 0.03694  0.25933  0.25915  Biso   1.000  C
  C853     1.0000 0.78899  0.99024  0.24336  Biso   1.000  C
  C854     1.0000 0.22403  0.73986  0.04560  Biso   1.000  C
  C855     1.0000 0.01696  0.19501  0.75933  Biso   1.000  C
  C856     1.0000 0.29630  0.98652  0.26273  Biso   1.000  C
  C857     1.0000 0.70791  0.72737  0.48628  Biso   1.000  C
  C858     1.0000 0.52158  0.23313  0.70799  Biso   1.000  C
  C859     1.0000 0.76190  0.48277  0.20920  Biso   1.000  C
  C860     1.0000 0.29848  0.23420  0.00341  Biso   1.000  C
  C861     1.0000 0.49101  0.73675  0.80954  Biso   1.000  C
  C862     1.0000 0.23123  0.51778  0.26993  Biso   1.000  C
  C863     1.0000 0.80289  0.22482  0.48899  Biso   1.000  C
  C864     1.0000 0.01271  0.71692  0.72483  Biso   1.000  C
  C865     1.0000 0.71919  0.47032  0.75643  Biso   1.000  C
  C866     1.0000 0.78230  0.71374  0.48932  Biso   1.000  C
  C867     1.0000 0.48255  0.77775  0.76250  Biso   1.000  C
  C868     1.0000 0.24918  0.45115  0.72236  Biso   1.000  C
  C869     1.0000 0.26348  0.69132  0.04001  Biso   1.000  C
  C870     1.0000 0.02047  0.76671  0.76425  Biso   1.000  C
  C871     1.0000 0.80287  0.95398  0.75269  Biso   1.000  C
  C872     1.0000 0.73413  0.21020  0.48705  Biso   1.000  C
  C873     1.0000 0.98118  0.23109  0.71648  Biso   1.000  C
  C874     1.0000 0.27488  0.00620  0.72483  Biso   1.000  C
  C875     1.0000 0.24802  0.19566  0.01263  Biso   1.000  C
  C876     1.0000 0.53245  0.26934  0.75604  Biso   1.000  C
  C877     1.0000 0.30899  0.52042  0.25599  Biso   1.000  C
  C878     1.0000 0.25833  0.27234  0.53835  Biso   1.000  C
  C879     1.0000 0.53457  0.17217  0.24606  Biso   1.000  C
  C880     1.0000 0.77523  0.48447  0.28079  Biso   1.000  C
  C881     1.0000 0.75501  0.26671  0.02077  Biso   1.000  C
  C882     1.0000 0.03032  0.19087  0.24530  Biso   1.000  C
  C883     1.0000 0.25052  0.98720  0.21838  Biso   1.000  C
  C884     1.0000 0.24882  0.77225  0.53149  Biso   1.000  C
  C885     1.0000 0.00953  0.72262  0.29269  Biso   1.000  C
  C886     1.0000 0.72097  0.98847  0.25946  Biso   1.000  C
  C887     1.0000 0.76306  0.76104  0.00464  Biso   1.000  C
  C888     1.0000 0.53178  0.71034  0.22645  Biso   1.000  C
  C889     1.0000 0.75236  0.95524  0.28544  Biso   1.000  C
  C890     1.0000 0.29548  0.72355  0.01093  Biso   1.000  C
  C891     1.0000 0.00686  0.26456  0.75097  Biso   1.000  C
  C892     1.0000 0.22256  0.95559  0.24916  Biso   1.000  C
  C893     1.0000 0.74629  0.67935  0.50471  Biso   1.000  C
  C894     1.0000 0.48202  0.26160  0.77318  Biso   1.000  C
  C895     1.0000 0.80810  0.45670  0.24849  Biso   1.000  C
  C896     1.0000 0.22739  0.21633  0.97054  Biso   1.000  C
  C897     1.0000 0.51704  0.74794  0.73361  Biso   1.000  C
  C898     1.0000 0.27636  0.49190  0.22674  Biso   1.000  C
  C899     1.0000 0.75356  0.19026  0.53109  Biso   1.000  C
  C900     1.0000 0.04853  0.73212  0.79401  Biso   1.000  C
  C901     1.0000 0.29831  0.97171  0.75557  Biso   1.000  C
  C902     1.0000 0.72895  0.23719  0.98519  Biso   1.000  C
  C903     1.0000 0.98345  0.69023  0.26116  Biso   1.000  C
  C904     1.0000 0.77241  0.98186  0.78582  Biso   1.000  C
  C905     1.0000 0.22984  0.24167  0.50494  Biso   1.000  C
  C906     1.0000 0.51061  0.67617  0.25883  Biso   1.000  C
  C907     1.0000 0.21542  0.47011  0.75920  Biso   1.000  C
  C908     1.0000 0.79111  0.73730  0.04247  Biso   1.000  C
  C909     1.0000 0.50420  0.20352  0.27667  Biso   1.000  C
  C910     1.0000 0.75145  0.49756  0.78760  Biso   1.000  C
  C911     1.0000 0.27950  0.73783  0.50367  Biso   1.000  C
  C912     1.0000 0.00150  0.22040  0.21295  Biso   1.000  C
  C913     1.0000 0.76670  0.48728  0.73828  Biso   1.000  C
  C914     1.0000 0.73510  0.73176  0.50059  Biso   1.000  C
  C915     1.0000 0.50382  0.73165  0.78152  Biso   1.000  C
  C916     1.0000 0.26562  0.46408  0.77168  Biso   1.000  C
  C917     1.0000 0.24642  0.73910  0.02388  Biso   1.000  C
  C918     1.0000 0.03413  0.71608  0.74490  Biso   1.000  C
  C919     1.0000 0.75460  0.96805  0.73767  Biso   1.000  C
  C920     1.0000 0.77926  0.23095  0.50635  Biso   1.000  C
  C921     1.0000 0.99526  0.21558  0.76315  Biso   1.000  C
  C922     1.0000 0.25094  0.99180  0.76998  Biso   1.000  C
  C923     1.0000 0.27112  0.24022  0.99197  Biso   1.000  C
  C924     1.0000 0.50301  0.23256  0.73234  Biso   1.000  C
  C925     1.0000 0.25994  0.50846  0.27467  Biso   1.000  C
  C926     1.0000 0.27591  0.22174  0.52228  Biso   1.000  C
  C927     1.0000 0.51700  0.22056  0.22920  Biso   1.000  C
  C928     1.0000 0.75928  0.46592  0.23283  Biso   1.000  C
  C929     1.0000 0.77009  0.21601  0.01094  Biso   1.000  C
  C930     1.0000 0.01665  0.23772  0.26255  Biso   1.000  C
  C931     1.0000 0.26934  0.97215  0.26730  Biso   1.000  C
  C932     1.0000 0.22930  0.72414  0.51658  Biso   1.000  C
  C933     1.0000 0.99596  0.73965  0.24293  Biso   1.000  C
  C934     1.0000 0.76660  0.97041  0.23948  Biso   1.000  C
  C935     1.0000 0.74297  0.71970  0.03271  Biso   1.000  C
  C936     1.0000 0.52040  0.72601  0.27836  Biso   1.000  C
  C937     1.0000 0.75139  0.24227  0.00331  Biso   1.000  C
  C938     1.0000 0.99726  0.71739  0.26595  Biso   1.000  C
  C939     1.0000 0.27645  0.99125  0.75036  Biso   1.000  C
  C940     1.0000 0.25632  0.24660  0.52083  Biso   1.000  C
  C941     1.0000 0.52119  0.70390  0.25481  Biso   1.000  C
  C942     1.0000 0.77679  0.96786  0.75873  Biso   1.000  C
  C943     1.0000 0.76525  0.74028  0.02711  Biso   1.000  C
  C944     1.0000 0.52050  0.19871  0.25120  Biso   1.000  C
  C945     1.0000 0.24263  0.46016  0.75021  Biso   1.000  C
  C946     1.0000 0.25314  0.74567  0.51799  Biso   1.000  C
  C947     1.0000 0.01562  0.21578  0.23923  Biso   1.000  C
  C948     1.0000 0.74380  0.48476  0.76172  Biso   1.000  C
  C949     1.0000 0.26947  0.71716  0.02551  Biso   1.000  C
  C950     1.0000 0.99454  0.23821  0.74296  Biso   1.000  C
  C951     1.0000 0.74452  0.96987  0.26099  Biso   1.000  C
  C952     1.0000 0.75440  0.70725  0.49924  Biso   1.000  C
  C953     1.0000 0.50543  0.25566  0.75439  Biso   1.000  C
  C954     1.0000 0.24660  0.97328  0.24520  Biso   1.000  C
  C955     1.0000 0.24765  0.21828  0.99194  Biso   1.000  C
  C956     1.0000 0.50064  0.75329  0.75849  Biso   1.000  C
  C957     1.0000 0.78219  0.46935  0.25510  Biso   1.000  C
  C958     1.0000 0.75466  0.21046  0.50908  Biso   1.000  C
  C959     1.0000 0.03424  0.73979  0.76722  Biso   1.000  C
  C960     1.0000 0.28186  0.50965  0.25007  Biso   1.000  C
  Cu1      1.0000 0.00366  0.47836  0.65695  Biso   1.000  Cu
  Cu2      1.0000 0.66136  0.97558  0.50315  Biso   1.000  Cu
  Cu3      1.0000 0.50810  0.62877  0.01478  Biso   1.000  Cu
  Cu4      1.0000 0.50723  0.48837  0.84537  Biso   1.000  Cu
  Cu5      1.0000 0.16133  0.97952  0.00488  Biso   1.000  Cu
  Cu6      1.0000 0.00086  0.63099  0.50404  Biso   1.000  Cu
  Cu7      1.0000 0.51054  0.98500  0.66056  Biso   1.000  Cu
  Cu8      1.0000 0.85651  0.47152  0.49762  Biso   1.000  Cu
  Cu9      1.0000 0.00512  0.12995  0.00122  Biso   1.000  Cu
  Cu10     1.0000 0.01483  0.97936  0.84514  Biso   1.000  Cu
  Cu11     1.0000 0.36067  0.47544  0.00868  Biso   1.000  Cu
  Cu12     1.0000 0.51358  0.12983  0.49833  Biso   1.000  Cu
  Cu13     1.0000 0.01744  0.47750  0.34642  Biso   1.000  Cu
  Cu14     1.0000 0.35497  0.98033  0.50497  Biso   1.000  Cu
  Cu15     1.0000 0.51328  0.31993  0.99623  Biso   1.000  Cu
  Cu16     1.0000 0.51671  0.46198  0.15657  Biso   1.000  Cu
  Cu17     1.0000 0.85598  0.97138  0.99891  Biso   1.000  Cu
  Cu18     1.0000 0.01493  0.32167  0.50606  Biso   1.000  Cu
  Cu19     1.0000 0.50809  0.96822  0.35249  Biso   1.000  Cu
  Cu20     1.0000 0.16231  0.48134  0.51464  Biso   1.000  Cu
  Cu21     1.0000 0.00614  0.82598  0.00831  Biso   1.000  Cu
  Cu22     1.0000 0.00804  0.97673  0.16007  Biso   1.000  Cu
  Cu23     1.0000 0.66325  0.47722  0.99989  Biso   1.000  Cu
  Cu24     1.0000 0.49931  0.82249  0.51363  Biso   1.000  Cu
  Cu25     1.0000 0.21779  0.97995  0.00899  Biso   1.000  Cu
  Cu26     1.0000 0.00414  0.18342  0.00340  Biso   1.000  Cu
  Cu27     1.0000 0.00360  0.97796  0.21412  Biso   1.000  Cu
  Cu28     1.0000 0.71693  0.97143  0.50338  Biso   1.000  Cu
  Cu29     1.0000 0.51589  0.18329  0.49346  Biso   1.000  Cu
  Cu30     1.0000 0.50845  0.96336  0.29883  Biso   1.000  Cu
  Cu31     1.0000 0.30665  0.47494  0.01160  Biso   1.000  Cu
  Cu32     1.0000 0.50975  0.68212  0.01876  Biso   1.000  Cu
  Cu33     1.0000 0.51590  0.46295  0.20993  Biso   1.000  Cu
  Cu34     1.0000 0.80279  0.46956  0.49421  Biso   1.000  Cu
  Cu35     1.0000 0.99810  0.68441  0.50530  Biso   1.000  Cu
  Cu36     1.0000 0.02248  0.47599  0.29159  Biso   1.000  Cu
  Cu37     1.0000 0.80251  0.97358  0.99751  Biso   1.000  Cu
  Cu38     1.0000 0.00713  0.77114  0.00509  Biso   1.000  Cu
  Cu39     1.0000 0.01950  0.97810  0.79240  Biso   1.000  Cu
  Cu40     1.0000 0.29927  0.98105  0.50885  Biso   1.000  Cu
  Cu41     1.0000 0.49798  0.76828  0.51652  Biso   1.000  Cu
  Cu42     1.0000 0.51338  0.99127  0.71589  Biso   1.000  Cu
  Cu43     1.0000 0.71749  0.47733  0.99799  Biso   1.000  Cu
  Cu44     1.0000 0.51398  0.26633  0.98999  Biso   1.000  Cu
  Cu45     1.0000 0.50675  0.49236  0.79277  Biso   1.000  Cu
  Cu46     1.0000 0.21656  0.48555  0.51486  Biso   1.000  Cu
  Cu47     1.0000 0.02058  0.26793  0.50753  Biso   1.000  Cu
  Cu48     1.0000 0.00458  0.47771  0.70985  Biso   1.000  Cu
  H1       1.0000 0.23057  0.77854  0.54427  Biso   1.000  H
  H2       1.0000 0.54798  0.26604  0.73989  Biso   1.000  H
  H3       1.0000 0.75598  0.49548  0.28559  Biso   1.000  H
  H4       1.0000 0.74245  0.76292  0.99256  Biso   1.000  H
  H5       1.0000 0.97548  0.20808  0.71403  Biso   1.000  H
  H6       1.0000 0.31129  0.53159  0.27554  Biso   1.000  H
  H7       1.0000 0.27809  0.27654  0.55109  Biso   1.000  H
  H8       1.0000 0.00808  0.77473  0.74433  Biso   1.000  H
  H9       1.0000 0.71864  0.00364  0.24182  Biso   1.000  H
  H10      1.0000 0.77401  0.26939  0.03319  Biso   1.000  H
  H11      1.0000 0.47070  0.78472  0.78315  Biso   1.000  H
  H12      1.0000 0.26850  0.00188  0.21475  Biso   1.000  H
  H13      1.0000 0.73248  0.22595  0.47017  Biso   1.000  H
  H14      1.0000 0.53829  0.73341  0.22366  Biso   1.000  H
  H15      1.0000 0.27198  0.44343  0.71519  Biso   1.000  H
  H16      1.0000 0.26212  0.19831  0.03081  Biso   1.000  H
  H17      1.0000 0.01563  0.74456  0.30140  Biso   1.000  H
  H18      1.0000 0.71458  0.45713  0.73686  Biso   1.000  H
  H19      1.0000 0.78392  0.73541  0.48312  Biso   1.000  H
  H20      1.0000 0.03908  0.19057  0.26760  Biso   1.000  H
  H21      1.0000 0.25934  0.02265  0.72539  Biso   1.000  H
  H22      1.0000 0.24291  0.68713  0.05077  Biso   1.000  H
  H23      1.0000 0.54734  0.16715  0.22690  Biso   1.000  H
  H24      1.0000 0.80654  0.94371  0.73165  Biso   1.000  H
  H25      1.0000 0.27178  0.02559  0.79568  Biso   1.000  H
  H26      1.0000 0.80164  0.23529  0.04239  Biso   1.000  H
  H27      1.0000 0.96613  0.71994  0.21599  Biso   1.000  H
  H28      1.0000 0.76057  0.92445  0.71960  Biso   1.000  H
  H29      1.0000 0.25189  0.19806  0.49287  Biso   1.000  H
  H30      1.0000 0.55491  0.75399  0.25700  Biso   1.000  H
  H31      1.0000 0.28658  0.49832  0.75110  Biso   1.000  H
  H32      1.0000 0.77259  0.68715  0.04335  Biso   1.000  H
  H33      1.0000 0.48942  0.24766  0.25624  Biso   1.000  H
  H34      1.0000 0.73894  0.51185  0.71004  Biso   1.000  H
  H35      1.0000 0.20662  0.74867  0.48479  Biso   1.000  H
  H36      1.0000 0.98284  0.21910  0.28943  Biso   1.000  H
  H37      1.0000 0.74276  0.94229  0.21548  Biso   1.000  H
  H38      1.0000 0.26426  0.76061  0.98797  Biso   1.000  H
  H39      1.0000 0.96206  0.23382  0.79192  Biso   1.000  H
  H40      1.0000 0.24170  0.94627  0.29770  Biso   1.000  H
  H41      1.0000 0.76285  0.76132  0.52193  Biso   1.000  H
  H42      1.0000 0.47191  0.20832  0.75695  Biso   1.000  H
  H43      1.0000 0.73604  0.43592  0.25924  Biso   1.000  H
  H44      1.0000 0.24689  0.27285  0.96980  Biso   1.000  H
  H45      1.0000 0.52053  0.69629  0.75270  Biso   1.000  H
  H46      1.0000 0.28859  0.48498  0.30109  Biso   1.000  H
  H47      1.0000 0.75541  0.26100  0.53552  Biso   1.000  H
  H48      1.0000 0.07038  0.69088  0.76025  Biso   1.000  H
  H49      1.0000 0.22573  0.52802  0.24952  Biso   1.000  H
  H50      1.0000 0.30747  0.24036  0.55399  Biso   1.000  H
  H51      1.0000 0.54672  0.19805  0.19806  Biso   1.000  H
  H52      1.0000 0.78210  0.49570  0.20451  Biso   1.000  H
  H53      1.0000 0.74699  0.18733  0.98020  Biso   1.000  H
  H54      1.0000 0.05095  0.25807  0.23968  Biso   1.000  H
  H55      1.0000 0.30012  0.99531  0.24256  Biso   1.000  H
  H56      1.0000 0.25470  0.69278  0.54487  Biso   1.000  H
  H57      1.0000 0.02560  0.76737  0.26623  Biso   1.000  H
  H58      1.0000 0.79107  0.00521  0.26087  Biso   1.000  H
  H59      1.0000 0.71034  0.74851  0.01819  Biso   1.000  H
  H60      1.0000 0.48639  0.70426  0.30036  Biso   1.000  H
  H61      1.0000 0.80001  0.46440  0.76250  Biso   1.000  H
  H62      1.0000 0.70275  0.70576  0.47627  Biso   1.000  H
  H63      1.0000 0.48094  0.75786  0.81238  Biso   1.000  H
  H64      1.0000 0.24781  0.42830  0.79835  Biso   1.000  H
  H65      1.0000 0.22373  0.72504  0.06336  Biso   1.000  H
  H66      1.0000 0.99637  0.73407  0.72803  Biso   1.000  H
  H67      1.0000 0.74735  0.01326  0.74437  Biso   1.000  H
  H68      1.0000 0.80572  0.20419  0.47670  Biso   1.000  H
  H69      1.0000 0.03210  0.19520  0.74119  Biso   1.000  H
  H70      1.0000 0.22845  0.96150  0.74483  Biso   1.000  H
  H71      1.0000 0.30356  0.21282  0.01230  Biso   1.000  H
  H72      1.0000 0.53329  0.25263  0.70409  Biso   1.000  H
  H73      1.0000 0.76951  0.51268  0.79006  Biso   1.000  H
  H74      1.0000 0.72487  0.67349  0.51260  Biso   1.000  H
  H75      1.0000 0.53412  0.73217  0.73262  Biso   1.000  H
  H76      1.0000 0.20854  0.47371  0.78086  Biso   1.000  H
  H77      1.0000 0.30085  0.74532  0.00506  Biso   1.000  H
  H78      1.0000 0.05831  0.71134  0.79595  Biso   1.000  H
  H79      1.0000 0.75303  0.99429  0.79087  Biso   1.000  H
  H80      1.0000 0.76869  0.18870  0.54761  Biso   1.000  H
  H81      1.0000 0.01749  0.26890  0.77135  Biso   1.000  H
  H82      1.0000 0.29921  0.95959  0.77565  Biso   1.000  H
  H83      1.0000 0.22904  0.23097  0.95248  Biso   1.000  H
  H84      1.0000 0.46209  0.25204  0.76770  Biso   1.000  H
  H85      1.0000 0.25378  0.48259  0.22703  Biso   1.000  H
  H86      1.0000 0.22902  0.22286  0.49208  Biso   1.000  H
  H87      1.0000 0.49021  0.22136  0.28088  Biso   1.000  H
  H88      1.0000 0.80976  0.44270  0.22874  Biso   1.000  H
  H89      1.0000 0.72753  0.21818  0.96982  Biso   1.000  H
  H90      1.0000 0.98946  0.24057  0.20996  Biso   1.000  H
  H91      1.0000 0.21423  0.94799  0.27078  Biso   1.000  H
  H92      1.0000 0.28016  0.71547  0.49439  Biso   1.000  H
  H93      1.0000 0.97170  0.68556  0.24162  Biso   1.000  H
  H94      1.0000 0.77159  0.94094  0.28538  Biso   1.000  H
  H95      1.0000 0.79558  0.72131  0.06014  Biso   1.000  H
  H96      1.0000 0.50284  0.66844  0.28150  Biso   1.000  H
  H97      1.0000 0.88442  0.96434  0.90665  Biso   1.000  H
  H98      1.0000 0.91388  0.83814  0.99199  Biso   1.000  H
  H99      1.0000 0.02024  0.89239  0.86769  Biso   1.000  H
  H100     1.0000 0.37836  0.97157  0.59667  Biso   1.000  H
  H101     1.0000 0.40897  0.84459  0.51460  Biso   1.000  H
  H102     1.0000 0.50941  0.89368  0.64573  Biso   1.000  H
  H103     1.0000 0.63833  0.48516  0.90841  Biso   1.000  H
  H104     1.0000 0.60634  0.34326  0.99142  Biso   1.000  H
  H105     1.0000 0.52474  0.40037  0.86294  Biso   1.000  H
  H106     1.0000 0.14133  0.48483  0.60325  Biso   1.000  H
  H107     1.0000 0.10217  0.34728  0.51434  Biso   1.000  H
  H108     1.0000 0.99710  0.38397  0.63629  Biso   1.000  H
  H109     1.0000 0.13788  0.97054  0.10107  Biso   1.000  H
  H110     1.0000 0.09598  0.11342  0.99946  Biso   1.000  H
  H111     1.0000 0.02337  0.06564  0.13691  Biso   1.000  H
  H112     1.0000 0.64374  0.96267  0.41506  Biso   1.000  H
  H113     1.0000 0.60594  0.10781  0.50473  Biso   1.000  H
  H114     1.0000 0.51378  0.05834  0.36866  Biso   1.000  H
  H115     1.0000 0.37982  0.47895  0.09659  Biso   1.000  H
  H116     1.0000 0.41807  0.60766  0.00837  Biso   1.000  H
  H117     1.0000 0.51113  0.55780  0.13983  Biso   1.000  H
  H118     1.0000 0.88523  0.47376  0.40266  Biso   1.000  H
  H119     1.0000 0.90551  0.60544  0.50308  Biso   1.000  H
  H120     1.0000 0.02030  0.56890  0.36829  Biso   1.000  H
  H121     1.0000 0.10270  0.98264  0.87169  Biso   1.000  H
  H122     1.0000 0.87640  0.06388  0.00069  Biso   1.000  H
  H123     1.0000 0.00244  0.84113  0.09360  Biso   1.000  H
  H124     1.0000 0.60259  0.98108  0.63802  Biso   1.000  H
  H125     1.0000 0.37397  0.06985  0.49393  Biso   1.000  H
  H126     1.0000 0.51022  0.83637  0.42195  Biso   1.000  H
  H127     1.0000 0.41761  0.47222  0.87197  Biso   1.000  H
  H128     1.0000 0.64277  0.56552  0.01339  Biso   1.000  H
  H129     1.0000 0.51758  0.32953  0.08698  Biso   1.000  H
  H130     1.0000 0.91616  0.49001  0.63299  Biso   1.000  H
  H131     1.0000 0.13825  0.56902  0.50319  Biso   1.000  H
  H132     1.0000 0.02282  0.34304  0.41289  Biso   1.000  H
  H133     1.0000 0.91494  0.98572  0.13698  Biso   1.000  H
  H134     1.0000 0.14012  0.88801  0.01167  Biso   1.000  H
  H135     1.0000 0.01228  0.10800  0.90663  Biso   1.000  H
  H136     1.0000 0.41840  0.96079  0.37514  Biso   1.000  H
  H137     1.0000 0.63302  0.88706  0.51095  Biso   1.000  H
  H138     1.0000 0.51077  0.11413  0.58983  Biso   1.000  H
  H139     1.0000 0.60368  0.46718  0.13731  Biso   1.000  H
  H140     1.0000 0.37943  0.38354  0.02632  Biso   1.000  H
  H141     1.0000 0.50651  0.61240  0.92039  Biso   1.000  H
  H142     1.0000 0.10420  0.48552  0.37406  Biso   1.000  H
  H143     1.0000 0.88092  0.38071  0.50790  Biso   1.000  H
  H144     1.0000 0.00867  0.61009  0.59631  Biso   1.000  H
  H145     1.0000 0.59666  0.49514  0.86797  Biso   1.000  H
  H146     1.0000 0.86925  0.56335  0.49379  Biso   1.000  H
  H147     1.0000 0.49454  0.84710  0.60458  Biso   1.000  H
  H148     1.0000 0.09634  0.47437  0.64153  Biso   1.000  H
  H149     1.0000 0.37465  0.56949  0.99831  Biso   1.000  H
  H150     1.0000 0.02363  0.84668  0.91756  Biso   1.000  H
  H151     1.0000 0.92629  0.97265  0.86219  Biso   1.000  H
  H152     1.0000 0.64655  0.06556  0.50178  Biso   1.000  H
  H153     1.0000 0.00531  0.34003  0.59651  Biso   1.000  H
  H154     1.0000 0.42350  0.97216  0.64285  Biso   1.000  H
  H155     1.0000 0.13838  0.07366  0.99892  Biso   1.000  H
  H156     1.0000 0.51924  0.35340  0.90831  Biso   1.000  H
  H157     1.0000 0.42113  0.47159  0.13750  Biso   1.000  H
  H158     1.0000 0.14773  0.39325  0.52632  Biso   1.000  H
  H159     1.0000 0.51631  0.10150  0.40691  Biso   1.000  H
  H160     1.0000 0.92860  0.47259  0.36183  Biso   1.000  H
  H161     1.0000 0.64648  0.38525  0.00123  Biso   1.000  H
  H162     1.0000 0.01837  0.10507  0.09417  Biso   1.000  H
  H163     1.0000 0.09388  0.97431  0.14785  Biso   1.000  H
  H164     1.0000 0.36957  0.88445  0.51790  Biso   1.000  H
  H165     1.0000 0.01553  0.61348  0.41291  Biso   1.000  H
  H166     1.0000 0.59870  0.95895  0.37056  Biso   1.000  H
  H167     1.0000 0.87280  0.88088  0.99395  Biso   1.000  H
  H168     1.0000 0.50000  0.60063  0.10364  Biso   1.000  H
  H169     1.0000 0.00457  0.06768  0.86637  Biso   1.000  H
  H170     1.0000 0.87599  0.98081  0.08956  Biso   1.000  H
  H171     1.0000 0.10094  0.84623  0.01058  Biso   1.000  H
  H172     1.0000 0.50920  0.07874  0.63509  Biso   1.000  H
  H173     1.0000 0.37193  0.97052  0.41788  Biso   1.000  H
  H174     1.0000 0.58907  0.84048  0.51012  Biso   1.000  H
  H175     1.0000 0.49799  0.57404  0.87467  Biso   1.000  H
  H176     1.0000 0.64453  0.47109  0.09424  Biso   1.000  H
  H177     1.0000 0.42138  0.34144  0.00812  Biso   1.000  H
  H178     1.0000 0.00835  0.56897  0.64068  Biso   1.000  H
  H179     1.0000 0.14725  0.48167  0.42130  Biso   1.000  H
  H180     1.0000 0.92095  0.33741  0.50392  Biso   1.000  H
  H181     1.0000 0.99803  0.88373  0.13666  Biso   1.000  H
  H182     1.0000 0.14584  0.97692  0.91589  Biso   1.000  H
  H183     1.0000 0.91666  0.11153  0.00892  Biso   1.000  H
  H184     1.0000 0.51481  0.87697  0.37695  Biso   1.000  H
  H185     1.0000 0.64287  0.96873  0.59511  Biso   1.000  H
  H186     1.0000 0.42042  0.11367  0.49201  Biso   1.000  H
  H187     1.0000 0.51931  0.37093  0.13073  Biso   1.000  H
  H188     1.0000 0.37490  0.47164  0.91492  Biso   1.000  H
  H189     1.0000 0.60100  0.60819  0.01128  Biso   1.000  H
  H190     1.0000 0.02606  0.38469  0.36818  Biso   1.000  H
  H191     1.0000 0.87191  0.48468  0.58910  Biso   1.000  H
  H192     1.0000 0.09592  0.60848  0.49998  Biso   1.000  H
  H193     1.0000 0.26994  0.84340  0.50616  Biso   1.000  H
  H194     1.0000 0.50694  0.26166  0.84896  Biso   1.000  H
  H195     1.0000 0.87851  0.47445  0.26560  Biso   1.000  H
  H196     1.0000 0.77856  0.82899  0.01737  Biso   1.000  H
  H197     1.0000 0.01179  0.24614  0.65234  Biso   1.000  H
  H198     1.0000 0.38013  0.49903  0.23842  Biso   1.000  H
  H199     1.0000 0.24484  0.34168  0.52490  Biso   1.000  H
  H200     1.0000 0.02100  0.75090  0.86082  Biso   1.000  H
  H201     1.0000 0.65316  0.97249  0.27307  Biso   1.000  H
  H202     1.0000 0.74121  0.33501  0.00231  Biso   1.000  H
  H203     1.0000 0.49592  0.75657  0.66323  Biso   1.000  H
  H204     1.0000 0.15275  0.96422  0.23765  Biso   1.000  H
  H205     1.0000 0.74608  0.11840  0.50787  Biso   1.000  H
  H206     1.0000 0.49507  0.69534  0.16678  Biso   1.000  H
  H207     1.0000 0.14216  0.44865  0.73785  Biso   1.000  H
  H208     1.0000 0.23691  0.11994  0.99691  Biso   1.000  H
  H209     1.0000 0.98568  0.70222  0.36007  Biso   1.000  H
  H210     1.0000 0.65651  0.50072  0.77431  Biso   1.000  H
  H211     1.0000 0.77067  0.60673  0.48401  Biso   1.000  H
  H212     1.0000 0.02697  0.20437  0.14369  Biso   1.000  H
  H213     1.0000 0.37145  0.98470  0.74011  Biso   1.000  H
  H214     1.0000 0.27897  0.61935  0.01873  Biso   1.000  H
  H215     1.0000 0.53101  0.19475  0.34927  Biso   1.000  H
  H216     1.0000 0.87387  0.97620  0.76625  Biso   1.000  H
  H217     1.0000 0.24403  0.50027  0.37453  Biso   1.000  H
  H218     1.0000 0.37164  0.21200  0.50822  Biso   1.000  H
  H219     1.0000 0.52284  0.31679  0.22629  Biso   1.000  H
  H220     1.0000 0.74327  0.45715  0.13881  Biso   1.000  H
  H221     1.0000 0.86037  0.20390  0.00973  Biso   1.000  H
  H222     1.0000 0.02460  0.33130  0.27292  Biso   1.000  H
  H223     1.0000 0.27783  0.98766  0.36607  Biso   1.000  H
  H224     1.0000 0.14131  0.71132  0.50713  Biso   1.000  H
  H225     1.0000 0.00270  0.83583  0.23453  Biso   1.000  H
  H226     1.0000 0.77388  0.97557  0.13906  Biso   1.000  H
  H227     1.0000 0.64875  0.70244  0.04480  Biso   1.000  H
  H228     1.0000 0.51340  0.81741  0.28608  Biso   1.000  H
  H229     1.0000 0.77316  0.48254  0.64306  Biso   1.000  H
  H230     1.0000 0.64317  0.74723  0.51077  Biso   1.000  H
  H231     1.0000 0.48956  0.63577  0.78168  Biso   1.000  H
  H232     1.0000 0.27879  0.45483  0.86604  Biso   1.000  H
  H233     1.0000 0.14905  0.74567  0.02354  Biso   1.000  H
  H234     1.0000 0.02904  0.62594  0.73394  Biso   1.000  H
  H235     1.0000 0.73902  0.96530  0.64841  Biso   1.000  H
  H236     1.0000 0.87535  0.23763  0.50189  Biso   1.000  H
  H237     1.0000 0.00515  0.11904  0.76933  Biso   1.000  H
  H238     1.0000 0.24415  0.97534  0.86459  Biso   1.000  H
  H239     1.0000 0.36427  0.25554  0.97163  Biso   1.000  H
  H240     1.0000 0.51136  0.13754  0.72917  Biso   1.000  H
  H241     1.0000 0.73324  0.46540  0.85513  Biso   1.000  H
  H242     1.0000 0.84996  0.69979  0.50980  Biso   1.000  H
  H243     1.0000 0.49871  0.85149  0.74606  Biso   1.000  H
  H244     1.0000 0.23328  0.48616  0.66287  Biso   1.000  H
  H245     1.0000 0.36499  0.70524  0.02474  Biso   1.000  H
  H246     1.0000 0.04998  0.83182  0.78058  Biso   1.000  H
  H247     1.0000 0.78871  0.95970  0.85607  Biso   1.000  H
  H248     1.0000 0.66378  0.20206  0.49426  Biso   1.000  H
  H249     1.0000 0.98483  0.33499  0.73310  Biso   1.000  H
  H250     1.0000 0.28282  0.98428  0.65418  Biso   1.000  H
  H251     1.0000 0.15134  0.20770  0.99175  Biso   1.000  H
  H252     1.0000 0.52143  0.34537  0.76592  Biso   1.000  H
  H253     1.0000 0.29093  0.51211  0.15537  Biso   1.000  H
  H254     1.0000 0.16329  0.25505  0.52983  Biso   1.000  H
  H255     1.0000 0.51224  0.10034  0.26750  Biso   1.000  H
  H256     1.0000 0.78904  0.46026  0.34658  Biso   1.000  H
  H257     1.0000 0.65839  0.24616  0.99659  Biso   1.000  H
  H258     1.0000 0.01441  0.12487  0.23200  Biso   1.000  H
  H259     1.0000 0.23771  0.96687  0.14533  Biso   1.000  H
  H260     1.0000 0.35078  0.75152  0.51584  Biso   1.000  H
  H261     1.0000 0.01360  0.61827  0.27024  Biso   1.000  H
  H262     1.0000 0.74087  0.97099  0.35868  Biso   1.000  H
  H263     1.0000 0.86075  0.74698  0.00841  Biso   1.000  H
  H264     1.0000 0.52752  0.60431  0.23744  Biso   1.000  H
  H265     1.0000 0.00141  0.20666  0.85905  Biso   1.000  H
  H266     1.0000 0.85854  0.97644  0.23015  Biso   1.000  H
  H267     1.0000 0.23498  0.83371  0.02236  Biso   1.000  H
  H268     1.0000 0.50085  0.21406  0.63866  Biso   1.000  H
  H269     1.0000 0.36185  0.95677  0.28013  Biso   1.000  H
  H270     1.0000 0.72663  0.83039  0.48407  Biso   1.000  H
  H271     1.0000 0.51570  0.71277  0.87793  Biso   1.000  H
  H272     1.0000 0.66569  0.46599  0.23110  Biso   1.000  H
  H273     1.0000 0.28271  0.33318  0.01313  Biso   1.000  H
  H274     1.0000 0.01988  0.70877  0.64731  Biso   1.000  H
  H275     1.0000 0.16883  0.48729  0.28206  Biso   1.000  H
  H276     1.0000 0.78573  0.32256  0.50182  Biso   1.000  H
  H277     1.0000 0.00288  0.74768  0.14880  Biso   1.000  H
  H278     1.0000 0.16587  0.99054  0.77683  Biso   1.000  H
  H279     1.0000 0.77808  0.11574  0.00368  Biso   1.000  H
  H280     1.0000 0.51695  0.73803  0.37492  Biso   1.000  H
  H281     1.0000 0.65916  0.98534  0.73237  Biso   1.000  H
  H282     1.0000 0.28620  0.12942  0.52195  Biso   1.000  H
  H283     1.0000 0.50978  0.23343  0.13467  Biso   1.000  H
  H284     1.0000 0.36083  0.47625  0.77746  Biso   1.000  H
  H285     1.0000 0.73655  0.62191  0.00596  Biso   1.000  H
  H286     1.0000 0.01639  0.24708  0.36018  Biso   1.000  H
  H287     1.0000 0.85806  0.49699  0.72860  Biso   1.000  H
  H288     1.0000 0.23091  0.62931  0.49947  Biso   1.000  H
  H289     1.0000 0.09497  0.20638  0.99681  Biso   1.000  H
  H290     1.0000 0.01242  0.06987  0.23168  Biso   1.000  H
  H291     1.0000 0.23285  0.96834  0.09296  Biso   1.000  H
  H292     1.0000 0.60949  0.20157  0.48797  Biso   1.000  H
  H293     1.0000 0.49988  0.05287  0.27365  Biso   1.000  H
  H294     1.0000 0.74155  0.97019  0.41147  Biso   1.000  H
  H295     1.0000 0.41852  0.70395  0.01535  Biso   1.000  H
  H296     1.0000 0.52785  0.54933  0.23255  Biso   1.000  H
  H297     1.0000 0.28911  0.50869  0.10144  Biso   1.000  H
  H298     1.0000 0.90297  0.70373  0.51004  Biso   1.000  H
  H299     1.0000 0.02058  0.56456  0.27296  Biso   1.000  H
  H300     1.0000 0.78498  0.46274  0.40228  Biso   1.000  H
  H301     1.0000 0.91977  0.74580  0.00417  Biso   1.000  H
  H302     1.0000 0.04100  0.88424  0.77474  Biso   1.000  H
  H303     1.0000 0.78839  0.96019  0.90820  Biso   1.000  H
  H304     1.0000 0.40853  0.74611  0.51284  Biso   1.000  H
  H305     1.0000 0.50557  0.90245  0.74170  Biso   1.000  H
  H306     1.0000 0.28627  0.98010  0.60003  Biso   1.000  H
  H307     1.0000 0.60820  0.24606  0.98804  Biso   1.000  H
  H308     1.0000 0.52713  0.40197  0.76777  Biso   1.000  H
  H309     1.0000 0.73298  0.45965  0.90665  Biso   1.000  H
  H310     1.0000 0.11079  0.25141  0.52747  Biso   1.000  H
  H311     1.0000 0.99121  0.38822  0.73221  Biso   1.000  H
  H312     1.0000 0.23922  0.49444  0.61009  Biso   1.000  H
  H313     1.0000 0.24231  0.97386  0.91791  Biso   1.000  H
  H314     1.0000 0.91336  0.20603  0.01557  Biso   1.000  H
  H315     1.0000 0.00737  0.88865  0.23354  Biso   1.000  H
  H316     1.0000 0.73659  0.95918  0.59097  Biso   1.000  H
  H317     1.0000 0.42563  0.20979  0.49916  Biso   1.000  H
  H318     1.0000 0.50306  0.87023  0.28191  Biso   1.000  H
  H319     1.0000 0.28306  0.45129  0.92083  Biso   1.000  H
  H320     1.0000 0.59420  0.69694  0.05058  Biso   1.000  H
  H321     1.0000 0.52491  0.37351  0.22663  Biso   1.000  H
  H322     1.0000 0.77334  0.48028  0.58702  Biso   1.000  H
  H323     1.0000 0.08817  0.70497  0.51582  Biso   1.000  H
  H324     1.0000 0.02690  0.38502  0.27305  Biso   1.000  H
  H325     1.0000 0.77687  0.97471  0.08414  Biso   1.000  H
  H326     1.0000 0.09557  0.74836  0.01774  Biso   1.000  H
  H327     1.0000 0.01031  0.06640  0.77186  Biso   1.000  H
  H328     1.0000 0.27975  0.99342  0.41543  Biso   1.000  H
  H329     1.0000 0.58858  0.74860  0.51961  Biso   1.000  H
  H330     1.0000 0.51100  0.08173  0.73305  Biso   1.000  H
  H331     1.0000 0.73860  0.46459  0.08355  Biso   1.000  H
  H332     1.0000 0.42148  0.25283  0.97163  Biso   1.000  H
  H333     1.0000 0.48407  0.58341  0.77973  Biso   1.000  H
  H334     1.0000 0.24300  0.49715  0.42634  Biso   1.000  H
  H335     1.0000 0.92751  0.24193  0.50578  Biso   1.000  H
  H336     1.0000 0.02942  0.57022  0.73435  Biso   1.000  H
  H337     1.0000 0.00379  0.20423  0.91364  Biso   1.000  H
  H338     1.0000 0.91159  0.97477  0.22946  Biso   1.000  H
  H339     1.0000 0.23665  0.88820  0.01524  Biso   1.000  H
  H340     1.0000 0.50864  0.21198  0.58767  Biso   1.000  H
  H341     1.0000 0.41481  0.94669  0.27979  Biso   1.000  H
  H342     1.0000 0.72580  0.88301  0.47930  Biso   1.000  H
  H343     1.0000 0.53117  0.70167  0.92836  Biso   1.000  H
  H344     1.0000 0.60599  0.46919  0.23113  Biso   1.000  H
  H345     1.0000 0.28261  0.38483  0.02824  Biso   1.000  H
  H346     1.0000 0.01077  0.70814  0.59424  Biso   1.000  H
  H347     1.0000 0.11238  0.48315  0.27862  Biso   1.000  H
  H348     1.0000 0.78482  0.37946  0.51233  Biso   1.000  H
  H349     1.0000 0.00044  0.74841  0.09182  Biso   1.000  H
  H350     1.0000 0.10782  0.99437  0.77536  Biso   1.000  H
  H351     1.0000 0.78038  0.06340  0.99585  Biso   1.000  H
  H352     1.0000 0.50999  0.74234  0.42880  Biso   1.000  H
  H353     1.0000 0.60310  0.99223  0.73368  Biso   1.000  H
  H354     1.0000 0.28368  0.07350  0.51707  Biso   1.000  H
  H355     1.0000 0.50420  0.23437  0.08212  Biso   1.000  H
  H356     1.0000 0.41581  0.48408  0.77717  Biso   1.000  H
  H357     1.0000 0.73672  0.56775  0.99784  Biso   1.000  H
  H358     1.0000 0.02235  0.24781  0.41411  Biso   1.000  H
  H359     1.0000 0.91322  0.49303  0.72742  Biso   1.000  H
  H360     1.0000 0.23285  0.57461  0.49358  Biso   1.000  H
  H361     1.0000 0.98060  0.70045  0.41414  Biso   1.000  H
  H362     1.0000 0.42254  0.97699  0.74032  Biso   1.000  H
  H363     1.0000 0.73967  0.39250  0.00780  Biso   1.000  H
  H364     1.0000 0.49367  0.69700  0.10800  Biso   1.000  H
  H365     1.0000 0.92848  0.98158  0.76762  Biso   1.000  H
  H366     1.0000 0.24281  0.39512  0.52634  Biso   1.000  H
  H367     1.0000 0.53292  0.19630  0.39948  Biso   1.000  H
  H368     1.0000 0.08963  0.44390  0.73096  Biso   1.000  H
  H369     1.0000 0.77691  0.88499  0.01079  Biso   1.000  H
  H370     1.0000 0.02517  0.19914  0.08777  Biso   1.000  H
  H371     1.0000 0.60167  0.51366  0.77552  Biso   1.000  H
  H372     1.0000 0.27688  0.89327  0.50502  Biso   1.000  H
  H373     1.0000 0.02130  0.24438  0.60164  Biso   1.000  H
  H374     1.0000 0.59930  0.96562  0.27538  Biso   1.000  H
  H375     1.0000 0.28208  0.56526  0.02481  Biso   1.000  H
  H376     1.0000 0.51206  0.25753  0.90011  Biso   1.000  H
  H377     1.0000 0.09777  0.96769  0.24156  Biso   1.000  H
  H378     1.0000 0.77480  0.55575  0.47999  Biso   1.000  H
  H379     1.0000 0.49436  0.75518  0.60679  Biso   1.000  H
  H380     1.0000 0.92952  0.47326  0.26600  Biso   1.000  H
  H381     1.0000 0.23490  0.06815  0.00106  Biso   1.000  H
  H382     1.0000 0.01149  0.75103  0.91438  Biso   1.000  H
  H383     1.0000 0.42700  0.47919  0.23403  Biso   1.000  H
  H384     1.0000 0.74519  0.06231  0.51593  Biso   1.000  H
  H385     1.0000 0.25043  0.47513  0.33909  Biso   1.000  H
  H386     1.0000 0.28723  0.15820  0.48716  Biso   1.000  H
  H387     1.0000 0.49321  0.28989  0.22213  Biso   1.000  H
  H388     1.0000 0.69341  0.43432  0.22587  Biso   1.000  H
  H389     1.0000 0.83059  0.19443  0.04795  Biso   1.000  H
  H390     1.0000 0.98452  0.25922  0.32588  Biso   1.000  H
  H391     1.0000 0.27583  0.94642  0.33618  Biso   1.000  H
  H392     1.0000 0.17081  0.70915  0.47454  Biso   1.000  H
  H393     1.0000 0.96919  0.75259  0.17506  Biso   1.000  H
  H394     1.0000 0.78216  0.94295  0.17198  Biso   1.000  H
  H395     1.0000 0.73852  0.64688  0.04189  Biso   1.000  H
  H396     1.0000 0.54971  0.79076  0.29459  Biso   1.000  H
  H397     1.0000 0.77498  0.51496  0.67024  Biso   1.000  H
  H398     1.0000 0.72517  0.80147  0.52464  Biso   1.000  H
  H399     1.0000 0.52318  0.65929  0.78933  Biso   1.000  H
  H400     1.0000 0.32265  0.50578  0.78837  Biso   1.000  H
  H401     1.0000 0.22717  0.79828  0.98781  Biso   1.000  H
  H402     1.0000 0.06719  0.65541  0.72098  Biso   1.000  H
  H403     1.0000 0.72074  0.92888  0.68625  Biso   1.000  H
  H404     1.0000 0.79584  0.29536  0.53620  Biso   1.000  H
  H405     1.0000 0.96643  0.19965  0.82815  Biso   1.000  H
  H406     1.0000 0.23813  0.01946  0.83678  Biso   1.000  H
  H407     1.0000 0.28583  0.30896  0.97078  Biso   1.000  H
  H408     1.0000 0.47476  0.16686  0.72440  Biso   1.000  H
  H409     1.0000 0.29398  0.47494  0.18595  Biso   1.000  H
  H410     1.0000 0.18954  0.25596  0.49342  Biso   1.000  H
  H411     1.0000 0.49195  0.18875  0.31906  Biso   1.000  H
  H412     1.0000 0.84801  0.44359  0.26726  Biso   1.000  H
  H413     1.0000 0.69091  0.25441  0.96532  Biso   1.000  H
  H414     1.0000 0.98664  0.19906  0.17171  Biso   1.000  H
  H415     1.0000 0.18168  0.93936  0.23424  Biso   1.000  H
  H416     1.0000 0.32107  0.75052  0.48984  Biso   1.000  H
  H417     1.0000 0.97710  0.64669  0.27875  Biso   1.000  H
  H418     1.0000 0.73780  0.93988  0.32565  Biso   1.000  H
  H419     1.0000 0.83285  0.75314  0.05268  Biso   1.000  H
  H420     1.0000 0.49727  0.63590  0.24369  Biso   1.000  H
  H421     1.0000 0.73744  0.50747  0.83374  Biso   1.000  H
  H422     1.0000 0.75916  0.63771  0.51236  Biso   1.000  H
  H423     1.0000 0.52980  0.76474  0.69152  Biso   1.000  H
  H424     1.0000 0.17310  0.48146  0.74929  Biso   1.000  H
  H425     1.0000 0.33450  0.70383  0.99507  Biso   1.000  H
  H426     1.0000 0.06317  0.75177  0.83433  Biso   1.000  H
  H427     1.0000 0.79079  0.99626  0.82523  Biso   1.000  H
  H428     1.0000 0.73202  0.15378  0.54856  Biso   1.000  H
  H429     1.0000 0.01942  0.30622  0.73316  Biso   1.000  H
  H430     1.0000 0.33853  0.95705  0.74077  Biso   1.000  H
  H431     1.0000 0.18878  0.19621  0.95426  Biso   1.000  H
  H432     1.0000 0.46792  0.28526  0.81116  Biso   1.000  H
  H433     1.0000 0.29141  0.01606  0.68183  Biso   1.000  H
  H434     1.0000 0.73484  0.30557  0.03497  Biso   1.000  H
  H435     1.0000 0.02684  0.70591  0.33130  Biso   1.000  H
  H436     1.0000 0.84538  0.94089  0.76394  Biso   1.000  H
  H437     1.0000 0.24009  0.31195  0.55173  Biso   1.000  H
  H438     1.0000 0.53688  0.69896  0.18203  Biso   1.000  H
  H439     1.0000 0.23529  0.44439  0.67931  Biso   1.000  H
  H440     1.0000 0.78370  0.79607  0.98418  Biso   1.000  H
  H441     1.0000 0.54763  0.12984  0.26574  Biso   1.000  H
  H442     1.0000 0.67868  0.45569  0.77091  Biso   1.000  H
  H443     1.0000 0.26715  0.81285  0.53900  Biso   1.000  H
  H444     1.0000 0.04982  0.15219  0.22813  Biso   1.000  H
  H445     1.0000 0.68449  0.00522  0.27972  Biso   1.000  H
  H446     1.0000 0.28092  0.64860  0.05020  Biso   1.000  H
  H447     1.0000 0.97340  0.24766  0.67545  Biso   1.000  H
  H448     1.0000 0.23505  0.00084  0.17807  Biso   1.000  H
  H449     1.0000 0.82509  0.69997  0.47770  Biso   1.000  H
  H450     1.0000 0.55894  0.29785  0.77827  Biso   1.000  H
  H451     1.0000 0.78875  0.49780  0.32125  Biso   1.000  H
  H452     1.0000 0.22972  0.15641  0.03177  Biso   1.000  H
  H453     1.0000 0.46588  0.81331  0.74118  Biso   1.000  H
  H454     1.0000 0.35039  0.52998  0.23935  Biso   1.000  H
  H455     1.0000 0.69837  0.19158  0.46584  Biso   1.000  H
  H456     1.0000 0.00946  0.80901  0.78220  Biso   1.000  H
  H457     1.0000 0.66677  0.74766  0.47443  Biso   1.000  H
  H458     1.0000 0.47843  0.71647  0.85199  Biso   1.000  H
  H459     1.0000 0.83449  0.46016  0.72529  Biso   1.000  H
  H460     1.0000 0.18053  0.75808  0.05623  Biso   1.000  H
  H461     1.0000 0.98878  0.70131  0.68841  Biso   1.000  H
  H462     1.0000 0.28863  0.42896  0.83238  Biso   1.000  H
  H463     1.0000 0.84375  0.23915  0.47250  Biso   1.000  H
  H464     1.0000 0.03666  0.15734  0.77271  Biso   1.000  H
  H465     1.0000 0.70809  0.02083  0.71008  Biso   1.000  H
  H466     1.0000 0.33874  0.24567  0.01602  Biso   1.000  H
  H467     1.0000 0.53455  0.21195  0.66683  Biso   1.000  H
  H468     1.0000 0.19088  0.95194  0.78265  Biso   1.000  H
  H469     1.0000 0.34250  0.20318  0.54507  Biso   1.000  H
  H470     1.0000 0.54515  0.23190  0.16292  Biso   1.000  H
  H471     1.0000 0.18767  0.52132  0.28655  Biso   1.000  H
  H472     1.0000 0.77665  0.14814  0.98232  Biso   1.000  H
  H473     1.0000 0.05552  0.29814  0.27786  Biso   1.000  H
  H474     1.0000 0.74180  0.49594  0.16905  Biso   1.000  H
  H475     1.0000 0.22319  0.65706  0.53674  Biso   1.000  H
  H476     1.0000 0.03010  0.80388  0.23318  Biso   1.000  H
  H477     1.0000 0.33804  0.99466  0.27861  Biso   1.000  H
  H478     1.0000 0.67347  0.71066  0.01015  Biso   1.000  H
  H479     1.0000 0.48158  0.74057  0.33977  Biso   1.000  H
  H480     1.0000 0.82517  0.01026  0.22509  Biso   1.000  H
  N1       1.0000 0.69184  0.14809  0.50257  Biso   1.000  N
  N2       1.0000 0.51261  0.64053  0.18836  Biso   1.000  N
  N3       1.0000 0.17870  0.46704  0.68895  Biso   1.000  N
  N4       1.0000 0.18371  0.15450  0.99391  Biso   1.000  N
  N5       1.0000 0.00523  0.65288  0.32607  Biso   1.000  N
  N6       1.0000 0.68398  0.48276  0.82539  Biso   1.000  N
  N7       1.0000 0.82002  0.64558  0.49678  Biso   1.000  N
  N8       1.0000 0.02005  0.15416  0.17802  Biso   1.000  N
  N9       1.0000 0.33656  0.98207  0.68675  Biso   1.000  N
  N10      1.0000 0.33051  0.65261  0.01798  Biso   1.000  N
  N11      1.0000 0.52195  0.13951  0.31864  Biso   1.000  N
  N12      1.0000 0.84026  0.96558  0.81986  Biso   1.000  N
  N13      1.0000 0.32093  0.80394  0.51350  Biso   1.000  N
  N14      1.0000 0.51682  0.31509  0.82020  Biso   1.000  N
  N15      1.0000 0.84287  0.46921  0.31864  Biso   1.000  N
  N16      1.0000 0.83021  0.79772  0.01520  Biso   1.000  N
  N17      1.0000 0.99608  0.30103  0.68243  Biso   1.000  N
  N18      1.0000 0.34190  0.50036  0.18697  Biso   1.000  N
  N19      1.0000 0.19140  0.30765  0.52184  Biso   1.000  N
  N20      1.0000 0.03332  0.80280  0.83134  Biso   1.000  N
  N21      1.0000 0.68698  0.97051  0.32818  Biso   1.000  N
  N22      1.0000 0.69059  0.30342  0.99628  Biso   1.000  N
  N23      1.0000 0.50000  0.81111  0.69320  Biso   1.000  N
  N24      1.0000 0.18381  0.96876  0.18309  Biso   1.000  N
  N25      1.0000 0.82756  0.49015  0.67289  Biso   1.000  N
  N26      1.0000 0.67548  0.79987  0.49950  Biso   1.000  N
  N27      1.0000 0.50092  0.66372  0.84071  Biso   1.000  N
  N28      1.0000 0.33112  0.46813  0.83120  Biso   1.000  N
  N29      1.0000 0.18194  0.80152  0.02337  Biso   1.000  N
  N30      1.0000 0.02277  0.65461  0.68022  Biso   1.000  N
  N31      1.0000 0.68734  0.97204  0.67795  Biso   1.000  N
  N32      1.0000 0.84083  0.29404  0.49999  Biso   1.000  N
  N33      1.0000 0.00438  0.15353  0.82438  Biso   1.000  N
  N34      1.0000 0.19068  0.98519  0.83269  Biso   1.000  N
  N35      1.0000 0.33512  0.30161  0.99855  Biso   1.000  N
  N36      1.0000 0.50421  0.16478  0.67318  Biso   1.000  N
  N37      1.0000 0.19557  0.49370  0.33716  Biso   1.000  N
  N38      1.0000 0.33816  0.15871  0.50817  Biso   1.000  N
  N39      1.0000 0.51855  0.28617  0.17087  Biso   1.000  N
  N40      1.0000 0.69287  0.46481  0.17479  Biso   1.000  N
  N41      1.0000 0.83013  0.14883  0.01012  Biso   1.000  N
  N42      1.0000 0.02331  0.29866  0.32644  Biso   1.000  N
  N43      1.0000 0.33033  0.97216  0.33198  Biso   1.000  N
  N44      1.0000 0.17629  0.65848  0.50241  Biso   1.000  N
  N45      1.0000 0.00142  0.80023  0.18080  Biso   1.000  N
  N46      1.0000 0.82608  0.97839  0.17470  Biso   1.000  N
  N47      1.0000 0.68417  0.65256  0.02314  Biso   1.000  N
  N48      1.0000 0.51374  0.79015  0.33905  Biso   1.000  N
  O1       1.0000 0.35437  0.51649  0.00203  Biso   1.000  O
  O2       1.0000 0.01321  0.31471  0.54707  Biso   1.000  O
  O3       1.0000 0.55004  0.96557  0.34822  Biso   1.000  O
  O4       1.0000 0.84768  0.51118  0.49280  Biso   1.000  O
  O5       1.0000 0.51816  0.32338  0.95460  Biso   1.000  O
  O6       1.0000 0.04994  0.97150  0.16595  Biso   1.000  O
  O7       1.0000 0.16253  0.02059  0.00376  Biso   1.000  O
  O8       1.0000 0.49397  0.82593  0.55905  Biso   1.000  O
  O9       1.0000 0.97605  0.47725  0.34238  Biso   1.000  O
  O10      1.0000 0.66648  0.01797  0.50952  Biso   1.000  O
  O11      1.0000 0.00890  0.82223  0.96548  Biso   1.000  O
  O12      1.0000 0.47457  0.45873  0.15887  Biso   1.000  O
  O13      1.0000 0.66581  0.43542  0.00217  Biso   1.000  O
  O14      1.0000 0.00368  0.63396  0.46260  Biso   1.000  O
  O15      1.0000 0.47090  0.98078  0.66218  Biso   1.000  O
  O16      1.0000 0.17008  0.44089  0.51538  Biso   1.000  O
  O17      1.0000 0.50381  0.62858  0.05513  Biso   1.000  O
  O18      1.0000 0.97164  0.97336  0.84178  Biso   1.000  O
  O19      1.0000 0.84972  0.93065  0.00473  Biso   1.000  O
  O20      1.0000 0.51551  0.12855  0.45542  Biso   1.000  O
  O21      1.0000 0.04497  0.46944  0.66228  Biso   1.000  O
  O22      1.0000 0.35054  0.93833  0.50678  Biso   1.000  O
  O23      1.0000 0.00986  0.12884  0.04268  Biso   1.000  O
  O24      1.0000 0.54728  0.49964  0.84242  Biso   1.000  O
  O25      1.0000 0.96534  0.97957  0.16192  Biso   1.000  O
  O26      1.0000 0.16246  0.93470  0.00653  Biso   1.000  O
  O27      1.0000 0.00069  0.13164  0.95878  Biso   1.000  O
  O28      1.0000 0.46501  0.96520  0.35157  Biso   1.000  O
  O29      1.0000 0.65975  0.93449  0.49804  Biso   1.000  O
  O30      1.0000 0.51254  0.13836  0.53782  Biso   1.000  O
  O31      1.0000 0.55846  0.46404  0.16075  Biso   1.000  O
  O32      1.0000 0.35972  0.43371  0.01773  Biso   1.000  O
  O33      1.0000 0.51236  0.62863  0.97220  Biso   1.000  O
  O34      1.0000 0.05762  0.48248  0.34666  Biso   1.000  O
  O35      1.0000 0.85781  0.42979  0.50419  Biso   1.000  O
  O36      1.0000 0.99677  0.63390  0.54518  Biso   1.000  O
  O37      1.0000 0.05609  0.98460  0.84393  Biso   1.000  O
  O38      1.0000 0.85298  0.01489  0.99465  Biso   1.000  O
  O39      1.0000 0.00304  0.82163  0.04891  Biso   1.000  O
  O40      1.0000 0.55212  0.98485  0.66236  Biso   1.000  O
  O41      1.0000 0.35182  0.02157  0.50448  Biso   1.000  O
  O42      1.0000 0.50264  0.81698  0.47308  Biso   1.000  O
  O43      1.0000 0.46564  0.47957  0.84421  Biso   1.000  O
  O44      1.0000 0.66598  0.51849  0.99821  Biso   1.000  O
  O45      1.0000 0.51346  0.31116  0.03717  Biso   1.000  O
  O46      1.0000 0.96291  0.48214  0.65830  Biso   1.000  O
  O47      1.0000 0.16234  0.52532  0.51131  Biso   1.000  O
  O48      1.0000 0.01914  0.32029  0.46340  Biso   1.000  O
  O49      1.0000 0.00370  0.93589  0.16314  Biso   1.000  O
  O50      1.0000 0.16665  0.98051  0.96344  Biso   1.000  O
  O51      1.0000 0.96544  0.13400  0.01294  Biso   1.000  O
  O52      1.0000 0.50946  0.92587  0.35198  Biso   1.000  O
  O53      1.0000 0.66413  0.96991  0.54586  Biso   1.000  O
  O54      1.0000 0.47080  0.13207  0.49591  Biso   1.000  O
  O55      1.0000 0.51685  0.42078  0.15814  Biso   1.000  O
  O56      1.0000 0.35414  0.47016  0.96602  Biso   1.000  O
  O57      1.0000 0.54939  0.62962  0.02127  Biso   1.000  O
  O58      1.0000 0.01695  0.43414  0.34580  Biso   1.000  O
  O59      1.0000 0.84934  0.47889  0.53960  Biso   1.000  O
  O60      1.0000 0.04062  0.63264  0.50569  Biso   1.000  O
  O61      1.0000 0.00716  0.01902  0.84320  Biso   1.000  O
  O62      1.0000 0.85222  0.97659  0.04105  Biso   1.000  O
  O63      1.0000 0.04954  0.82360  0.00719  Biso   1.000  O
  O64      1.0000 0.50728  0.02964  0.66349  Biso   1.000  O
  O65      1.0000 0.34938  0.97892  0.46542  Biso   1.000  O
  O66      1.0000 0.54093  0.82094  0.51781  Biso   1.000  O
  O67      1.0000 0.49628  0.52948  0.84645  Biso   1.000  O
  O68      1.0000 0.66526  0.48143  0.04133  Biso   1.000  O
  O69      1.0000 0.47251  0.31905  0.99757  Biso   1.000  O
  O70      1.0000 0.01028  0.52015  0.66180  Biso   1.000  O
  O71      1.0000 0.16555  0.48473  0.46955  Biso   1.000  O
  O72      1.0000 0.97485  0.31737  0.50839  Biso   1.000  O
  O73      1.0000 0.99806  0.43401  0.65941  Biso   1.000  O
  O74      1.0000 0.66730  0.97670  0.46204  Biso   1.000  O
  O75      1.0000 0.46434  0.63031  0.01309  Biso   1.000  O
  O76      1.0000 0.51754  0.44853  0.84162  Biso   1.000  O
  O77      1.0000 0.16049  0.98011  0.04812  Biso   1.000  O
  O78      1.0000 0.95499  0.63044  0.50366  Biso   1.000  O
  O79      1.0000 0.51210  0.94375  0.66746  Biso   1.000  O
  O80      1.0000 0.85709  0.46823  0.45626  Biso   1.000  O
  O81      1.0000 0.04871  0.13460  0.99546  Biso   1.000  O
  O82      1.0000 0.02342  0.93812  0.84054  Biso   1.000  O
  O83      1.0000 0.35564  0.48599  0.05020  Biso   1.000  O
  O84      1.0000 0.55638  0.13477  0.50387  Biso   1.000  O
  O85      1.0000 0.01615  0.51835  0.34386  Biso   1.000  O
  O86      1.0000 0.35243  0.98134  0.54922  Biso   1.000  O
  O87      1.0000 0.55465  0.31815  0.99405  Biso   1.000  O
  O88      1.0000 0.51607  0.50535  0.15899  Biso   1.000  O
  O89      1.0000 0.86021  0.96641  0.95812  Biso   1.000  O
  O90      1.0000 0.05915  0.32072  0.50846  Biso   1.000  O
  O91      1.0000 0.50859  0.00729  0.34826  Biso   1.000  O
  O92      1.0000 0.16648  0.48656  0.55650  Biso   1.000  O
  O93      1.0000 0.96454  0.81902  0.00593  Biso   1.000  O
  O94      1.0000 0.01193  0.01910  0.15994  Biso   1.000  O
  O95      1.0000 0.66496  0.47480  0.95920  Biso   1.000  O
  O96      1.0000 0.45812  0.81718  0.51249  Biso   1.000  O
  O97      1.0000 0.47400  0.18149  0.48931  Biso   1.000  O
  O98      1.0000 0.52005  0.42138  0.20711  Biso   1.000  O
  O99      1.0000 0.21436  0.47974  0.47356  Biso   1.000  O
  O100     1.0000 0.96393  0.18196  0.01541  Biso   1.000  O
  O101     1.0000 0.02701  0.43474  0.29811  Biso   1.000  O
  O102     1.0000 0.71456  0.48224  0.04105  Biso   1.000  O
  O103     1.0000 0.04139  0.68236  0.50909  Biso   1.000  O
  O104     1.0000 0.99842  0.93534  0.21149  Biso   1.000  O
  O105     1.0000 0.29950  0.98124  0.46507  Biso   1.000  O
  O106     1.0000 0.54924  0.67883  0.02607  Biso   1.000  O
  O107     1.0000 0.51024  0.92245  0.30247  Biso   1.000  O
  O108     1.0000 0.80358  0.97886  0.03917  Biso   1.000  O
  O109     1.0000 0.54265  0.77130  0.51499  Biso   1.000  O
  O110     1.0000 0.49468  0.53340  0.79939  Biso   1.000  O
  O111     1.0000 0.80149  0.47051  0.53731  Biso   1.000  O
  O112     1.0000 0.04869  0.77536  0.01199  Biso   1.000  O
  O113     1.0000 0.01070  0.51843  0.71085  Biso   1.000  O
  O114     1.0000 0.30647  0.46327  0.96822  Biso   1.000  O
  O115     1.0000 0.97874  0.26819  0.50497  Biso   1.000  O
  O116     1.0000 0.01543  0.02025  0.79377  Biso   1.000  O
  O117     1.0000 0.71215  0.96246  0.54328  Biso   1.000  O
  O118     1.0000 0.47012  0.27095  0.98940  Biso   1.000  O
  O119     1.0000 0.50940  0.03299  0.71198  Biso   1.000  O
  O120     1.0000 0.21486  0.98118  0.96613  Biso   1.000  O
  O121     1.0000 0.04398  0.46846  0.70993  Biso   1.000  O
  O122     1.0000 0.71479  0.01257  0.51070  Biso   1.000  O
  O123     1.0000 0.49842  0.67696  0.05969  Biso   1.000  O
  O124     1.0000 0.54937  0.50254  0.79373  Biso   1.000  O
  O125     1.0000 0.21263  0.02237  0.00723  Biso   1.000  O
  O126     1.0000 0.00441  0.68158  0.46326  Biso   1.000  O
  O127     1.0000 0.47201  0.98610  0.71181  Biso   1.000  O
  O128     1.0000 0.79889  0.51065  0.49478  Biso   1.000  O
  O129     1.0000 0.01567  0.17734  0.04435  Biso   1.000  O
  O130     1.0000 0.97831  0.97342  0.79319  Biso   1.000  O
  O131     1.0000 0.30544  0.51724  0.00532  Biso   1.000  O
  O132     1.0000 0.52453  0.17589  0.45214  Biso   1.000  O
  O133     1.0000 0.97927  0.47620  0.29371  Biso   1.000  O
  O134     1.0000 0.30236  0.94030  0.50692  Biso   1.000  O
  O135     1.0000 0.51382  0.27505  0.94936  Biso   1.000  O
  O136     1.0000 0.47311  0.46082  0.20767  Biso   1.000  O
  O137     1.0000 0.80168  0.93190  0.00161  Biso   1.000  O
  O138     1.0000 0.01562  0.26621  0.54989  Biso   1.000  O
  O139     1.0000 0.55080  0.96574  0.30009  Biso   1.000  O
  O140     1.0000 0.21736  0.44314  0.52038  Biso   1.000  O
  O141     1.0000 0.01320  0.77291  0.96319  Biso   1.000  O
  O142     1.0000 0.04555  0.97769  0.21512  Biso   1.000  O
  O143     1.0000 0.71560  0.43723  0.00117  Biso   1.000  O
  O144     1.0000 0.49696  0.77781  0.55687  Biso   1.000  O
  O145     1.0000 0.55681  0.46471  0.21006  Biso   1.000  O
  O146     1.0000 0.21163  0.52559  0.50579  Biso   1.000  O
  O147     1.0000 0.51182  0.18567  0.53741  Biso   1.000  O
  O148     1.0000 0.06438  0.47783  0.29744  Biso   1.000  O
  O149     1.0000 0.71462  0.51801  0.99545  Biso   1.000  O
  O150     1.0000 0.00211  0.17977  0.96031  Biso   1.000  O
  O151     1.0000 0.96207  0.97918  0.21043  Biso   1.000  O
  O152     1.0000 0.30360  0.02607  0.50978  Biso   1.000  O
  O153     1.0000 0.99598  0.68221  0.54619  Biso   1.000  O
  O154     1.0000 0.46601  0.96196  0.30202  Biso   1.000  O
  O155     1.0000 0.80389  0.01470  0.99399  Biso   1.000  O
  O156     1.0000 0.51550  0.67671  0.97747  Biso   1.000  O
  O157     1.0000 0.46380  0.48352  0.79574  Biso   1.000  O
  O158     1.0000 0.80991  0.42646  0.49731  Biso   1.000  O
  O159     1.0000 0.49806  0.76822  0.47503  Biso   1.000  O
  O160     1.0000 0.96184  0.48705  0.70691  Biso   1.000  O
  O161     1.0000 0.31156  0.43452  0.02272  Biso   1.000  O
  O162     1.0000 0.99883  0.77232  0.04530  Biso   1.000  O
  O163     1.0000 0.06075  0.98392  0.79535  Biso   1.000  O
  O164     1.0000 0.71015  0.93159  0.49684  Biso   1.000  O
  O165     1.0000 0.02142  0.27154  0.46247  Biso   1.000  O
  O166     1.0000 0.55492  0.99400  0.71151  Biso   1.000  O
  O167     1.0000 0.21047  0.93588  0.00695  Biso   1.000  O
  O168     1.0000 0.51702  0.26262  0.03426  Biso   1.000  O
  O169     1.0000 0.00712  0.01860  0.20870  Biso   1.000  O
  O170     1.0000 0.20986  0.97560  0.04845  Biso   1.000  O
  O171     1.0000 0.04585  0.18260  0.99414  Biso   1.000  O
  O172     1.0000 0.50154  0.00573  0.30112  Biso   1.000  O
  O173     1.0000 0.71703  0.97539  0.46120  Biso   1.000  O
  O174     1.0000 0.55849  0.18159  0.49157  Biso   1.000  O
  O175     1.0000 0.51490  0.50553  0.20779  Biso   1.000  O
  O176     1.0000 0.30753  0.48098  0.05345  Biso   1.000  O
  O177     1.0000 0.46744  0.67899  0.01457  Biso   1.000  O
  O178     1.0000 0.02272  0.51880  0.29564  Biso   1.000  O
  O179     1.0000 0.80960  0.46828  0.45239  Biso   1.000  O
  O180     1.0000 0.95441  0.68003  0.50307  Biso   1.000  O
  O181     1.0000 0.02926  0.93545  0.79263  Biso   1.000  O
  O182     1.0000 0.81026  0.97013  0.95637  Biso   1.000  O
  O183     1.0000 0.96587  0.77037  0.00335  Biso   1.000  O
  O184     1.0000 0.51599  0.94956  0.71530  Biso   1.000  O
  O185     1.0000 0.30428  0.97702  0.55173  Biso   1.000  O
  O186     1.0000 0.45661  0.77009  0.52307  Biso   1.000  O
  O187     1.0000 0.51721  0.45192  0.79268  Biso   1.000  O
  O188     1.0000 0.71309  0.47501  0.95636  Biso   1.000  O
  O189     1.0000 0.55498  0.26832  0.99015  Biso   1.000  O
  O190     1.0000 0.99765  0.43618  0.70812  Biso   1.000  O
  O191     1.0000 0.21443  0.49193  0.55610  Biso   1.000  O
  O192     1.0000 0.06058  0.27227  0.51109  Biso   1.000  O
