data_image0
_cell_length_a       46.7408
_cell_length_b       46.645
_cell_length_c       46.5598
_cell_angle_alpha    90
_cell_angle_beta     90
_cell_angle_gamma    90

_symmetry_space_group_name_H-M    "P 1"
_symmetry_int_tables_number       1

loop_
  _symmetry_equiv_pos_as_xyz
  'x, y, z'

loop_
  _atom_site_label
  _atom_site_occupancy
  _atom_site_fract_x
  _atom_site_fract_y
  _atom_site_fract_z
  _atom_site_thermal_displace_type
  _atom_site_B_iso_or_equiv
  _atom_site_type_symbol
  C1       1.0000 0.54480  0.98426  0.34841  Biso   1.000  C
  C2       1.0000 0.31170  0.52958  0.05586  Biso   1.000  C
  C3       1.0000 0.00543  0.30603  0.58711  Biso   1.000  C
  C4       1.0000 0.04182  0.97646  0.21465  Biso   1.000  C
  C5       1.0000 0.80840  0.52413  0.52487  Biso   1.000  C
  C6       1.0000 0.49805  0.30271  0.97436  Biso   1.000  C
  C7       1.0000 0.95547  0.47170  0.35091  Biso   1.000  C
  C8       1.0000 0.17173  0.03761  0.02951  Biso   1.000  C
  C9       1.0000 0.48529  0.79979  0.59045  Biso   1.000  C
  C10      1.0000 0.45132  0.47774  0.21846  Biso   1.000  C
  C11      1.0000 0.67412  0.02782  0.53388  Biso   1.000  C
  C12      1.0000 0.00602  0.79844  0.97619  Biso   1.000  C
  C13      1.0000 0.44909  0.97969  0.71549  Biso   1.000  C
  C14      1.0000 0.67241  0.42865  0.02525  Biso   1.000  C
  C15      1.0000 0.97460  0.65425  0.47573  Biso   1.000  C
  C16      1.0000 0.94318  0.97378  0.84635  Biso   1.000  C
  C17      1.0000 0.17782  0.43298  0.53680  Biso   1.000  C
  C18      1.0000 0.49580  0.65668  0.08989  Biso   1.000  C
  C19      1.0000 0.03579  0.48649  0.71209  Biso   1.000  C
  C20      1.0000 0.81805  0.92406  0.03365  Biso   1.000  C
  C21      1.0000 0.50130  0.16172  0.48013  Biso   1.000  C
  C22      1.0000 0.53090  0.48247  0.84818  Biso   1.000  C
  C23      1.0000 0.30724  0.92837  0.53732  Biso   1.000  C
  C24      1.0000 0.99511  0.15813  0.08728  Biso   1.000  C
  C25      1.0000 0.31493  0.03577  0.53845  Biso   1.000  C
  C26      1.0000 0.49082  0.29966  0.08409  Biso   1.000  C
  C27      1.0000 0.06364  0.47866  0.35469  Biso   1.000  C
  C28      1.0000 0.81178  0.03245  0.02534  Biso   1.000  C
  C29      1.0000 0.99188  0.29646  0.48042  Biso   1.000  C
  C30      1.0000 0.55969  0.47957  0.21345  Biso   1.000  C
  C31      1.0000 0.17209  0.54186  0.54758  Biso   1.000  C
  C32      1.0000 0.99720  0.79300  0.08637  Biso   1.000  C
  C33      1.0000 0.43359  0.98465  0.35295  Biso   1.000  C
  C34      1.0000 0.67824  0.53637  0.03162  Biso   1.000  C
  C35      1.0000 0.49298  0.80318  0.48231  Biso   1.000  C
  C36      1.0000 0.93453  0.97573  0.21305  Biso   1.000  C
  C37      1.0000 0.67474  0.92088  0.51659  Biso   1.000  C
  C38      1.0000 0.49291  0.65734  0.98151  Biso   1.000  C
  C39      1.0000 0.92633  0.48340  0.71082  Biso   1.000  C
  C40      1.0000 0.17576  0.93026  0.04504  Biso   1.000  C
  C41      1.0000 0.99782  0.66108  0.58110  Biso   1.000  C
  C42      1.0000 0.42251  0.47380  0.85666  Biso   1.000  C
  C43      1.0000 0.81319  0.41738  0.52464  Biso   1.000  C
  C44      1.0000 0.99506  0.16176  0.97819  Biso   1.000  C
  C45      1.0000 0.55639  0.98410  0.70800  Biso   1.000  C
  C46      1.0000 0.31024  0.42316  0.04261  Biso   1.000  C
  C47      1.0000 0.49628  0.16293  0.58881  Biso   1.000  C
  C48      1.0000 0.05014  0.99470  0.85363  Biso   1.000  C
  C49      1.0000 0.98642  0.03627  0.85220  Biso   1.000  C
  C50      1.0000 0.81202  0.97776  0.08158  Biso   1.000  C
  C51      1.0000 0.05400  0.79792  0.03391  Biso   1.000  C
  C52      1.0000 0.50189  0.03489  0.71281  Biso   1.000  C
  C53      1.0000 0.30611  0.98560  0.48164  Biso   1.000  C
  C54      1.0000 0.54026  0.79573  0.53780  Biso   1.000  C
  C55      1.0000 0.47632  0.53128  0.85222  Biso   1.000  C
  C56      1.0000 0.67791  0.47733  0.07980  Biso   1.000  C
  C57      1.0000 0.43945  0.29960  0.02208  Biso   1.000  C
  C58      1.0000 0.98065  0.53856  0.70960  Biso   1.000  C
  C59      1.0000 0.17588  0.49506  0.48973  Biso   1.000  C
  C60      1.0000 0.94666  0.30248  0.54227  Biso   1.000  C
  C61      1.0000 0.98876  0.92067  0.21074  Biso   1.000  C
  C62      1.0000 0.17533  0.97637  0.98322  Biso   1.000  C
  C63      1.0000 0.93814  0.16136  0.03153  Biso   1.000  C
  C64      1.0000 0.48961  0.92977  0.35365  Biso   1.000  C
  C65      1.0000 0.67727  0.97141  0.57771  Biso   1.000  C
  C66      1.0000 0.44389  0.16142  0.53638  Biso   1.000  C
  C67      1.0000 0.50617  0.42600  0.21412  Biso   1.000  C
  C68      1.0000 0.30452  0.48348  0.99595  Biso   1.000  C
  C69      1.0000 0.55056  0.66199  0.03345  Biso   1.000  C
  C70      1.0000 0.00441  0.42014  0.35164  Biso   1.000  C
  C71      1.0000 0.80768  0.47178  0.57941  Biso   1.000  C
  C72      1.0000 0.03803  0.65431  0.52056  Biso   1.000  C
  C73      1.0000 0.01213  0.52860  0.35556  Biso   1.000  C
  C74      1.0000 0.31287  0.97926  0.59222  Biso   1.000  C
  C75      1.0000 0.54724  0.29773  0.03204  Biso   1.000  C
  C76      1.0000 0.50406  0.53357  0.21782  Biso   1.000  C
  C77      1.0000 0.81254  0.97445  0.96946  Biso   1.000  C
  C78      1.0000 0.05264  0.30493  0.52841  Biso   1.000  C
  C79      1.0000 0.49320  0.03715  0.35224  Biso   1.000  C
  C80      1.0000 0.17488  0.47881  0.59794  Biso   1.000  C
  C81      1.0000 0.94764  0.79663  0.02759  Biso   1.000  C
  C82      1.0000 0.99163  0.03027  0.21379  Biso   1.000  C
  C83      1.0000 0.66574  0.48301  0.96940  Biso   1.000  C
  C84      1.0000 0.43352  0.80265  0.53244  Biso   1.000  C
  C85      1.0000 0.98348  0.43166  0.71457  Biso   1.000  C
  C86      1.0000 0.67046  0.98222  0.47102  Biso   1.000  C
  C87      1.0000 0.44034  0.65783  0.04016  Biso   1.000  C
  C88      1.0000 0.48449  0.42451  0.84955  Biso   1.000  C
  C89      1.0000 0.16977  0.99102  0.08971  Biso   1.000  C
  C90      1.0000 0.93202  0.65960  0.54032  Biso   1.000  C
  C91      1.0000 0.50437  0.92834  0.71156  Biso   1.000  C
  C92      1.0000 0.82046  0.46708  0.46988  Biso   1.000  C
  C93      1.0000 0.04541  0.15837  0.03069  Biso   1.000  C
  C94      1.0000 0.00717  0.93035  0.85064  Biso   1.000  C
  C95      1.0000 0.31579  0.46813  0.10447  Biso   1.000  C
  C96      1.0000 0.55088  0.15955  0.53929  Biso   1.000  C
  C97      1.0000 0.67327  0.06048  0.53500  Biso   1.000  C
  C98      1.0000 0.49620  0.65691  0.12076  Biso   1.000  C
  C99      1.0000 0.06804  0.48487  0.71512  Biso   1.000  C
  C100     1.0000 0.17201  0.06946  0.02919  Biso   1.000  C
  C101     1.0000 0.97184  0.65258  0.44470  Biso   1.000  C
  C102     1.0000 0.56275  0.48534  0.84642  Biso   1.000  C
  C103     1.0000 0.80733  0.55613  0.53004  Biso   1.000  C
  C104     1.0000 0.99338  0.15704  0.11932  Biso   1.000  C
  C105     1.0000 0.41635  0.97955  0.71446  Biso   1.000  C
  C106     1.0000 0.31007  0.56231  0.05717  Biso   1.000  C
  C107     1.0000 0.50611  0.16115  0.44850  Biso   1.000  C
  C108     1.0000 0.91201  0.97266  0.84560  Biso   1.000  C
  C109     1.0000 0.30745  0.89743  0.53458  Biso   1.000  C
  C110     1.0000 0.49924  0.30216  0.94318  Biso   1.000  C
  C111     1.0000 0.92341  0.46495  0.34889  Biso   1.000  C
  C112     1.0000 0.81973  0.89319  0.04051  Biso   1.000  C
  C113     1.0000 0.00773  0.30632  0.61859  Biso   1.000  C
  C114     1.0000 0.41970  0.46813  0.22208  Biso   1.000  C
  C115     1.0000 0.17975  0.40047  0.53822  Biso   1.000  C
  C116     1.0000 0.00632  0.80057  0.94421  Biso   1.000  C
  C117     1.0000 0.57650  0.98568  0.34623  Biso   1.000  C
  C118     1.0000 0.67413  0.39706  0.03020  Biso   1.000  C
  C119     1.0000 0.48994  0.79942  0.62377  Biso   1.000  C
  C120     1.0000 0.07288  0.98396  0.21247  Biso   1.000  C
  C121     1.0000 0.81235  0.97856  0.11339  Biso   1.000  C
  C122     1.0000 0.08655  0.79916  0.03218  Biso   1.000  C
  C123     1.0000 0.98322  0.06724  0.85171  Biso   1.000  C
  C124     1.0000 0.30583  0.99245  0.44919  Biso   1.000  C
  C125     1.0000 0.57210  0.79505  0.53551  Biso   1.000  C
  C126     1.0000 0.50526  0.06553  0.71094  Biso   1.000  C
  C127     1.0000 0.68181  0.47411  0.11166  Biso   1.000  C
  C128     1.0000 0.40826  0.30052  0.01588  Biso   1.000  C
  C129     1.0000 0.47799  0.56287  0.85198  Biso   1.000  C
  C130     1.0000 0.17944  0.49048  0.45925  Biso   1.000  C
  C131     1.0000 0.91388  0.30088  0.54591  Biso   1.000  C
  C132     1.0000 0.98199  0.57115  0.70913  Biso   1.000  C
  C133     1.0000 0.17715  0.97666  0.95139  Biso   1.000  C
  C134     1.0000 0.90647  0.16206  0.02857  Biso   1.000  C
  C135     1.0000 0.98935  0.88806  0.21169  Biso   1.000  C
  C136     1.0000 0.68068  0.97253  0.60889  Biso   1.000  C
  C137     1.0000 0.41188  0.16139  0.53395  Biso   1.000  C
  C138     1.0000 0.49259  0.89811  0.35244  Biso   1.000  C
  C139     1.0000 0.30300  0.48714  0.96408  Biso   1.000  C
  C140     1.0000 0.58310  0.66355  0.03360  Biso   1.000  C
  C141     1.0000 0.50833  0.39411  0.21167  Biso   1.000  C
  C142     1.0000 0.80512  0.48001  0.60996  Biso   1.000  C
  C143     1.0000 0.07034  0.65509  0.51590  Biso   1.000  C
  C144     1.0000 0.99991  0.38920  0.35205  Biso   1.000  C
  C145     1.0000 0.31759  0.46288  0.13610  Biso   1.000  C
  C146     1.0000 0.08510  0.30478  0.52713  Biso   1.000  C
  C147     1.0000 0.49638  0.06870  0.35088  Biso   1.000  C
  C148     1.0000 0.82168  0.46631  0.43729  Biso   1.000  C
  C149     1.0000 0.58006  0.30031  0.03379  Biso   1.000  C
  C150     1.0000 0.98903  0.06186  0.21560  Biso   1.000  C
  C151     1.0000 0.16886  0.99709  0.12122  Biso   1.000  C
  C152     1.0000 0.40175  0.80329  0.53105  Biso   1.000  C
  C153     1.0000 0.00835  0.55971  0.35576  Biso   1.000  C
  C154     1.0000 0.67139  0.98496  0.43854  Biso   1.000  C
  C155     1.0000 0.91369  0.79717  0.03000  Biso   1.000  C
  C156     1.0000 0.50550  0.56695  0.21750  Biso   1.000  C
  C157     1.0000 0.66109  0.47943  0.93863  Biso   1.000  C
  C158     1.0000 0.89912  0.65612  0.54168  Biso   1.000  C
  C159     1.0000 0.49698  0.89704  0.71373  Biso   1.000  C
  C160     1.0000 0.17369  0.47598  0.63053  Biso   1.000  C
  C161     1.0000 0.40719  0.65681  0.04017  Biso   1.000  C
  C162     1.0000 0.00791  0.89733  0.84886  Biso   1.000  C
  C163     1.0000 0.81284  0.97007  0.93870  Biso   1.000  C
  C164     1.0000 0.58288  0.15754  0.54522  Biso   1.000  C
  C165     1.0000 0.98536  0.39912  0.71384  Biso   1.000  C
  C166     1.0000 0.31538  0.97854  0.62449  Biso   1.000  C
  C167     1.0000 0.07614  0.15937  0.03054  Biso   1.000  C
  C168     1.0000 0.49202  0.39290  0.84913  Biso   1.000  C
  C169     1.0000 0.99384  0.79292  0.11839  Biso   1.000  C
  C170     1.0000 0.08373  0.99568  0.85339  Biso   1.000  C
  C171     1.0000 0.81139  0.06490  0.02269  Biso   1.000  C
  C172     1.0000 0.48957  0.80333  0.44978  Biso   1.000  C
  C173     1.0000 0.58879  0.98312  0.70632  Biso   1.000  C
  C174     1.0000 0.31481  0.06736  0.54293  Biso   1.000  C
  C175     1.0000 0.49572  0.29879  0.11617  Biso   1.000  C
  C176     1.0000 0.39158  0.47574  0.85945  Biso   1.000  C
  C177     1.0000 0.67862  0.56833  0.03478  Biso   1.000  C
  C178     1.0000 0.98960  0.29599  0.44846  Biso   1.000  C
  C179     1.0000 0.89348  0.47960  0.70928  Biso   1.000  C
  C180     1.0000 0.16918  0.57316  0.54651  Biso   1.000  C
  C181     1.0000 0.99562  0.16280  0.94587  Biso   1.000  C
  C182     1.0000 0.90301  0.97625  0.21285  Biso   1.000  C
  C183     1.0000 0.17477  0.89817  0.04488  Biso   1.000  C
  C184     1.0000 0.49576  0.16430  0.62061  Biso   1.000  C
  C185     1.0000 0.40232  0.98947  0.35412  Biso   1.000  C
  C186     1.0000 0.67355  0.88852  0.51900  Biso   1.000  C
  C187     1.0000 0.49269  0.65729  0.94884  Biso   1.000  C
  C188     1.0000 0.59271  0.47599  0.21169  Biso   1.000  C
  C189     1.0000 0.31198  0.39063  0.04100  Biso   1.000  C
  C190     1.0000 0.99793  0.66324  0.61263  Biso   1.000  C
  C191     1.0000 0.09478  0.48696  0.35551  Biso   1.000  C
  C192     1.0000 0.81464  0.38454  0.52646  Biso   1.000  C
  C193     1.0000 0.84159  0.97066  0.92428  Biso   1.000  C
  C194     1.0000 0.89993  0.82367  0.03603  Biso   1.000  C
  C195     1.0000 0.00706  0.88152  0.87568  Biso   1.000  C
  C196     1.0000 0.34345  0.97848  0.63823  Biso   1.000  C
  C197     1.0000 0.38533  0.82894  0.53341  Biso   1.000  C
  C198     1.0000 0.49656  0.87936  0.68764  Biso   1.000  C
  C199     1.0000 0.63272  0.48042  0.92346  Biso   1.000  C
  C200     1.0000 0.59535  0.32754  0.03092  Biso   1.000  C
  C201     1.0000 0.49096  0.37814  0.87555  Biso   1.000  C
  C202     1.0000 0.14565  0.47806  0.64403  Biso   1.000  C
  C203     1.0000 0.10200  0.33284  0.52842  Biso   1.000  C
  C204     1.0000 0.99034  0.38240  0.68683  Biso   1.000  C
  C205     1.0000 0.14217  0.99106  0.13631  Biso   1.000  C
  C206     1.0000 0.09387  0.13424  0.02820  Biso   1.000  C
  C207     1.0000 0.98770  0.07686  0.18825  Biso   1.000  C
  C208     1.0000 0.64458  0.98558  0.42316  Biso   1.000  C
  C209     1.0000 0.59696  0.13011  0.54251  Biso   1.000  C
  C210     1.0000 0.50015  0.08394  0.37769  Biso   1.000  C
  C211     1.0000 0.34540  0.46295  0.14922  Biso   1.000  C
  C212     1.0000 0.39005  0.62984  0.04527  Biso   1.000  C
  C213     1.0000 0.50299  0.58226  0.19003  Biso   1.000  C
  C214     1.0000 0.85027  0.46742  0.42096  Biso   1.000  C
  C215     1.0000 0.88395  0.62757  0.54008  Biso   1.000  C
  C216     1.0000 0.00008  0.57733  0.38008  Biso   1.000  C
  C217     1.0000 0.09923  0.99109  0.88022  Biso   1.000  C
  C218     1.0000 0.83781  0.08219  0.02099  Biso   1.000  C
  C219     1.0000 0.99187  0.81938  0.13387  Biso   1.000  C
  C220     1.0000 0.60442  0.98196  0.67853  Biso   1.000  C
  C221     1.0000 0.34237  0.08279  0.54079  Biso   1.000  C
  C222     1.0000 0.48890  0.82955  0.43335  Biso   1.000  C
  C223     1.0000 0.37753  0.48034  0.88799  Biso   1.000  C
  C224     1.0000 0.65100  0.58322  0.03373  Biso   1.000  C
  C225     1.0000 0.49871  0.32641  0.13259  Biso   1.000  C
  C226     1.0000 0.87870  0.47762  0.68224  Biso   1.000  C
  C227     1.0000 0.14155  0.58494  0.53804  Biso   1.000  C
  C228     1.0000 0.99233  0.32244  0.43229  Biso   1.000  C
  C229     1.0000 0.88914  0.97642  0.18401  Biso   1.000  C
  C230     1.0000 0.14860  0.88128  0.04017  Biso   1.000  C
  C231     1.0000 0.99236  0.13598  0.92964  Biso   1.000  C
  C232     1.0000 0.38558  0.99641  0.38089  Biso   1.000  C
  C233     1.0000 0.64457  0.87468  0.52308  Biso   1.000  C
  C234     1.0000 0.49414  0.13813  0.63623  Biso   1.000  C
  C235     1.0000 0.60880  0.47718  0.18369  Biso   1.000  C
  C236     1.0000 0.34012  0.37742  0.03335  Biso   1.000  C
  C237     1.0000 0.49136  0.62992  0.93349  Biso   1.000  C
  C238     1.0000 0.10841  0.48972  0.38290  Biso   1.000  C
  C239     1.0000 0.84261  0.37099  0.52811  Biso   1.000  C
  C240     1.0000 0.99692  0.63747  0.62981  Biso   1.000  C
  C241     1.0000 0.58020  0.48375  0.87251  Biso   1.000  C
  C242     1.0000 0.83332  0.57269  0.53342  Biso   1.000  C
  C243     1.0000 0.49163  0.82725  0.63880  Biso   1.000  C
  C244     1.0000 0.08713  0.48188  0.69071  Biso   1.000  C
  C245     1.0000 0.33693  0.57815  0.05579  Biso   1.000  C
  C246     1.0000 0.00614  0.82885  0.92875  Biso   1.000  C
  C247     1.0000 0.89574  0.97232  0.87258  Biso   1.000  C
  C248     1.0000 0.64577  0.07687  0.53792  Biso   1.000  C
  C249     1.0000 0.00433  0.33350  0.63596  Biso   1.000  C
  C250     1.0000 0.39917  0.97969  0.68652  Biso   1.000  C
  C251     1.0000 0.14501  0.08531  0.03073  Biso   1.000  C
  C252     1.0000 0.49799  0.32949  0.92686  Biso   1.000  C
  C253     1.0000 0.40008  0.46649  0.19604  Biso   1.000  C
  C254     1.0000 0.15289  0.38365  0.53553  Biso   1.000  C
  C255     1.0000 0.50508  0.13268  0.43197  Biso   1.000  C
  C256     1.0000 0.90624  0.46594  0.37663  Biso   1.000  C
  C257     1.0000 0.64798  0.37952  0.03256  Biso   1.000  C
  C258     1.0000 0.99316  0.12954  0.13672  Biso   1.000  C
  C259     1.0000 0.09037  0.98433  0.18561  Biso   1.000  C
  C260     1.0000 0.33435  0.88088  0.53438  Biso   1.000  C
  C261     1.0000 0.98100  0.62787  0.42729  Biso   1.000  C
  C262     1.0000 0.59294  0.97821  0.37141  Biso   1.000  C
  C263     1.0000 0.84789  0.87876  0.03892  Biso   1.000  C
  C264     1.0000 0.49979  0.63140  0.13778  Biso   1.000  C
  C265     1.0000 0.98761  0.08301  0.87864  Biso   1.000  C
  C266     1.0000 0.83896  0.97587  0.13004  Biso   1.000  C
  C267     1.0000 0.10150  0.82685  0.03277  Biso   1.000  C
  C268     1.0000 0.49921  0.08244  0.68485  Biso   1.000  C
  C269     1.0000 0.33316  0.99591  0.43276  Biso   1.000  C
  C270     1.0000 0.58890  0.82212  0.53356  Biso   1.000  C
  C271     1.0000 0.48215  0.57856  0.87871  Biso   1.000  C
  C272     1.0000 0.65624  0.47764  0.12940  Biso   1.000  C
  C273     1.0000 0.39204  0.32737  0.02109  Biso   1.000  C
  C274     1.0000 0.98929  0.58668  0.68214  Biso   1.000  C
  C275     1.0000 0.15451  0.48903  0.43992  Biso   1.000  C
  C276     1.0000 0.89672  0.32541  0.53659  Biso   1.000  C
  C277     1.0000 0.98838  0.87254  0.18444  Biso   1.000  C
  C278     1.0000 0.15127  0.98212  0.93459  Biso   1.000  C
  C279     1.0000 0.89004  0.13596  0.02531  Biso   1.000  C
  C280     1.0000 0.49042  0.88232  0.37942  Biso   1.000  C
  C281     1.0000 0.65492  0.97749  0.62589  Biso   1.000  C
  C282     1.0000 0.39555  0.13621  0.53562  Biso   1.000  C
  C283     1.0000 0.50552  0.37877  0.18258  Biso   1.000  C
  C284     1.0000 0.32963  0.48192  0.94747  Biso   1.000  C
  C285     1.0000 0.59894  0.63561  0.03586  Biso   1.000  C
  C286     1.0000 0.99709  0.37367  0.37925  Biso   1.000  C
  C287     1.0000 0.83016  0.47988  0.62914  Biso   1.000  C
  C288     1.0000 0.08787  0.62964  0.52092  Biso   1.000  C
  C289     1.0000 0.33344  0.84981  0.53297  Biso   1.000  C
  C290     1.0000 0.49999  0.32656  0.89557  Biso   1.000  C
  C291     1.0000 0.87464  0.46582  0.37016  Biso   1.000  C
  C292     1.0000 0.84738  0.84653  0.04144  Biso   1.000  C
  C293     1.0000 0.99995  0.33181  0.66665  Biso   1.000  C
  C294     1.0000 0.37003  0.45996  0.20006  Biso   1.000  C
  C295     1.0000 0.15417  0.35180  0.53328  Biso   1.000  C
  C296     1.0000 0.00511  0.82892  0.89690  Biso   1.000  C
  C297     1.0000 0.62428  0.98104  0.36961  Biso   1.000  C
  C298     1.0000 0.64804  0.34864  0.03323  Biso   1.000  C
  C299     1.0000 0.49426  0.82592  0.66975  Biso   1.000  C
  C300     1.0000 0.12143  0.98704  0.18871  Biso   1.000  C
  C301     1.0000 0.64883  0.10757  0.54088  Biso   1.000  C
  C302     1.0000 0.49931  0.63384  0.16926  Biso   1.000  C
  C303     1.0000 0.11885  0.48026  0.69373  Biso   1.000  C
  C304     1.0000 0.14621  0.11607  0.02747  Biso   1.000  C
  C305     1.0000 0.98727  0.62897  0.39777  Biso   1.000  C
  C306     1.0000 0.61066  0.48778  0.87161  Biso   1.000  C
  C307     1.0000 0.83164  0.60460  0.53303  Biso   1.000  C
  C308     1.0000 0.98984  0.12988  0.16848  Biso   1.000  C
  C309     1.0000 0.36799  0.98167  0.69036  Biso   1.000  C
  C310     1.0000 0.33632  0.61039  0.05207  Biso   1.000  C
  C311     1.0000 0.50234  0.13491  0.40018  Biso   1.000  C
  C312     1.0000 0.86450  0.97140  0.87096  Biso   1.000  C
  C313     1.0000 0.15927  0.48578  0.40894  Biso   1.000  C
  C314     1.0000 0.36320  0.13660  0.53493  Biso   1.000  C
  C315     1.0000 0.50687  0.34793  0.18476  Biso   1.000  C
  C316     1.0000 0.66022  0.47413  0.15950  Biso   1.000  C
  C317     1.0000 0.85870  0.13524  0.02337  Biso   1.000  C
  C318     1.0000 0.99614  0.34260  0.37925  Biso   1.000  C
  C319     1.0000 0.33211  0.99719  0.40137  Biso   1.000  C
  C320     1.0000 0.11836  0.63378  0.52554  Biso   1.000  C
  C321     1.0000 0.99035  0.84121  0.18609  Biso   1.000  C
  C322     1.0000 0.83694  0.97690  0.16167  Biso   1.000  C
  C323     1.0000 0.63004  0.63660  0.03750  Biso   1.000  C
  C324     1.0000 0.49291  0.85135  0.37958  Biso   1.000  C
  C325     1.0000 0.82682  0.47892  0.65933  Biso   1.000  C
  C326     1.0000 0.62106  0.82062  0.53104  Biso   1.000  C
  C327     1.0000 0.48412  0.61020  0.87849  Biso   1.000  C
  C328     1.0000 0.32777  0.48281  0.91554  Biso   1.000  C
  C329     1.0000 0.13257  0.82814  0.03859  Biso   1.000  C
  C330     1.0000 0.99311  0.61773  0.68147  Biso   1.000  C
  C331     1.0000 0.65699  0.97669  0.65728  Biso   1.000  C
  C332     1.0000 0.86570  0.32013  0.53214  Biso   1.000  C
  C333     1.0000 0.98925  0.11497  0.87626  Biso   1.000  C
  C334     1.0000 0.15147  0.98287  0.90198  Biso   1.000  C
  C335     1.0000 0.36055  0.32728  0.02035  Biso   1.000  C
  C336     1.0000 0.50514  0.11431  0.68686  Biso   1.000  C
  C337     1.0000 0.63331  0.48421  0.89248  Biso   1.000  C
  C338     1.0000 0.85176  0.62784  0.53555  Biso   1.000  C
  C339     1.0000 0.49519  0.84815  0.69162  Biso   1.000  C
  C340     1.0000 0.14305  0.47658  0.67536  Biso   1.000  C
  C341     1.0000 0.35818  0.63151  0.04864  Biso   1.000  C
  C342     1.0000 0.00585  0.85042  0.87474  Biso   1.000  C
  C343     1.0000 0.84257  0.97082  0.89230  Biso   1.000  C
  C344     1.0000 0.62847  0.12982  0.54245  Biso   1.000  C
  C345     1.0000 0.99570  0.35165  0.68870  Biso   1.000  C
  C346     1.0000 0.34564  0.98133  0.66906  Biso   1.000  C
  C347     1.0000 0.12507  0.13713  0.02708  Biso   1.000  C
  C348     1.0000 0.49773  0.34755  0.87429  Biso   1.000  C
  C349     1.0000 0.34688  0.45764  0.18048  Biso   1.000  C
  C350     1.0000 0.13236  0.33055  0.52960  Biso   1.000  C
  C351     1.0000 0.50145  0.11496  0.37719  Biso   1.000  C
  C352     1.0000 0.85129  0.46563  0.38963  Biso   1.000  C
  C353     1.0000 0.62571  0.32747  0.03375  Biso   1.000  C
  C354     1.0000 0.98958  0.10844  0.18971  Biso   1.000  C
  C355     1.0000 0.14269  0.99102  0.16701  Biso   1.000  C
  C356     1.0000 0.35424  0.82782  0.53289  Biso   1.000  C
  C357     1.0000 0.99528  0.60791  0.37709  Biso   1.000  C
  C358     1.0000 0.64645  0.98330  0.39138  Biso   1.000  C
  C359     1.0000 0.86825  0.82486  0.03879  Biso   1.000  C
  C360     1.0000 0.50029  0.61362  0.19067  Biso   1.000  C
  C361     1.0000 0.99151  0.13681  0.89767  Biso   1.000  C
  C362     1.0000 0.85746  0.97778  0.18487  Biso   1.000  C
  C363     1.0000 0.15280  0.85015  0.04161  Biso   1.000  C
  C364     1.0000 0.50015  0.13681  0.66704  Biso   1.000  C
  C365     1.0000 0.35391  0.99660  0.37885  Biso   1.000  C
  C366     1.0000 0.64390  0.84291  0.52808  Biso   1.000  C
  C367     1.0000 0.48651  0.63172  0.90118  Biso   1.000  C
  C368     1.0000 0.64019  0.47346  0.18236  Biso   1.000  C
  C369     1.0000 0.33882  0.34810  0.02537  Biso   1.000  C
  C370     1.0000 0.99570  0.63894  0.66021  Biso   1.000  C
  C371     1.0000 0.13941  0.48612  0.38533  Biso   1.000  C
  C372     1.0000 0.84265  0.34067  0.52907  Biso   1.000  C
  C373     1.0000 0.99123  0.81884  0.16498  Biso   1.000  C
  C374     1.0000 0.13068  0.98654  0.87979  Biso   1.000  C
  C375     1.0000 0.83622  0.11402  0.02259  Biso   1.000  C
  C376     1.0000 0.49106  0.82943  0.40179  Biso   1.000  C
  C377     1.0000 0.63653  0.97840  0.67973  Biso   1.000  C
  C378     1.0000 0.34210  0.11351  0.53671  Biso   1.000  C
  C379     1.0000 0.50543  0.32638  0.16279  Biso   1.000  C
  C380     1.0000 0.34622  0.48175  0.89054  Biso   1.000  C
  C381     1.0000 0.65185  0.61464  0.03652  Biso   1.000  C
  C382     1.0000 0.99258  0.32174  0.40113  Biso   1.000  C
  C383     1.0000 0.84767  0.47841  0.68067  Biso   1.000  C
  C384     1.0000 0.14149  0.61544  0.53288  Biso   1.000  C
  C385     1.0000 0.17366  0.13117  0.02551  Biso   1.000  C
  C386     1.0000 0.98995  0.15646  0.18433  Biso   1.000  C
  C387     1.0000 0.13631  0.99037  0.21568  Biso   1.000  C
  C388     1.0000 0.67627  0.12183  0.54245  Biso   1.000  C
  C389     1.0000 0.50261  0.16190  0.38470  Biso   1.000  C
  C390     1.0000 0.63928  0.98807  0.34216  Biso   1.000  C
  C391     1.0000 0.30981  0.62625  0.05187  Biso   1.000  C
  C392     1.0000 0.49652  0.66041  0.18458  Biso   1.000  C
  C393     1.0000 0.35634  0.45477  0.22835  Biso   1.000  C
  C394     1.0000 0.80432  0.61989  0.52929  Biso   1.000  C
  C395     1.0000 0.98588  0.65446  0.38036  Biso   1.000  C
  C396     1.0000 0.86221  0.46593  0.34156  Biso   1.000  C
  C397     1.0000 0.82052  0.83173  0.04410  Biso   1.000  C
  C398     1.0000 0.00646  0.80201  0.88019  Biso   1.000  C
  C399     1.0000 0.85124  0.96945  0.84301  Biso   1.000  C
  C400     1.0000 0.30717  0.83336  0.53278  Biso   1.000  C
  C401     1.0000 0.49336  0.79999  0.68631  Biso   1.000  C
  C402     1.0000 0.35343  0.98555  0.71713  Biso   1.000  C
  C403     1.0000 0.67474  0.33440  0.03449  Biso   1.000  C
  C404     1.0000 0.50531  0.29923  0.88069  Biso   1.000  C
  C405     1.0000 0.62581  0.49051  0.84469  Biso   1.000  C
  C406     1.0000 0.18158  0.33662  0.53301  Biso   1.000  C
  C407     1.0000 0.00224  0.30455  0.68164  Biso   1.000  C
  C408     1.0000 0.13158  0.48255  0.72285  Biso   1.000  C
  C409     1.0000 0.14634  0.98746  0.85287  Biso   1.000  C
  C410     1.0000 0.80886  0.12909  0.02387  Biso   1.000  C
  C411     1.0000 0.99283  0.79193  0.18161  Biso   1.000  C
  C412     1.0000 0.65195  0.97630  0.70563  Biso   1.000  C
  C413     1.0000 0.31454  0.12898  0.53720  Biso   1.000  C
  C414     1.0000 0.49441  0.80203  0.38617  Biso   1.000  C
  C415     1.0000 0.32868  0.48589  0.86499  Biso   1.000  C
  C416     1.0000 0.67798  0.63175  0.03955  Biso   1.000  C
  C417     1.0000 0.50948  0.29914  0.17805  Biso   1.000  C
  C418     1.0000 0.83118  0.47558  0.70701  Biso   1.000  C
  C419     1.0000 0.16714  0.63417  0.53305  Biso   1.000  C
  C420     1.0000 0.99183  0.29474  0.38589  Biso   1.000  C
  C421     1.0000 0.84059  0.98006  0.21172  Biso   1.000  C
  C422     1.0000 0.18010  0.83493  0.04563  Biso   1.000  C
  C423     1.0000 0.99088  0.16312  0.88168  Biso   1.000  C
  C424     1.0000 0.33886  0.99480  0.35145  Biso   1.000  C
  C425     1.0000 0.67046  0.82595  0.52665  Biso   1.000  C
  C426     1.0000 0.50698  0.16360  0.68308  Biso   1.000  C
  C427     1.0000 0.65619  0.46993  0.20862  Biso   1.000  C
  C428     1.0000 0.31204  0.33141  0.02500  Biso   1.000  C
  C429     1.0000 0.48668  0.65956  0.88620  Biso   1.000  C
  C430     1.0000 0.15627  0.48224  0.35958  Biso   1.000  C
  C431     1.0000 0.81739  0.32345  0.53064  Biso   1.000  C
  C432     1.0000 0.99235  0.66637  0.67516  Biso   1.000  C
  C433     1.0000 0.98798  0.13095  0.85000  Biso   1.000  C
  C434     1.0000 0.80982  0.98272  0.17619  Biso   1.000  C
  C435     1.0000 0.14827  0.80112  0.03950  Biso   1.000  C
  C436     1.0000 0.51472  0.12911  0.71291  Biso   1.000  C
  C437     1.0000 0.30613  0.99678  0.38569  Biso   1.000  C
  C438     1.0000 0.63587  0.79302  0.53353  Biso   1.000  C
  C439     1.0000 0.48011  0.62611  0.85211  Biso   1.000  C
  C440     1.0000 0.68671  0.46965  0.17368  Biso   1.000  C
  C441     1.0000 0.34477  0.30084  0.01651  Biso   1.000  C
  C442     1.0000 0.98894  0.63353  0.70883  Biso   1.000  C
  C443     1.0000 0.18644  0.48037  0.39563  Biso   1.000  C
  C444     1.0000 0.85135  0.29247  0.53682  Biso   1.000  C
  C445     1.0000 0.98863  0.82661  0.21353  Biso   1.000  C
  C446     1.0000 0.17834  0.97948  0.88661  Biso   1.000  C
  C447     1.0000 0.84223  0.16260  0.02468  Biso   1.000  C
  C448     1.0000 0.49828  0.83500  0.35202  Biso   1.000  C
  C449     1.0000 0.68375  0.97238  0.67303  Biso   1.000  C
  C450     1.0000 0.34741  0.16293  0.53204  Biso   1.000  C
  C451     1.0000 0.50906  0.33158  0.21208  Biso   1.000  C
  C452     1.0000 0.30020  0.48764  0.90202  Biso   1.000  C
  C453     1.0000 0.64564  0.66317  0.03764  Biso   1.000  C
  C454     1.0000 0.99688  0.32666  0.35347  Biso   1.000  C
  C455     1.0000 0.79911  0.47953  0.67320  Biso   1.000  C
  C456     1.0000 0.13222  0.66184  0.52378  Biso   1.000  C
  C457     1.0000 0.99738  0.62231  0.34994  Biso   1.000  C
  C458     1.0000 0.31964  0.98557  0.68473  Biso   1.000  C
  C459     1.0000 0.64108  0.30133  0.03695  Biso   1.000  C
  C460     1.0000 0.49698  0.62815  0.21742  Biso   1.000  C
  C461     1.0000 0.81698  0.96826  0.87588  Biso   1.000  C
  C462     1.0000 0.14704  0.30371  0.52783  Biso   1.000  C
  C463     1.0000 0.49962  0.13065  0.34988  Biso   1.000  C
  C464     1.0000 0.16889  0.47764  0.69463  Biso   1.000  C
  C465     1.0000 0.85060  0.79808  0.03596  Biso   1.000  C
  C466     1.0000 0.99174  0.12426  0.21668  Biso   1.000  C
  C467     1.0000 0.66060  0.48633  0.87475  Biso   1.000  C
  C468     1.0000 0.33884  0.80018  0.53261  Biso   1.000  C
  C469     1.0000 0.99466  0.33628  0.71422  Biso   1.000  C
  C470     1.0000 0.67268  0.98680  0.37538  Biso   1.000  C
  C471     1.0000 0.34427  0.65874  0.04725  Biso   1.000  C
  C472     1.0000 0.50326  0.33130  0.84806  Biso   1.000  C
  C473     1.0000 0.16856  0.99451  0.18266  Biso   1.000  C
  C474     1.0000 0.83473  0.65415  0.53599  Biso   1.000  C
  C475     1.0000 0.49566  0.83349  0.71920  Biso   1.000  C
  C476     1.0000 0.82564  0.46476  0.37207  Biso   1.000  C
  C477     1.0000 0.14021  0.16443  0.02630  Biso   1.000  C
  C478     1.0000 0.00714  0.83609  0.84708  Biso   1.000  C
  C479     1.0000 0.32082  0.45334  0.19831  Biso   1.000  C
  C480     1.0000 0.64557  0.15565  0.54443  Biso   1.000  C
  C481     1.0000 0.35597  0.77362  0.52971  Biso   1.000  C
  C482     1.0000 0.50560  0.34714  0.82047  Biso   1.000  C
  C483     1.0000 0.79709  0.46770  0.38647  Biso   1.000  C
  C484     1.0000 0.86424  0.77107  0.02749  Biso   1.000  C
  C485     1.0000 0.98783  0.35162  0.74123  Biso   1.000  C
  C486     1.0000 0.29217  0.45441  0.18421  Biso   1.000  C
  C487     1.0000 0.13084  0.27657  0.52579  Biso   1.000  C
  C488     1.0000 0.00982  0.85125  0.81970  Biso   1.000  C
  C489     1.0000 0.69957  0.98707  0.39028  Biso   1.000  C
  C490     1.0000 0.62623  0.27378  0.04434  Biso   1.000  C
  C491     1.0000 0.49492  0.85153  0.74503  Biso   1.000  C
  C492     1.0000 0.19616  0.99888  0.16808  Biso   1.000  C
  C493     1.0000 0.63009  0.18285  0.54748  Biso   1.000  C
  C494     1.0000 0.50037  0.61426  0.24496  Biso   1.000  C
  C495     1.0000 0.19865  0.47530  0.67946  Biso   1.000  C
  C496     1.0000 0.12128  0.19007  0.02877  Biso   1.000  C
  C497     1.0000 0.00785  0.60580  0.32549  Biso   1.000  C
  C498     1.0000 0.68804  0.48391  0.88938  Biso   1.000  C
  C499     1.0000 0.85150  0.68284  0.53960  Biso   1.000  C
  C500     1.0000 0.98965  0.10787  0.24353  Biso   1.000  C
  C501     1.0000 0.29035  0.98523  0.67152  Biso   1.000  C
  C502     1.0000 0.36193  0.68660  0.04640  Biso   1.000  C
  C503     1.0000 0.49639  0.11495  0.32247  Biso   1.000  C
  C504     1.0000 0.78993  0.96892  0.89096  Biso   1.000  C
  C505     1.0000 0.60890  0.49387  0.81892  Biso   1.000  C
  C506     1.0000 0.77725  0.60182  0.52614  Biso   1.000  C
  C507     1.0000 0.48871  0.77200  0.67227  Biso   1.000  C
  C508     1.0000 0.11122  0.48582  0.74773  Biso   1.000  C
  C509     1.0000 0.28241  0.61006  0.05487  Biso   1.000  C
  C510     1.0000 0.00355  0.77521  0.89642  Biso   1.000  C
  C511     1.0000 0.86696  0.97112  0.81426  Biso   1.000  C
  C512     1.0000 0.70408  0.10527  0.53938  Biso   1.000  C
  C513     1.0000 0.00908  0.27835  0.66528  Biso   1.000  C
  C514     1.0000 0.37018  0.98723  0.74367  Biso   1.000  C
  C515     1.0000 0.20059  0.11624  0.02416  Biso   1.000  C
  C516     1.0000 0.50636  0.27259  0.89732  Biso   1.000  C
  C517     1.0000 0.37589  0.45302  0.25272  Biso   1.000  C
  C518     1.0000 0.20815  0.35398  0.53565  Biso   1.000  C
  C519     1.0000 0.50697  0.18986  0.40216  Biso   1.000  C
  C520     1.0000 0.87989  0.46161  0.31630  Biso   1.000  C
  C521     1.0000 0.70330  0.35053  0.03310  Biso   1.000  C
  C522     1.0000 0.99148  0.18276  0.16786  Biso   1.000  C
  C523     1.0000 0.11951  0.99420  0.24188  Biso   1.000  C
  C524     1.0000 0.27949  0.84897  0.53590  Biso   1.000  C
  C525     1.0000 0.97582  0.68014  0.39533  Biso   1.000  C
  C526     1.0000 0.62150  0.99168  0.31537  Biso   1.000  C
  C527     1.0000 0.79287  0.84681  0.04907  Biso   1.000  C
  C528     1.0000 0.49613  0.68675  0.16624  Biso   1.000  C
  C529     1.0000 0.78184  0.11240  0.02555  Biso   1.000  C
  C530     1.0000 0.99439  0.76360  0.16495  Biso   1.000  C
  C531     1.0000 0.13129  0.99185  0.82638  Biso   1.000  C
  C532     1.0000 0.28736  0.11278  0.54114  Biso   1.000  C
  C533     1.0000 0.49234  0.77519  0.40272  Biso   1.000  C
  C534     1.0000 0.63716  0.97905  0.73357  Biso   1.000  C
  C535     1.0000 0.70639  0.61523  0.04078  Biso   1.000  C
  C536     1.0000 0.50362  0.27223  0.16221  Biso   1.000  C
  C537     1.0000 0.34302  0.48452  0.83747  Biso   1.000  C
  C538     1.0000 0.19340  0.62180  0.54270  Biso   1.000  C
  C539     1.0000 0.98859  0.26799  0.40254  Biso   1.000  C
  C540     1.0000 0.84597  0.47753  0.73491  Biso   1.000  C
  C541     1.0000 0.20575  0.85236  0.05007  Biso   1.000  C
  C542     1.0000 0.99614  0.18968  0.89844  Biso   1.000  C
  C543     1.0000 0.85521  0.97965  0.23947  Biso   1.000  C
  C544     1.0000 0.69718  0.83938  0.51791  Biso   1.000  C
  C545     1.0000 0.50362  0.19119  0.66844  Biso   1.000  C
  C546     1.0000 0.35453  0.99005  0.32486  Biso   1.000  C
  C547     1.0000 0.28508  0.34404  0.03345  Biso   1.000  C
  C548     1.0000 0.49265  0.68604  0.90236  Biso   1.000  C
  C549     1.0000 0.64035  0.47062  0.23697  Biso   1.000  C
  C550     1.0000 0.78938  0.33607  0.52624  Biso   1.000  C
  C551     1.0000 0.99339  0.69282  0.65833  Biso   1.000  C
  C552     1.0000 0.14337  0.48185  0.33130  Biso   1.000  C
  C553     1.0000 0.98488  0.11439  0.82373  Biso   1.000  C
  C554     1.0000 0.78209  0.98663  0.16052  Biso   1.000  C
  C555     1.0000 0.13276  0.77346  0.03546  Biso   1.000  C
  C556     1.0000 0.52311  0.11169  0.73751  Biso   1.000  C
  C557     1.0000 0.27881  0.99712  0.40281  Biso   1.000  C
  C558     1.0000 0.61860  0.76570  0.53970  Biso   1.000  C
  C559     1.0000 0.47557  0.61093  0.82461  Biso   1.000  C
  C560     1.0000 0.71284  0.46480  0.15660  Biso   1.000  C
  C561     1.0000 0.36049  0.27443  0.00702  Biso   1.000  C
  C562     1.0000 0.98100  0.61834  0.73577  Biso   1.000  C
  C563     1.0000 0.21286  0.48137  0.41528  Biso   1.000  C
  C564     1.0000 0.86847  0.26947  0.54682  Biso   1.000  C
  C565     1.0000 0.98657  0.84263  0.23994  Biso   1.000  C
  C566     1.0000 0.20524  0.97280  0.90477  Biso   1.000  C
  C567     1.0000 0.85867  0.18884  0.03011  Biso   1.000  C
  C568     1.0000 0.49848  0.84983  0.32410  Biso   1.000  C
  C569     1.0000 0.71019  0.96750  0.65513  Biso   1.000  C
  C570     1.0000 0.36523  0.19042  0.52894  Biso   1.000  C
  C571     1.0000 0.51202  0.34731  0.23828  Biso   1.000  C
  C572     1.0000 0.27405  0.49378  0.91954  Biso   1.000  C
  C573     1.0000 0.63046  0.69070  0.03456  Biso   1.000  C
  C574     1.0000 0.00190  0.34078  0.32604  Biso   1.000  C
  C575     1.0000 0.77340  0.47808  0.65631  Biso   1.000  C
  C576     1.0000 0.11656  0.68732  0.51599  Biso   1.000  C
  C577     1.0000 0.29101  0.45809  0.15300  Biso   1.000  C
  C578     1.0000 0.09957  0.27757  0.52516  Biso   1.000  C
  C579     1.0000 0.49527  0.08407  0.32313  Biso   1.000  C
  C580     1.0000 0.79575  0.46631  0.41867  Biso   1.000  C
  C581     1.0000 0.59561  0.27346  0.03979  Biso   1.000  C
  C582     1.0000 0.98990  0.07654  0.24311  Biso   1.000  C
  C583     1.0000 0.19524  0.00337  0.13744  Biso   1.000  C
  C584     1.0000 0.38715  0.77658  0.52929  Biso   1.000  C
  C585     1.0000 0.01366  0.57542  0.33009  Biso   1.000  C
  C586     1.0000 0.69885  0.98516  0.42223  Biso   1.000  C
  C587     1.0000 0.89602  0.77058  0.02601  Biso   1.000  C
  C588     1.0000 0.50453  0.58322  0.24447  Biso   1.000  C
  C589     1.0000 0.68762  0.48243  0.92030  Biso   1.000  C
  C590     1.0000 0.88306  0.68194  0.54144  Biso   1.000  C
  C591     1.0000 0.49651  0.88345  0.74251  Biso   1.000  C
  C592     1.0000 0.20071  0.47365  0.64786  Biso   1.000  C
  C593     1.0000 0.39399  0.68538  0.04199  Biso   1.000  C
  C594     1.0000 0.00912  0.88279  0.82057  Biso   1.000  C
  C595     1.0000 0.78700  0.96970  0.92204  Biso   1.000  C
  C596     1.0000 0.59970  0.18374  0.54963  Biso   1.000  C
  C597     1.0000 0.98427  0.38224  0.74176  Biso   1.000  C
  C598     1.0000 0.28908  0.98127  0.64097  Biso   1.000  C
  C599     1.0000 0.09075  0.18849  0.03224  Biso   1.000  C
  C600     1.0000 0.49980  0.37747  0.82224  Biso   1.000  C
  C601     1.0000 0.20482  0.97228  0.93498  Biso   1.000  C
  C602     1.0000 0.89002  0.18920  0.03091  Biso   1.000  C
  C603     1.0000 0.98611  0.87418  0.23991  Biso   1.000  C
  C604     1.0000 0.70937  0.96888  0.62406  Biso   1.000  C
  C605     1.0000 0.39773  0.18885  0.53072  Biso   1.000  C
  C606     1.0000 0.49876  0.88141  0.32596  Biso   1.000  C
  C607     1.0000 0.27653  0.49488  0.95035  Biso   1.000  C
  C608     1.0000 0.59926  0.68996  0.03286  Biso   1.000  C
  C609     1.0000 0.51056  0.37799  0.23761  Biso   1.000  C
  C610     1.0000 0.77617  0.47963  0.62455  Biso   1.000  C
  C611     1.0000 0.08476  0.68302  0.51084  Biso   1.000  C
  C612     1.0000 0.00172  0.37194  0.32427  Biso   1.000  C
  C613     1.0000 0.78397  0.98247  0.12838  Biso   1.000  C
  C614     1.0000 0.10047  0.77241  0.03265  Biso   1.000  C
  C615     1.0000 0.98167  0.08211  0.82399  Biso   1.000  C
  C616     1.0000 0.27901  0.99402  0.43497  Biso   1.000  C
  C617     1.0000 0.58723  0.76803  0.54105  Biso   1.000  C
  C618     1.0000 0.51695  0.08113  0.73766  Biso   1.000  C
  C619     1.0000 0.70944  0.46808  0.12425  Biso   1.000  C
  C620     1.0000 0.39190  0.27464  0.00698  Biso   1.000  C
  C621     1.0000 0.47586  0.58000  0.82437  Biso   1.000  C
  C622     1.0000 0.20825  0.48670  0.44627  Biso   1.000  C
  C623     1.0000 0.89935  0.27339  0.55361  Biso   1.000  C
  C624     1.0000 0.97696  0.58661  0.73609  Biso   1.000  C
  C625     1.0000 0.99854  0.18894  0.93040  Biso   1.000  C
  C626     1.0000 0.88721  0.97720  0.24030  Biso   1.000  C
  C627     1.0000 0.20382  0.88382  0.04845  Biso   1.000  C
  C628     1.0000 0.49819  0.19123  0.63722  Biso   1.000  C
  C629     1.0000 0.38520  0.98485  0.32793  Biso   1.000  C
  C630     1.0000 0.69881  0.87096  0.51503  Biso   1.000  C
  C631     1.0000 0.49488  0.68476  0.93300  Biso   1.000  C
  C632     1.0000 0.60888  0.47354  0.23798  Biso   1.000  C
  C633     1.0000 0.28457  0.37457  0.04115  Biso   1.000  C
  C634     1.0000 0.99488  0.69152  0.62672  Biso   1.000  C
  C635     1.0000 0.11226  0.48468  0.32888  Biso   1.000  C
  C636     1.0000 0.78849  0.36643  0.52211  Biso   1.000  C
  C637     1.0000 0.99558  0.76514  0.13343  Biso   1.000  C
  C638     1.0000 0.10040  0.99610  0.82713  Biso   1.000  C
  C639     1.0000 0.78312  0.08074  0.02404  Biso   1.000  C
  C640     1.0000 0.49214  0.77621  0.43355  Biso   1.000  C
  C641     1.0000 0.60535  0.98042  0.73337  Biso   1.000  C
  C642     1.0000 0.28708  0.08163  0.54452  Biso   1.000  C
  C643     1.0000 0.49833  0.27113  0.13221  Biso   1.000  C
  C644     1.0000 0.37351  0.47714  0.83393  Biso   1.000  C
  C645     1.0000 0.70618  0.58428  0.03870  Biso   1.000  C
  C646     1.0000 0.98567  0.26870  0.43381  Biso   1.000  C
  C647     1.0000 0.87696  0.47923  0.73539  Biso   1.000  C
  C648     1.0000 0.19423  0.59133  0.54916  Biso   1.000  C
  C649     1.0000 0.96926  0.67932  0.42792  Biso   1.000  C
  C650     1.0000 0.40256  0.98555  0.74179  Biso   1.000  C
  C651     1.0000 0.70311  0.38194  0.02993  Biso   1.000  C
  C652     1.0000 0.49351  0.68454  0.13534  Biso   1.000  C
  C653     1.0000 0.89776  0.97295  0.81633  Biso   1.000  C
  C654     1.0000 0.20673  0.38434  0.53960  Biso   1.000  C
  C655     1.0000 0.50870  0.18785  0.43374  Biso   1.000  C
  C656     1.0000 0.07975  0.48669  0.74459  Biso   1.000  C
  C657     1.0000 0.79209  0.87772  0.04681  Biso   1.000  C
  C658     1.0000 0.99204  0.18332  0.13652  Biso   1.000  C
  C659     1.0000 0.57723  0.49206  0.81929  Biso   1.000  C
  C660     1.0000 0.28023  0.88076  0.53682  Biso   1.000  C
  C661     1.0000 0.01186  0.27952  0.63408  Biso   1.000  C
  C662     1.0000 0.58983  0.99198  0.31781  Biso   1.000  C
  C663     1.0000 0.28222  0.57862  0.05843  Biso   1.000  C
  C664     1.0000 0.50306  0.27435  0.92833  Biso   1.000  C
  C665     1.0000 0.08845  0.98967  0.24072  Biso   1.000  C
  C666     1.0000 0.77945  0.57080  0.52778  Biso   1.000  C
  C667     1.0000 0.48896  0.77111  0.64063  Biso   1.000  C
  C668     1.0000 0.91093  0.46076  0.32052  Biso   1.000  C
  C669     1.0000 0.20022  0.08496  0.02723  Biso   1.000  C
  C670     1.0000 0.00225  0.77448  0.92738  Biso   1.000  C
  C671     1.0000 0.40667  0.46203  0.24964  Biso   1.000  C
  C672     1.0000 0.70181  0.07371  0.53525  Biso   1.000  C
  C673     1.0000 0.19263  0.98196  0.84035  Biso   1.000  C
  C674     1.0000 0.79515  0.17571  0.02666  Biso   1.000  C
  C675     1.0000 0.99083  0.78078  0.22764  Biso   1.000  C
  C676     1.0000 0.69446  0.97052  0.72179  Biso   1.000  C
  C677     1.0000 0.30231  0.17746  0.53412  Biso   1.000  C
  C678     1.0000 0.49806  0.78667  0.34017  Biso   1.000  C
  C679     1.0000 0.28327  0.49059  0.85572  Biso   1.000  C
  C680     1.0000 0.69196  0.67804  0.04184  Biso   1.000  C
  C681     1.0000 0.50869  0.28540  0.22381  Biso   1.000  C
  C682     1.0000 0.78190  0.47698  0.71945  Biso   1.000  C
  C683     1.0000 0.17956  0.68088  0.52787  Biso   1.000  C
  C684     1.0000 0.99565  0.27886  0.34020  Biso   1.000  C
  C685     1.0000 0.79326  0.98653  0.22089  Biso   1.000  C
  C686     1.0000 0.19478  0.78735  0.04635  Biso   1.000  C
  C687     1.0000 0.99040  0.17831  0.83288  Biso   1.000  C
  C688     1.0000 0.29207  0.99708  0.33834  Biso   1.000  C
  C689     1.0000 0.68253  0.77807  0.52814  Biso   1.000  C
  C690     1.0000 0.51726  0.17433  0.73056  Biso   1.000  C
  C691     1.0000 0.70263  0.46392  0.22039  Biso   1.000  C
  C692     1.0000 0.29798  0.28539  0.01688  Biso   1.000  C
  C693     1.0000 0.48162  0.67426  0.83917  Biso   1.000  C
  C694     1.0000 0.20185  0.47069  0.34871  Biso   1.000  C
  C695     1.0000 0.80370  0.27801  0.54015  Biso   1.000  C
  C696     1.0000 0.99179  0.68103  0.72135  Biso   1.000  C
  C697     1.0000 0.68547  0.98882  0.32817  Biso   1.000  C
  C698     1.0000 0.29845  0.67442  0.04865  Biso   1.000  C
  C699     1.0000 0.99808  0.29039  0.72690  Biso   1.000  C
  C700     1.0000 0.18261  0.99610  0.22920  Biso   1.000  C
  C701     1.0000 0.78678  0.66652  0.53109  Biso   1.000  C
  C702     1.0000 0.51021  0.28408  0.83371  Biso   1.000  C
  C703     1.0000 0.81793  0.46664  0.32386  Biso   1.000  C
  C704     1.0000 0.18713  0.17898  0.02345  Biso   1.000  C
  C705     1.0000 0.49369  0.78744  0.73334  Biso   1.000  C
  C706     1.0000 0.30800  0.45087  0.24477  Biso   1.000  C
  C707     1.0000 0.69337  0.16841  0.54337  Biso   1.000  C
  C708     1.0000 0.00561  0.79034  0.83119  Biso   1.000  C
  C709     1.0000 0.30702  0.98784  0.73402  Biso   1.000  C
  C710     1.0000 0.68766  0.28864  0.03627  Biso   1.000  C
  C711     1.0000 0.99230  0.66903  0.33468  Biso   1.000  C
  C712     1.0000 0.80315  0.96723  0.82776  Biso   1.000  C
  C713     1.0000 0.19330  0.28809  0.53387  Biso   1.000  C
  C714     1.0000 0.49287  0.67397  0.23242  Biso   1.000  C
  C715     1.0000 0.17784  0.48245  0.74163  Biso   1.000  C
  C716     1.0000 0.80463  0.78550  0.03662  Biso   1.000  C
  C717     1.0000 0.50463  0.17819  0.33739  Biso   1.000  C
  C718     1.0000 0.67205  0.48872  0.82852  Biso   1.000  C
  C719     1.0000 0.29046  0.78723  0.52906  Biso   1.000  C
  C720     1.0000 0.99225  0.17084  0.23071  Biso   1.000  C
  C721     1.0000 0.51882  0.78522  0.31703  Biso   1.000  C
  C722     1.0000 0.28473  0.50629  0.82857  Biso   1.000  C
  C723     1.0000 0.77383  0.28154  0.55010  Biso   1.000  C
  C724     1.0000 0.97278  0.75470  0.22554  Biso   1.000  C
  C725     1.0000 0.75779  0.49583  0.71553  Biso   1.000  C
  C726     1.0000 0.26891  0.29147  0.00737  Biso   1.000  C
  C727     1.0000 0.98002  0.28139  0.31338  Biso   1.000  C
  C728     1.0000 0.22262  0.99358  0.84810  Biso   1.000  C
  C729     1.0000 0.71307  0.78234  0.54032  Biso   1.000  C
  C730     1.0000 0.49340  0.28782  0.25272  Biso   1.000  C
  C731     1.0000 0.71905  0.95171  0.71831  Biso   1.000  C
  C732     1.0000 0.22354  0.79034  0.03213  Biso   1.000  C
  C733     1.0000 0.50401  0.16935  0.75825  Biso   1.000  C
  C734     1.0000 0.69985  0.44961  0.24751  Biso   1.000  C
  C735     1.0000 0.17309  0.71052  0.53826  Biso   1.000  C
  C736     1.0000 0.97763  0.20657  0.83718  Biso   1.000  C
  C737     1.0000 0.22154  0.44794  0.35459  Biso   1.000  C
  C738     1.0000 0.68752  0.70561  0.05694  Biso   1.000  C
  C739     1.0000 0.01219  0.67789  0.74441  Biso   1.000  C
  C740     1.0000 0.76562  0.97123  0.21648  Biso   1.000  C
  C741     1.0000 0.27316  0.17473  0.52194  Biso   1.000  C
  C742     1.0000 0.49434  0.66955  0.80964  Biso   1.000  C
  C743     1.0000 0.26417  0.98055  0.34210  Biso   1.000  C
  C744     1.0000 0.79704  0.19877  0.04825  Biso   1.000  C
  C745     1.0000 0.00098  0.69822  0.34257  Biso   1.000  C
  C746     1.0000 0.28082  0.00419  0.73293  Biso   1.000  C
  C747     1.0000 0.71723  0.29155  0.05061  Biso   1.000  C
  C748     1.0000 0.51072  0.70085  0.22907  Biso   1.000  C
  C749     1.0000 0.77989  0.94654  0.82851  Biso   1.000  C
  C750     1.0000 0.21988  0.29031  0.55162  Biso   1.000  C
  C751     1.0000 0.52045  0.17203  0.31059  Biso   1.000  C
  C752     1.0000 0.17009  0.47065  0.77019  Biso   1.000  C
  C753     1.0000 0.77557  0.79147  0.02578  Biso   1.000  C
  C754     1.0000 0.01060  0.16663  0.25578  Biso   1.000  C
  C755     1.0000 0.67186  0.51014  0.80616  Biso   1.000  C
  C756     1.0000 0.26447  0.79121  0.51002  Biso   1.000  C
  C757     1.0000 0.98136  0.26435  0.72254  Biso   1.000  C
  C758     1.0000 0.68055  0.97066  0.30368  Biso   1.000  C
  C759     1.0000 0.27517  0.67728  0.07065  Biso   1.000  C
  C760     1.0000 0.53083  0.26109  0.83834  Biso   1.000  C
  C761     1.0000 0.20555  0.01773  0.22928  Biso   1.000  C
  C762     1.0000 0.79244  0.69398  0.51582  Biso   1.000  C
  C763     1.0000 0.47501  0.79040  0.75973  Biso   1.000  C
  C764     1.0000 0.79319  0.44600  0.32713  Biso   1.000  C
  C765     1.0000 0.21447  0.17417  0.03828  Biso   1.000  C
  C766     1.0000 0.98986  0.79509  0.80541  Biso   1.000  C
  C767     1.0000 0.31245  0.46863  0.27165  Biso   1.000  C
  C768     1.0000 0.69028  0.19551  0.52865  Biso   1.000  C
  C769     1.0000 0.46901  0.70250  0.84450  Biso   1.000  C
  C770     1.0000 0.78443  0.46268  0.74689  Biso   1.000  C
  C771     1.0000 0.67449  0.74967  0.51445  Biso   1.000  C
  C772     1.0000 0.97536  0.70787  0.71885  Biso   1.000  C
  C773     1.0000 0.25429  0.47592  0.85957  Biso   1.000  C
  C774     1.0000 0.18891  0.75955  0.06064  Biso   1.000  C
  C775     1.0000 0.00344  0.17563  0.80281  Biso   1.000  C
  C776     1.0000 0.69415  0.99032  0.74619  Biso   1.000  C
  C777     1.0000 0.81011  0.25005  0.52828  Biso   1.000  C
  C778     1.0000 0.53103  0.20108  0.72498  Biso   1.000  C
  C779     1.0000 0.19074  0.96985  0.81100  Biso   1.000  C
  C780     1.0000 0.30369  0.25709  0.02806  Biso   1.000  C
  C781     1.0000 0.52549  0.25791  0.22204  Biso   1.000  C
  C782     1.0000 0.20312  0.48544  0.32136  Biso   1.000  C
  C783     1.0000 0.30881  0.20682  0.54516  Biso   1.000  C
  C784     1.0000 0.01206  0.25277  0.34302  Biso   1.000  C
  C785     1.0000 0.73138  0.47698  0.21439  Biso   1.000  C
  C786     1.0000 0.76846  0.17574  0.00812  Biso   1.000  C
  C787     1.0000 0.00492  0.78558  0.25554  Biso   1.000  C
  C788     1.0000 0.29559  0.01205  0.31087  Biso   1.000  C
  C789     1.0000 0.20809  0.67357  0.51680  Biso   1.000  C
  C790     1.0000 0.47570  0.76356  0.34060  Biso   1.000  C
  C791     1.0000 0.79878  0.00120  0.24626  Biso   1.000  C
  C792     1.0000 0.71983  0.67327  0.02643  Biso   1.000  C
  C793     1.0000 0.49306  0.20656  0.34128  Biso   1.000  C
  C794     1.0000 0.28149  0.43343  0.24186  Biso   1.000  C
  C795     1.0000 0.19204  0.26289  0.51551  Biso   1.000  C
  C796     1.0000 0.97425  0.19656  0.22813  Biso   1.000  C
  C797     1.0000 0.81920  0.48483  0.29815  Biso   1.000  C
  C798     1.0000 0.68217  0.26128  0.02104  Biso   1.000  C
  C799     1.0000 0.97950  0.66411  0.30583  Biso   1.000  C
  C800     1.0000 0.18056  0.97566  0.25518  Biso   1.000  C
  C801     1.0000 0.29257  0.76079  0.54644  Biso   1.000  C
  C802     1.0000 0.47693  0.67319  0.26064  Biso   1.000  C
  C803     1.0000 0.71100  0.00773  0.33016  Biso   1.000  C
  C804     1.0000 0.81029  0.75468  0.04680  Biso   1.000  C
  C805     1.0000 0.50792  0.75994  0.72983  Biso   1.000  C
  C806     1.0000 0.69432  0.46763  0.82856  Biso   1.000  C
  C807     1.0000 0.76028  0.66279  0.54735  Biso   1.000  C
  C808     1.0000 0.02070  0.76330  0.83316  Biso   1.000  C
  C809     1.0000 0.20557  0.49922  0.73925  Biso   1.000  C
  C810     1.0000 0.30082  0.69807  0.02648  Biso   1.000  C
  C811     1.0000 0.01456  0.29218  0.75345  Biso   1.000  C
  C812     1.0000 0.80396  0.98955  0.80338  Biso   1.000  C
  C813     1.0000 0.72122  0.16440  0.55707  Biso   1.000  C
  C814     1.0000 0.49153  0.28389  0.80761  Biso   1.000  C
  C815     1.0000 0.31067  0.97273  0.76201  Biso   1.000  C
  C816     1.0000 0.18318  0.20612  0.00896  Biso   1.000  C
  C817     1.0000 0.97662  0.22697  0.81699  Biso   1.000  C
  C818     1.0000 0.74358  0.97386  0.23574  Biso   1.000  C
  C819     1.0000 0.24357  0.76900  0.03134  Biso   1.000  C
  C820     1.0000 0.50314  0.19061  0.77866  Biso   1.000  C
  C821     1.0000 0.24380  0.97908  0.32136  Biso   1.000  C
  C822     1.0000 0.73097  0.75843  0.54186  Biso   1.000  C
  C823     1.0000 0.49660  0.69187  0.79023  Biso   1.000  C
  C824     1.0000 0.72186  0.45035  0.26775  Biso   1.000  C
  C825     1.0000 0.24790  0.26952  0.00690  Biso   1.000  C
  C826     1.0000 0.01640  0.70105  0.76464  Biso   1.000  C
  C827     1.0000 0.24286  0.44115  0.33396  Biso   1.000  C
  C828     1.0000 0.75393  0.25870  0.54768  Biso   1.000  C
  C829     1.0000 0.97061  0.73636  0.24849  Biso   1.000  C
  C830     1.0000 0.24585  0.99326  0.82852  Biso   1.000  C
  C831     1.0000 0.77740  0.22015  0.04879  Biso   1.000  C
  C832     1.0000 0.51991  0.76204  0.29808  Biso   1.000  C
  C833     1.0000 0.74110  0.95270  0.73906  Biso   1.000  C
  C834     1.0000 0.25188  0.19433  0.52458  Biso   1.000  C
  C835     1.0000 0.49411  0.26562  0.27464  Biso   1.000  C
  C836     1.0000 0.26226  0.50457  0.80830  Biso   1.000  C
  C837     1.0000 0.71080  0.72637  0.05629  Biso   1.000  C
  C838     1.0000 0.98312  0.26065  0.29184  Biso   1.000  C
  C839     1.0000 0.73546  0.50026  0.73542  Biso   1.000  C
  C840     1.0000 0.19554  0.73242  0.53746  Biso   1.000  C
  C841     1.0000 0.21386  0.97333  0.79116  Biso   1.000  C
  C842     1.0000 0.74834  0.19756  0.01084  Biso   1.000  C
  C843     1.0000 0.00313  0.76434  0.27771  Biso   1.000  C
  C844     1.0000 0.71591  0.98895  0.76633  Biso   1.000  C
  C845     1.0000 0.28802  0.22830  0.54362  Biso   1.000  C
  C846     1.0000 0.47605  0.74095  0.31975  Biso   1.000  C
  C847     1.0000 0.23095  0.47817  0.84128  Biso   1.000  C
  C848     1.0000 0.74235  0.69514  0.02833  Biso   1.000  C
  C849     1.0000 0.52380  0.23602  0.24412  Biso   1.000  C
  C850     1.0000 0.76047  0.46489  0.76530  Biso   1.000  C
  C851     1.0000 0.22958  0.69569  0.51923  Biso   1.000  C
  C852     1.0000 0.01315  0.23235  0.32134  Biso   1.000  C
  C853     1.0000 0.77618  0.00223  0.26624  Biso   1.000  C
  C854     1.0000 0.21041  0.73929  0.05957  Biso   1.000  C
  C855     1.0000 0.00385  0.19846  0.78245  Biso   1.000  C
  C856     1.0000 0.27342  0.01004  0.29036  Biso   1.000  C
  C857     1.0000 0.69408  0.72728  0.51836  Biso   1.000  C
  C858     1.0000 0.53286  0.22156  0.74597  Biso   1.000  C
  C859     1.0000 0.75355  0.47567  0.23401  Biso   1.000  C
  C860     1.0000 0.28262  0.23604  0.02500  Biso   1.000  C
  C861     1.0000 0.47307  0.72418  0.82450  Biso   1.000  C
  C862     1.0000 0.22470  0.47833  0.30256  Biso   1.000  C
  C863     1.0000 0.78966  0.22736  0.52529  Biso   1.000  C
  C864     1.0000 0.98030  0.72991  0.73936  Biso   1.000  C
  C865     1.0000 0.69252  0.50912  0.78391  Biso   1.000  C
  C866     1.0000 0.77131  0.71522  0.51727  Biso   1.000  C
  C867     1.0000 0.47256  0.76953  0.77985  Biso   1.000  C
  C868     1.0000 0.19000  0.47332  0.79307  Biso   1.000  C
  C869     1.0000 0.25852  0.70188  0.07119  Biso   1.000  C
  C870     1.0000 0.98784  0.77378  0.78392  Biso   1.000  C
  C871     1.0000 0.75925  0.94723  0.80690  Biso   1.000  C
  C872     1.0000 0.71317  0.21552  0.52560  Biso   1.000  C
  C873     1.0000 0.98128  0.24222  0.74163  Biso   1.000  C
  C874     1.0000 0.25981  0.00426  0.75472  Biso   1.000  C
  C875     1.0000 0.23687  0.19391  0.03383  Biso   1.000  C
  C876     1.0000 0.53134  0.23821  0.81779  Biso   1.000  C
  C877     1.0000 0.29273  0.46753  0.29450  Biso   1.000  C
  C878     1.0000 0.24020  0.26815  0.55179  Biso   1.000  C
  C879     1.0000 0.52002  0.19192  0.28891  Biso   1.000  C
  C880     1.0000 0.77206  0.44395  0.30697  Biso   1.000  C
  C881     1.0000 0.73656  0.27040  0.04723  Biso   1.000  C
  C882     1.0000 0.01527  0.19028  0.27398  Biso   1.000  C
  C883     1.0000 0.22584  0.01817  0.25144  Biso   1.000  C
  C884     1.0000 0.24390  0.76969  0.51081  Biso   1.000  C
  C885     1.0000 0.99984  0.71971  0.32169  Biso   1.000  C
  C886     1.0000 0.70186  0.97031  0.28203  Biso   1.000  C
  C887     1.0000 0.75343  0.76992  0.03016  Biso   1.000  C
  C888     1.0000 0.51201  0.72185  0.25047  Biso   1.000  C
  C889     1.0000 0.73036  0.00597  0.30685  Biso   1.000  C
  C890     1.0000 0.28079  0.72063  0.02559  Biso   1.000  C
  C891     1.0000 0.01227  0.27046  0.77417  Biso   1.000  C
  C892     1.0000 0.20109  0.97748  0.27680  Biso   1.000  C
  C893     1.0000 0.73894  0.68481  0.54675  Biso   1.000  C
  C894     1.0000 0.49647  0.26233  0.78648  Biso   1.000  C
  C895     1.0000 0.79538  0.48335  0.28055  Biso   1.000  C
  C896     1.0000 0.20616  0.22531  0.00700  Biso   1.000  C
  C897     1.0000 0.50240  0.73740  0.75060  Biso   1.000  C
  C898     1.0000 0.26036  0.43556  0.26402  Biso   1.000  C
  C899     1.0000 0.74293  0.18471  0.55376  Biso   1.000  C
  C900     1.0000 0.01840  0.74296  0.81077  Biso   1.000  C
  C901     1.0000 0.28920  0.97142  0.78334  Biso   1.000  C
  C902     1.0000 0.70233  0.23971  0.02004  Biso   1.000  C
  C903     1.0000 0.97623  0.68716  0.28641  Biso   1.000  C
  C904     1.0000 0.78145  0.99092  0.78529  Biso   1.000  C
  C905     1.0000 0.21319  0.24035  0.51511  Biso   1.000  C
  C906     1.0000 0.47973  0.69342  0.28268  Biso   1.000  C
  C907     1.0000 0.22338  0.50179  0.76337  Biso   1.000  C
  C908     1.0000 0.78823  0.73477  0.05018  Biso   1.000  C
  C909     1.0000 0.49297  0.22619  0.31866  Biso   1.000  C
  C910     1.0000 0.71352  0.46677  0.80558  Biso   1.000  C
  C911     1.0000 0.27143  0.74048  0.54452  Biso   1.000  C
  C912     1.0000 0.97760  0.21831  0.24852  Biso   1.000  C
  C913     1.0000 0.73677  0.48298  0.76080  Biso   1.000  C
  C914     1.0000 0.72216  0.73214  0.53011  Biso   1.000  C
  C915     1.0000 0.48606  0.72003  0.79756  Biso   1.000  C
  C916     1.0000 0.23590  0.49150  0.81422  Biso   1.000  C
  C917     1.0000 0.23768  0.74346  0.04599  Biso   1.000  C
  C918     1.0000 0.99969  0.72560  0.76284  Biso   1.000  C
  C919     1.0000 0.73819  0.97009  0.76414  Biso   1.000  C
  C920     1.0000 0.76213  0.23234  0.53576  Biso   1.000  C
  C921     1.0000 0.99144  0.22373  0.79069  Biso   1.000  C
  C922     1.0000 0.24072  0.98505  0.80033  Biso   1.000  C
  C923     1.0000 0.25453  0.24299  0.01777  Biso   1.000  C
  C924     1.0000 0.51587  0.21708  0.77115  Biso   1.000  C
  C925     1.0000 0.24323  0.45629  0.30875  Biso   1.000  C
  C926     1.0000 0.25974  0.22100  0.53530  Biso   1.000  C
  C927     1.0000 0.50851  0.23985  0.27000  Biso   1.000  C
  C928     1.0000 0.74917  0.46242  0.26105  Biso   1.000  C
  C929     1.0000 0.75297  0.22024  0.03036  Biso   1.000  C
  C930     1.0000 0.99725  0.23455  0.29601  Biso   1.000  C
  C931     1.0000 0.24736  0.99611  0.29604  Biso   1.000  C
  C932     1.0000 0.22260  0.72331  0.52897  Biso   1.000  C
  C933     1.0000 0.98573  0.73921  0.27346  Biso   1.000  C
  C934     1.0000 0.74897  0.99134  0.26001  Biso   1.000  C
  C935     1.0000 0.73774  0.72037  0.04388  Biso   1.000  C
  C936     1.0000 0.49777  0.74196  0.29923  Biso   1.000  C
  C937     1.0000 0.72887  0.24383  0.03265  Biso   1.000  C
  C938     1.0000 0.98758  0.71594  0.29472  Biso   1.000  C
  C939     1.0000 0.26438  0.98840  0.77967  Biso   1.000  C
  C940     1.0000 0.23602  0.24267  0.53502  Biso   1.000  C
  C941     1.0000 0.49792  0.71727  0.27806  Biso   1.000  C
  C942     1.0000 0.76011  0.96871  0.78649  Biso   1.000  C
  C943     1.0000 0.75952  0.74297  0.04137  Biso   1.000  C
  C944     1.0000 0.50689  0.21855  0.29321  Biso   1.000  C
  C945     1.0000 0.21510  0.48845  0.78987  Biso   1.000  C
  C946     1.0000 0.24714  0.74556  0.52832  Biso   1.000  C
  C947     1.0000 0.99814  0.21463  0.27073  Biso   1.000  C
  C948     1.0000 0.71393  0.48758  0.78401  Biso   1.000  C
  C949     1.0000 0.26019  0.72114  0.04814  Biso   1.000  C
  C950     1.0000 0.99463  0.24674  0.76813  Biso   1.000  C
  C951     1.0000 0.72734  0.98652  0.28359  Biso   1.000  C
  C952     1.0000 0.74442  0.70953  0.52967  Biso   1.000  C
  C953     1.0000 0.51460  0.23940  0.79296  Biso   1.000  C
  C954     1.0000 0.22404  0.99749  0.27424  Biso   1.000  C
  C955     1.0000 0.23290  0.21946  0.01887  Biso   1.000  C
  C956     1.0000 0.48624  0.74263  0.77537  Biso   1.000  C
  C957     1.0000 0.77371  0.46257  0.28333  Biso   1.000  C
  C958     1.0000 0.73997  0.20959  0.53772  Biso   1.000  C
  C959     1.0000 0.00005  0.74703  0.78697  Biso   1.000  C
  C960     1.0000 0.26637  0.45209  0.28882  Biso   1.000  C
  Cu1      1.0000 0.98324  0.48504  0.68400  Biso   1.000  Cu
  Cu2      1.0000 0.64636  0.97305  0.52381  Biso   1.000  Cu
  Cu3      1.0000 0.49671  0.63228  0.03638  Biso   1.000  Cu
  Cu4      1.0000 0.47893  0.47712  0.87812  Biso   1.000  Cu
  Cu5      1.0000 0.14676  0.98204  0.03535  Biso   1.000  Cu
  Cu6      1.0000 0.98390  0.63104  0.53023  Biso   1.000  Cu
  Cu7      1.0000 0.50242  0.98259  0.68833  Biso   1.000  Cu
  Cu8      1.0000 0.83730  0.47254  0.52580  Biso   1.000  Cu
  Cu9      1.0000 0.99232  0.13442  0.03182  Biso   1.000  Cu
  Cu10     1.0000 0.99515  0.98201  0.87937  Biso   1.000  Cu
  Cu11     1.0000 0.33747  0.47677  0.04785  Biso   1.000  Cu
  Cu12     1.0000 0.49424  0.13537  0.53591  Biso   1.000  Cu
  Cu13     1.0000 0.00975  0.47345  0.37959  Biso   1.000  Cu
  Cu14     1.0000 0.33677  0.98223  0.53424  Biso   1.000  Cu
  Cu15     1.0000 0.49364  0.32607  0.03014  Biso   1.000  Cu
  Cu16     1.0000 0.50423  0.48174  0.18909  Biso   1.000  Cu
  Cu17     1.0000 0.83927  0.98002  0.02606  Biso   1.000  Cu
  Cu18     1.0000 0.99817  0.32902  0.53128  Biso   1.000  Cu
  Cu19     1.0000 0.49098  0.98447  0.37993  Biso   1.000  Cu
  Cu20     1.0000 0.14655  0.48466  0.54272  Biso   1.000  Cu
  Cu21     1.0000 0.99971  0.82141  0.03296  Biso   1.000  Cu
  Cu22     1.0000 0.98893  0.97625  0.18430  Biso   1.000  Cu
  Cu23     1.0000 0.64632  0.48315  0.02846  Biso   1.000  Cu
  Cu24     1.0000 0.48790  0.82795  0.53699  Biso   1.000  Cu
  Cu25     1.0000 0.20009  0.98459  0.03582  Biso   1.000  Cu
  Cu26     1.0000 0.99266  0.18730  0.03324  Biso   1.000  Cu
  Cu27     1.0000 0.98840  0.97600  0.23888  Biso   1.000  Cu
  Cu28     1.0000 0.70093  0.97523  0.51922  Biso   1.000  Cu
  Cu29     1.0000 0.49963  0.18980  0.53422  Biso   1.000  Cu
  Cu30     1.0000 0.48818  0.98115  0.32456  Biso   1.000  Cu
  Cu31     1.0000 0.28367  0.47424  0.05404  Biso   1.000  Cu
  Cu32     1.0000 0.49567  0.68633  0.03593  Biso   1.000  Cu
  Cu33     1.0000 0.50788  0.47970  0.24239  Biso   1.000  Cu
  Cu34     1.0000 0.78360  0.46638  0.52123  Biso   1.000  Cu
  Cu35     1.0000 0.98653  0.68540  0.52684  Biso   1.000  Cu
  Cu36     1.0000 0.01025  0.47453  0.32591  Biso   1.000  Cu
  Cu37     1.0000 0.78563  0.97620  0.02611  Biso   1.000  Cu
  Cu38     1.0000 0.00029  0.76719  0.03061  Biso   1.000  Cu
  Cu39     1.0000 0.99947  0.98344  0.82435  Biso   1.000  Cu
  Cu40     1.0000 0.28185  0.98175  0.53757  Biso   1.000  Cu
  Cu41     1.0000 0.48741  0.77408  0.53631  Biso   1.000  Cu
  Cu42     1.0000 0.50423  0.98113  0.74143  Biso   1.000  Cu
  Cu43     1.0000 0.69948  0.48209  0.02219  Biso   1.000  Cu
  Cu44     1.0000 0.49236  0.27430  0.02930  Biso   1.000  Cu
  Cu45     1.0000 0.47715  0.47899  0.82465  Biso   1.000  Cu
  Cu46     1.0000 0.19974  0.48836  0.54535  Biso   1.000  Cu
  Cu47     1.0000 0.99973  0.27629  0.53541  Biso   1.000  Cu
  Cu48     1.0000 0.98006  0.48759  0.73964  Biso   1.000  Cu
  H1       1.0000 0.22620  0.77320  0.49751  Biso   1.000  H
  H2       1.0000 0.54592  0.22131  0.82145  Biso   1.000  H
  H3       1.0000 0.75553  0.42662  0.30712  Biso   1.000  H
  H4       1.0000 0.73107  0.77397  0.02215  Biso   1.000  H
  H5       1.0000 0.96569  0.22384  0.73681  Biso   1.000  H
  H6       1.0000 0.29394  0.47851  0.31580  Biso   1.000  H
  H7       1.0000 0.25896  0.27037  0.56583  Biso   1.000  H
  H8       1.0000 0.97462  0.77605  0.76510  Biso   1.000  H
  H9       1.0000 0.69784  0.95477  0.26448  Biso   1.000  H
  H10      1.0000 0.75660  0.27610  0.05915  Biso   1.000  H
  H11      1.0000 0.45831  0.77564  0.79722  Biso   1.000  H
  H12      1.0000 0.24464  0.03363  0.25009  Biso   1.000  H
  H13      1.0000 0.70997  0.23392  0.51112  Biso   1.000  H
  H14      1.0000 0.52593  0.74021  0.24770  Biso   1.000  H
  H15      1.0000 0.18406  0.46412  0.81331  Biso   1.000  H
  H16      1.0000 0.25526  0.19315  0.04764  Biso   1.000  H
  H17      1.0000 0.00931  0.74103  0.32609  Biso   1.000  H
  H18      1.0000 0.69517  0.52736  0.76851  Biso   1.000  H
  H19      1.0000 0.77564  0.73483  0.50449  Biso   1.000  H
  H20      1.0000 0.03103  0.18621  0.29070  Biso   1.000  H
  H21      1.0000 0.23945  0.01525  0.75315  Biso   1.000  H
  H22      1.0000 0.24370  0.70496  0.09049  Biso   1.000  H
  H23      1.0000 0.53064  0.18498  0.26980  Biso   1.000  H
  H24      1.0000 0.74257  0.93049  0.80417  Biso   1.000  H
  H25      1.0000 0.26772  0.00120  0.83302  Biso   1.000  H
  H26      1.0000 0.77857  0.23548  0.06709  Biso   1.000  H
  H27      1.0000 0.95597  0.71752  0.24397  Biso   1.000  H
  H28      1.0000 0.76186  0.94083  0.73646  Biso   1.000  H
  H29      1.0000 0.23003  0.18729  0.51664  Biso   1.000  H
  H30      1.0000 0.53989  0.76108  0.28480  Biso   1.000  H
  H31      1.0000 0.26647  0.51751  0.78929  Biso   1.000  H
  H32      1.0000 0.70851  0.74716  0.06736  Biso   1.000  H
  H33      1.0000 0.48088  0.27303  0.29347  Biso   1.000  H
  H34      1.0000 0.71765  0.51517  0.72925  Biso   1.000  H
  H35      1.0000 0.19343  0.75509  0.54555  Biso   1.000  H
  H36      1.0000 0.97411  0.26798  0.26989  Biso   1.000  H
  H37      1.0000 0.72206  0.96542  0.23196  Biso   1.000  H
  H38      1.0000 0.26331  0.77205  0.01737  Biso   1.000  H
  H39      1.0000 0.96631  0.24773  0.82208  Biso   1.000  H
  H40      1.0000 0.22512  0.96562  0.32643  Biso   1.000  H
  H41      1.0000 0.75034  0.76087  0.55397  Biso   1.000  H
  H42      1.0000 0.49022  0.18657  0.79771  Biso   1.000  H
  H43      1.0000 0.71850  0.44185  0.28852  Biso   1.000  H
  H44      1.0000 0.22719  0.27810  0.00017  Biso   1.000  H
  H45      1.0000 0.50622  0.68808  0.77006  Biso   1.000  H
  H46      1.0000 0.25762  0.42312  0.33559  Biso   1.000  H
  H47      1.0000 0.73137  0.26131  0.55719  Biso   1.000  H
  H48      1.0000 0.03256  0.69690  0.78003  Biso   1.000  H
  H49      1.0000 0.22725  0.49197  0.28347  Biso   1.000  H
  H50      1.0000 0.29651  0.25045  0.54774  Biso   1.000  H
  H51      1.0000 0.53338  0.21536  0.23905  Biso   1.000  H
  H52      1.0000 0.77462  0.48464  0.22908  Biso   1.000  H
  H53      1.0000 0.73172  0.19745  0.99434  Biso   1.000  H
  H54      1.0000 0.02726  0.21433  0.32260  Biso   1.000  H
  H55      1.0000 0.27670  0.01926  0.26972  Biso   1.000  H
  H56      1.0000 0.25185  0.68927  0.51386  Biso   1.000  H
  H57      1.0000 0.01593  0.76961  0.29699  Biso   1.000  H
  H58      1.0000 0.78091  0.01217  0.28622  Biso   1.000  H
  H59      1.0000 0.76196  0.69415  0.01434  Biso   1.000  H
  H60      1.0000 0.46175  0.72171  0.32189  Biso   1.000  H
  H61      1.0000 0.76235  0.45442  0.78644  Biso   1.000  H
  H62      1.0000 0.68831  0.70686  0.50587  Biso   1.000  H
  H63      1.0000 0.46722  0.74487  0.83368  Biso   1.000  H
  H64      1.0000 0.21053  0.47013  0.84784  Biso   1.000  H
  H65      1.0000 0.20588  0.71791  0.06835  Biso   1.000  H
  H66      1.0000 0.96824  0.74881  0.73742  Biso   1.000  H
  H67      1.0000 0.71440  0.00148  0.78464  Biso   1.000  H
  H68      1.0000 0.79329  0.20701  0.51450  Biso   1.000  H
  H69      1.0000 0.01036  0.19495  0.76016  Biso   1.000  H
  H70      1.0000 0.21079  0.96932  0.76683  Biso   1.000  H
  H71      1.0000 0.29101  0.21484  0.03037  Biso   1.000  H
  H72      1.0000 0.54619  0.24119  0.74357  Biso   1.000  H
  H73      1.0000 0.72522  0.44704  0.80671  Biso   1.000  H
  H74      1.0000 0.71777  0.68397  0.55850  Biso   1.000  H
  H75      1.0000 0.51218  0.71712  0.74988  Biso   1.000  H
  H76      1.0000 0.24203  0.51621  0.75943  Biso   1.000  H
  H77      1.0000 0.28150  0.73651  0.00732  Biso   1.000  H
  H78      1.0000 0.03195  0.72428  0.81136  Biso   1.000  H
  H79      1.0000 0.78237  0.00699  0.76764  Biso   1.000  H
  H80      1.0000 0.76603  0.18027  0.56123  Biso   1.000  H
  H81      1.0000 0.02859  0.27203  0.79213  Biso   1.000  H
  H82      1.0000 0.29241  0.95910  0.80412  Biso   1.000  H
  H83      1.0000 0.20246  0.24560  0.99391  Biso   1.000  H
  H84      1.0000 0.48503  0.26265  0.76783  Biso   1.000  H
  H85      1.0000 0.23845  0.42448  0.26178  Biso   1.000  H
  H86      1.0000 0.21274  0.22057  0.50397  Biso   1.000  H
  H87      1.0000 0.48444  0.24752  0.32216  Biso   1.000  H
  H88      1.0000 0.79630  0.50091  0.26449  Biso   1.000  H
  H89      1.0000 0.69548  0.21953  0.00639  Biso   1.000  H
  H90      1.0000 0.96282  0.23648  0.24723  Biso   1.000  H
  H91      1.0000 0.20018  0.96047  0.29310  Biso   1.000  H
  H92      1.0000 0.27155  0.72097  0.55832  Biso   1.000  H
  H93      1.0000 0.96845  0.68265  0.26514  Biso   1.000  H
  H94      1.0000 0.74789  0.02262  0.30700  Biso   1.000  H
  H95      1.0000 0.79271  0.71342  0.06077  Biso   1.000  H
  H96      1.0000 0.47046  0.68742  0.30401  Biso   1.000  H
  H97      1.0000 0.86222  0.97112  0.93670  Biso   1.000  H
  H98      1.0000 0.91099  0.84300  0.04114  Biso   1.000  H
  H99      1.0000 0.00796  0.89051  0.89767  Biso   1.000  H
  H100     1.0000 0.36352  0.97259  0.62613  Biso   1.000  H
  H101     1.0000 0.39691  0.84998  0.53734  Biso   1.000  H
  H102     1.0000 0.49381  0.88890  0.66608  Biso   1.000  H
  H103     1.0000 0.61160  0.47729  0.93265  Biso   1.000  H
  H104     1.0000 0.58469  0.34828  0.02640  Biso   1.000  H
  H105     1.0000 0.48644  0.38880  0.89703  Biso   1.000  H
  H106     1.0000 0.12613  0.47912  0.63110  Biso   1.000  H
  H107     1.0000 0.08988  0.35111  0.53301  Biso   1.000  H
  H108     1.0000 0.99130  0.39379  0.66625  Biso   1.000  H
  H109     1.0000 0.12261  0.98697  0.12395  Biso   1.000  H
  H110     1.0000 0.08429  0.11338  0.02612  Biso   1.000  H
  H111     1.0000 0.98488  0.06772  0.16713  Biso   1.000  H
  H112     1.0000 0.62477  0.98822  0.43508  Biso   1.000  H
  H113     1.0000 0.58480  0.10989  0.54073  Biso   1.000  H
  H114     1.0000 0.50251  0.07264  0.39725  Biso   1.000  H
  H115     1.0000 0.36490  0.46613  0.13588  Biso   1.000  H
  H116     1.0000 0.40003  0.60898  0.04346  Biso   1.000  H
  H117     1.0000 0.50280  0.56749  0.17088  Biso   1.000  H
  H118     1.0000 0.87124  0.46834  0.43215  Biso   1.000  H
  H119     1.0000 0.89648  0.60745  0.54077  Biso   1.000  H
  H120     1.0000 0.99694  0.56569  0.40017  Biso   1.000  H
  H121     1.0000 0.08768  0.99414  0.90151  Biso   1.000  H
  H122     1.0000 0.86006  0.07288  0.01942  Biso   1.000  H
  H123     1.0000 0.98977  0.84038  0.12250  Biso   1.000  H
  H124     1.0000 0.59154  0.98331  0.66001  Biso   1.000  H
  H125     1.0000 0.36427  0.07445  0.54504  Biso   1.000  H
  H126     1.0000 0.48877  0.85140  0.44335  Biso   1.000  H
  H127     1.0000 0.39127  0.48296  0.90739  Biso   1.000  H
  H128     1.0000 0.63014  0.57174  0.03008  Biso   1.000  H
  H129     1.0000 0.49268  0.34647  0.12166  Biso   1.000  H
  H130     1.0000 0.89092  0.47483  0.66177  Biso   1.000  H
  H131     1.0000 0.12228  0.57114  0.53583  Biso   1.000  H
  H132     1.0000 0.99222  0.34491  0.44066  Biso   1.000  H
  H133     1.0000 0.90212  0.97499  0.16435  Biso   1.000  H
  H134     1.0000 0.12729  0.89092  0.04028  Biso   1.000  H
  H135     1.0000 0.99027  0.11544  0.94104  Biso   1.000  H
  H136     1.0000 0.39722  0.99868  0.40234  Biso   1.000  H
  H137     1.0000 0.62457  0.88774  0.52203  Biso   1.000  H
  H138     1.0000 0.48834  0.11764  0.62130  Biso   1.000  H
  H139     1.0000 0.59888  0.48004  0.16276  Biso   1.000  H
  H140     1.0000 0.35957  0.39193  0.03469  Biso   1.000  H
  H141     1.0000 0.49417  0.61011  0.94501  Biso   1.000  H
  H142     1.0000 0.09663  0.49136  0.40299  Biso   1.000  H
  H143     1.0000 0.86091  0.38567  0.52890  Biso   1.000  H
  H144     1.0000 0.99855  0.61821  0.61747  Biso   1.000  H
  H145     1.0000 0.56866  0.48095  0.89185  Biso   1.000  H
  H146     1.0000 0.85324  0.56177  0.53202  Biso   1.000  H
  H147     1.0000 0.49066  0.84649  0.62617  Biso   1.000  H
  H148     1.0000 0.07881  0.48278  0.66864  Biso   1.000  H
  H149     1.0000 0.35822  0.56697  0.05724  Biso   1.000  H
  H150     1.0000 0.01040  0.84772  0.94185  Biso   1.000  H
  H151     1.0000 0.90690  0.97287  0.89231  Biso   1.000  H
  H152     1.0000 0.62519  0.06568  0.53800  Biso   1.000  H
  H153     1.0000 0.00582  0.35435  0.62571  Biso   1.000  H
  H154     1.0000 0.40931  0.97503  0.66586  Biso   1.000  H
  H155     1.0000 0.12476  0.07468  0.03533  Biso   1.000  H
  H156     1.0000 0.49304  0.34891  0.93757  Biso   1.000  H
  H157     1.0000 0.41041  0.46921  0.17473  Biso   1.000  H
  H158     1.0000 0.13052  0.39387  0.53623  Biso   1.000  H
  H159     1.0000 0.50459  0.11331  0.44548  Biso   1.000  H
  H160     1.0000 0.91558  0.46545  0.39829  Biso   1.000  H
  H161     1.0000 0.62691  0.38921  0.03123  Biso   1.000  H
  H162     1.0000 0.99689  0.10709  0.12730  Biso   1.000  H
  H163     1.0000 0.07873  0.98324  0.16411  Biso   1.000  H
  H164     1.0000 0.35498  0.89298  0.53693  Biso   1.000  H
  H165     1.0000 0.98148  0.60775  0.43781  Biso   1.000  H
  H166     1.0000 0.58214  0.97312  0.39129  Biso   1.000  H
  H167     1.0000 0.86889  0.89139  0.03715  Biso   1.000  H
  H168     1.0000 0.50204  0.61160  0.12647  Biso   1.000  H
  H169     1.0000 0.98755  0.07107  0.89943  Biso   1.000  H
  H170     1.0000 0.85857  0.97263  0.11853  Biso   1.000  H
  H171     1.0000 0.08924  0.84439  0.02524  Biso   1.000  H
  H172     1.0000 0.49394  0.07197  0.66453  Biso   1.000  H
  H173     1.0000 0.35413  0.99325  0.44427  Biso   1.000  H
  H174     1.0000 0.57842  0.84287  0.53202  Biso   1.000  H
  H175     1.0000 0.48107  0.56554  0.89915  Biso   1.000  H
  H176     1.0000 0.63612  0.48180  0.11903  Biso   1.000  H
  H177     1.0000 0.40318  0.34853  0.02451  Biso   1.000  H
  H178     1.0000 0.99253  0.57573  0.66110  Biso   1.000  H
  H179     1.0000 0.13318  0.48903  0.44960  Biso   1.000  H
  H180     1.0000 0.90618  0.34665  0.53099  Biso   1.000  H
  H181     1.0000 0.99099  0.88241  0.16282  Biso   1.000  H
  H182     1.0000 0.13104  0.98491  0.94402  Biso   1.000  H
  H183     1.0000 0.90088  0.11466  0.02724  Biso   1.000  H
  H184     1.0000 0.48854  0.89365  0.39953  Biso   1.000  H
  H185     1.0000 0.63529  0.97912  0.61407  Biso   1.000  H
  H186     1.0000 0.40410  0.11345  0.53869  Biso   1.000  H
  H187     1.0000 0.50290  0.38998  0.16341  Biso   1.000  H
  H188     1.0000 0.34916  0.47803  0.95869  Biso   1.000  H
  H189     1.0000 0.58815  0.61517  0.03578  Biso   1.000  H
  H190     1.0000 0.99283  0.38701  0.39915  Biso   1.000  H
  H191     1.0000 0.85221  0.47896  0.62126  Biso   1.000  H
  H192     1.0000 0.07622  0.60866  0.52398  Biso   1.000  H
  H193     1.0000 0.25791  0.83859  0.53607  Biso   1.000  H
  H194     1.0000 0.50467  0.25003  0.88902  Biso   1.000  H
  H195     1.0000 0.87272  0.45744  0.29360  Biso   1.000  H
  H196     1.0000 0.77247  0.83340  0.05279  Biso   1.000  H
  H197     1.0000 0.01317  0.25652  0.67487  Biso   1.000  H
  H198     1.0000 0.36851  0.44506  0.27313  Biso   1.000  H
  H199     1.0000 0.22866  0.34442  0.53457  Biso   1.000  H
  H200     1.0000 0.00244  0.75546  0.88583  Biso   1.000  H
  H201     1.0000 0.63083  0.99886  0.29581  Biso   1.000  H
  H202     1.0000 0.72417  0.34028  0.03610  Biso   1.000  H
  H203     1.0000 0.48520  0.75171  0.68395  Biso   1.000  H
  H204     1.0000 0.12819  0.99818  0.26424  Biso   1.000  H
  H205     1.0000 0.72719  0.11214  0.54036  Biso   1.000  H
  H206     1.0000 0.49427  0.70690  0.17729  Biso   1.000  H
  H207     1.0000 0.11896  0.48813  0.76909  Biso   1.000  H
  H208     1.0000 0.22056  0.12774  0.02310  Biso   1.000  H
  H209     1.0000 0.97240  0.69998  0.38488  Biso   1.000  H
  H210     1.0000 0.62079  0.49985  0.79817  Biso   1.000  H
  H211     1.0000 0.75708  0.61255  0.52004  Biso   1.000  H
  H212     1.0000 0.99287  0.20380  0.17855  Biso   1.000  H
  H213     1.0000 0.36035  0.99075  0.76522  Biso   1.000  H
  H214     1.0000 0.26137  0.62099  0.05229  Biso   1.000  H
  H215     1.0000 0.50857  0.21196  0.39326  Biso   1.000  H
  H216     1.0000 0.85552  0.97250  0.79328  Biso   1.000  H
  H217     1.0000 0.23573  0.47848  0.40732  Biso   1.000  H
  H218     1.0000 0.35609  0.21139  0.52477  Biso   1.000  H
  H219     1.0000 0.51620  0.33740  0.25902  Biso   1.000  H
  H220     1.0000 0.73209  0.45654  0.16564  Biso   1.000  H
  H221     1.0000 0.84772  0.20956  0.03059  Biso   1.000  H
  H222     1.0000 0.00654  0.32805  0.30675  Biso   1.000  H
  H223     1.0000 0.25796  0.99997  0.39123  Biso   1.000  H
  H224     1.0000 0.12802  0.70690  0.50856  Biso   1.000  H
  H225     1.0000 0.98310  0.83153  0.25952  Biso   1.000  H
  H226     1.0000 0.76118  0.98958  0.17117  Biso   1.000  H
  H227     1.0000 0.64072  0.71190  0.03315  Biso   1.000  H
  H228     1.0000 0.49845  0.83868  0.30265  Biso   1.000  H
  H229     1.0000 0.75128  0.47505  0.66471  Biso   1.000  H
  H230     1.0000 0.63069  0.74578  0.54168  Biso   1.000  H
  H231     1.0000 0.46899  0.62184  0.80417  Biso   1.000  H
  H232     1.0000 0.25489  0.50140  0.90846  Biso   1.000  H
  H233     1.0000 0.14428  0.75318  0.03890  Biso   1.000  H
  H234     1.0000 0.97738  0.63181  0.75417  Biso   1.000  H
  H235     1.0000 0.73213  0.96424  0.66537  Biso   1.000  H
  H236     1.0000 0.85754  0.24911  0.55360  Biso   1.000  H
  H237     1.0000 0.97656  0.12460  0.80447  Biso   1.000  H
  H238     1.0000 0.22530  0.96613  0.89370  Biso   1.000  H
  H239     1.0000 0.34996  0.25445  0.00154  Biso   1.000  H
  H240     1.0000 0.53041  0.12464  0.75603  Biso   1.000  H
  H241     1.0000 0.70987  0.48448  0.87912  Biso   1.000  H
  H242     1.0000 0.83816  0.70259  0.54114  Biso   1.000  H
  H243     1.0000 0.49575  0.83935  0.76487  Biso   1.000  H
  H244     1.0000 0.21894  0.47248  0.69172  Biso   1.000  H
  H245     1.0000 0.35219  0.70853  0.04685  Biso   1.000  H
  H246     1.0000 0.01326  0.84061  0.79856  Biso   1.000  H
  H247     1.0000 0.76933  0.97042  0.88106  Biso   1.000  H
  H248     1.0000 0.64144  0.20371  0.54904  Biso   1.000  H
  H249     1.0000 0.98396  0.33851  0.76047  Biso   1.000  H
  H250     1.0000 0.27116  0.98267  0.68572  Biso   1.000  H
  H251     1.0000 0.13117  0.21249  0.02808  Biso   1.000  H
  H252     1.0000 0.50835  0.33680  0.79941  Biso   1.000  H
  H253     1.0000 0.27183  0.45454  0.19434  Biso   1.000  H
  H254     1.0000 0.13984  0.25520  0.52514  Biso   1.000  H
  H255     1.0000 0.49525  0.12730  0.30376  Biso   1.000  H
  H256     1.0000 0.77736  0.47320  0.37467  Biso   1.000  H
  H257     1.0000 0.63656  0.25389  0.05042  Biso   1.000  H
  H258     1.0000 0.98886  0.11886  0.26621  Biso   1.000  H
  H259     1.0000 0.21387  0.00019  0.18364  Biso   1.000  H
  H260     1.0000 0.34238  0.75417  0.52326  Biso   1.000  H
  H261     1.0000 0.00925  0.61747  0.30590  Biso   1.000  H
  H262     1.0000 0.72061  0.98829  0.37863  Biso   1.000  H
  H263     1.0000 0.85399  0.75097  0.02086  Biso   1.000  H
  H264     1.0000 0.49804  0.62670  0.26499  Biso   1.000  H
  H265     1.0000 0.99831  0.21150  0.88823  Biso   1.000  H
  H266     1.0000 0.84356  0.98252  0.25897  Biso   1.000  H
  H267     1.0000 0.22557  0.84244  0.05960  Biso   1.000  H
  H268     1.0000 0.50568  0.21245  0.67766  Biso   1.000  H
  H269     1.0000 0.34589  0.98942  0.30256  Biso   1.000  H
  H270     1.0000 0.71566  0.82596  0.51150  Biso   1.000  H
  H271     1.0000 0.49457  0.70758  0.89110  Biso   1.000  H
  H272     1.0000 0.65105  0.47066  0.25779  Biso   1.000  H
  H273     1.0000 0.26281  0.33395  0.03365  Biso   1.000  H
  H274     1.0000 0.98830  0.71267  0.66808  Biso   1.000  H
  H275     1.0000 0.15714  0.48010  0.31300  Biso   1.000  H
  H276     1.0000 0.77095  0.32172  0.52265  Biso   1.000  H
  H277     1.0000 0.99683  0.74231  0.17533  Biso   1.000  H
  H278     1.0000 0.14194  0.99316  0.80609  Biso   1.000  H
  H279     1.0000 0.76079  0.12268  0.02609  Biso   1.000  H
  H280     1.0000 0.49468  0.75301  0.39437  Biso   1.000  H
  H281     1.0000 0.64477  0.97631  0.75546  Biso   1.000  H
  H282     1.0000 0.26537  0.12308  0.54065  Biso   1.000  H
  H283     1.0000 0.49961  0.25255  0.17435  Biso   1.000  H
  H284     1.0000 0.33037  0.48655  0.81831  Biso   1.000  H
  H285     1.0000 0.72664  0.62713  0.04548  Biso   1.000  H
  H286     1.0000 0.98581  0.24712  0.39060  Biso   1.000  H
  H287     1.0000 0.83336  0.47851  0.75455  Biso   1.000  H
  H288     1.0000 0.21190  0.63686  0.54870  Biso   1.000  H
  H289     1.0000 0.08050  0.20896  0.03472  Biso   1.000  H
  H290     1.0000 0.99024  0.06469  0.26276  Biso   1.000  H
  H291     1.0000 0.21445  0.01048  0.12648  Biso   1.000  H
  H292     1.0000 0.58899  0.20514  0.55145  Biso   1.000  H
  H293     1.0000 0.49263  0.07338  0.30297  Biso   1.000  H
  H294     1.0000 0.71769  0.98640  0.43466  Biso   1.000  H
  H295     1.0000 0.40697  0.70504  0.04052  Biso   1.000  H
  H296     1.0000 0.50369  0.56911  0.26291  Biso   1.000  H
  H297     1.0000 0.26906  0.45894  0.14379  Biso   1.000  H
  H298     1.0000 0.89370  0.70288  0.54171  Biso   1.000  H
  H299     1.0000 0.02082  0.56365  0.31037  Biso   1.000  H
  H300     1.0000 0.77566  0.46769  0.43063  Biso   1.000  H
  H301     1.0000 0.90607  0.75196  0.01786  Biso   1.000  H
  H302     1.0000 0.01216  0.89514  0.80000  Biso   1.000  H
  H303     1.0000 0.76482  0.97064  0.93078  Biso   1.000  H
  H304     1.0000 0.39954  0.75773  0.52763  Biso   1.000  H
  H305     1.0000 0.49995  0.89653  0.76192  Biso   1.000  H
  H306     1.0000 0.26822  0.98308  0.62922  Biso   1.000  H
  H307     1.0000 0.58582  0.25336  0.04270  Biso   1.000  H
  H308     1.0000 0.49852  0.38856  0.80036  Biso   1.000  H
  H309     1.0000 0.70801  0.48719  0.93099  Biso   1.000  H
  H310     1.0000 0.08779  0.25658  0.52565  Biso   1.000  H
  H311     1.0000 0.97976  0.39193  0.76218  Biso   1.000  H
  H312     1.0000 0.22286  0.47330  0.63743  Biso   1.000  H
  H313     1.0000 0.22436  0.96547  0.94699  Biso   1.000  H
  H314     1.0000 0.90152  0.21011  0.03432  Biso   1.000  H
  H315     1.0000 0.98330  0.88670  0.25976  Biso   1.000  H
  H316     1.0000 0.72925  0.96496  0.61281  Biso   1.000  H
  H317     1.0000 0.41082  0.20866  0.53268  Biso   1.000  H
  H318     1.0000 0.50093  0.89383  0.30676  Biso   1.000  H
  H319     1.0000 0.25961  0.50226  0.96386  Biso   1.000  H
  H320     1.0000 0.58677  0.70809  0.03345  Biso   1.000  H
  H321     1.0000 0.51075  0.39009  0.25724  Biso   1.000  H
  H322     1.0000 0.75626  0.47706  0.61074  Biso   1.000  H
  H323     1.0000 0.07167  0.70239  0.50432  Biso   1.000  H
  H324     1.0000 0.00060  0.38260  0.30400  Biso   1.000  H
  H325     1.0000 0.76447  0.98611  0.11598  Biso   1.000  H
  H326     1.0000 0.09194  0.74966  0.03025  Biso   1.000  H
  H327     1.0000 0.97794  0.07154  0.80371  Biso   1.000  H
  H328     1.0000 0.25767  0.99274  0.44489  Biso   1.000  H
  H329     1.0000 0.57428  0.74738  0.54646  Biso   1.000  H
  H330     1.0000 0.52231  0.07063  0.75835  Biso   1.000  H
  H331     1.0000 0.72653  0.46273  0.10984  Biso   1.000  H
  H332     1.0000 0.40230  0.25525  0.00142  Biso   1.000  H
  H333     1.0000 0.47567  0.57128  0.80166  Biso   1.000  H
  H334     1.0000 0.22641  0.48727  0.46110  Biso   1.000  H
  H335     1.0000 0.91228  0.25661  0.56282  Biso   1.000  H
  H336     1.0000 0.97158  0.57539  0.75595  Biso   1.000  H
  H337     1.0000 0.00513  0.20889  0.94102  Biso   1.000  H
  H338     1.0000 0.89672  0.97636  0.26147  Biso   1.000  H
  H339     1.0000 0.22350  0.89416  0.05490  Biso   1.000  H
  H340     1.0000 0.50224  0.21299  0.62673  Biso   1.000  H
  H341     1.0000 0.39493  0.97682  0.30882  Biso   1.000  H
  H342     1.0000 0.72065  0.87969  0.51157  Biso   1.000  H
  H343     1.0000 0.50348  0.70370  0.94463  Biso   1.000  H
  H344     1.0000 0.59753  0.47389  0.25831  Biso   1.000  H
  H345     1.0000 0.26390  0.38376  0.04681  Biso   1.000  H
  H346     1.0000 0.99134  0.71170  0.61503  Biso   1.000  H
  H347     1.0000 0.10046  0.48630  0.30936  Biso   1.000  H
  H348     1.0000 0.76643  0.37523  0.51626  Biso   1.000  H
  H349     1.0000 0.99773  0.74676  0.11928  Biso   1.000  H
  H350     1.0000 0.09014  0.99667  0.80581  Biso   1.000  H
  H351     1.0000 0.76422  0.06669  0.02553  Biso   1.000  H
  H352     1.0000 0.49335  0.75649  0.44600  Biso   1.000  H
  H353     1.0000 0.59285  0.98294  0.75388  Biso   1.000  H
  H354     1.0000 0.26553  0.06955  0.54146  Biso   1.000  H
  H355     1.0000 0.49254  0.24970  0.12146  Biso   1.000  H
  H356     1.0000 0.38286  0.47463  0.81331  Biso   1.000  H
  H357     1.0000 0.72555  0.57227  0.03936  Biso   1.000  H
  H358     1.0000 0.98111  0.25060  0.44791  Biso   1.000  H
  H359     1.0000 0.88739  0.48166  0.75638  Biso   1.000  H
  H360     1.0000 0.21504  0.58317  0.55554  Biso   1.000  H
  H361     1.0000 0.96330  0.69968  0.44040  Biso   1.000  H
  H362     1.0000 0.41787  0.98664  0.76084  Biso   1.000  H
  H363     1.0000 0.72310  0.39655  0.02970  Biso   1.000  H
  H364     1.0000 0.48934  0.70395  0.12302  Biso   1.000  H
  H365     1.0000 0.91182  0.96931  0.79762  Biso   1.000  H
  H366     1.0000 0.22553  0.39744  0.54133  Biso   1.000  H
  H367     1.0000 0.51438  0.20756  0.44679  Biso   1.000  H
  H368     1.0000 0.06809  0.48834  0.76465  Biso   1.000  H
  H369     1.0000 0.77234  0.88909  0.05063  Biso   1.000  H
  H370     1.0000 0.99574  0.20490  0.12853  Biso   1.000  H
  H371     1.0000 0.56363  0.49502  0.80008  Biso   1.000  H
  H372     1.0000 0.25811  0.88960  0.53770  Biso   1.000  H
  H373     1.0000 0.01626  0.26032  0.62164  Biso   1.000  H
  H374     1.0000 0.57730  0.99703  0.29881  Biso   1.000  H
  H375     1.0000 0.26038  0.56601  0.06177  Biso   1.000  H
  H376     1.0000 0.50039  0.25432  0.94113  Biso   1.000  H
  H377     1.0000 0.07821  0.98794  0.26106  Biso   1.000  H
  H378     1.0000 0.75834  0.55875  0.52657  Biso   1.000  H
  H379     1.0000 0.48589  0.75034  0.62952  Biso   1.000  H
  H380     1.0000 0.92298  0.45559  0.30079  Biso   1.000  H
  H381     1.0000 0.22075  0.07275  0.02804  Biso   1.000  H
  H382     1.0000 0.99918  0.75308  0.93791  Biso   1.000  H
  H383     1.0000 0.42056  0.46587  0.26933  Biso   1.000  H
  H384     1.0000 0.72127  0.06223  0.52932  Biso   1.000  H
  H385     1.0000 0.22295  0.43642  0.37513  Biso   1.000  H
  H386     1.0000 0.26776  0.15724  0.50781  Biso   1.000  H
  H387     1.0000 0.48273  0.30714  0.25944  Biso   1.000  H
  H388     1.0000 0.68068  0.43764  0.25320  Biso   1.000  H
  H389     1.0000 0.81390  0.20056  0.06596  Biso   1.000  H
  H390     1.0000 0.96713  0.30091  0.30647  Biso   1.000  H
  H391     1.0000 0.25980  0.96583  0.36077  Biso   1.000  H
  H392     1.0000 0.15369  0.71417  0.55049  Biso   1.000  H
  H393     1.0000 0.95967  0.75094  0.20796  Biso   1.000  H
  H394     1.0000 0.76059  0.95759  0.19756  Biso   1.000  H
  H395     1.0000 0.66899  0.70865  0.07013  Biso   1.000  H
  H396     1.0000 0.53558  0.80261  0.31500  Biso   1.000  H
  H397     1.0000 0.75703  0.50955  0.69574  Biso   1.000  H
  H398     1.0000 0.72307  0.80174  0.55039  Biso   1.000  H
  H399     1.0000 0.50504  0.65009  0.80280  Biso   1.000  H
  H400     1.0000 0.30181  0.52176  0.82469  Biso   1.000  H
  H401     1.0000 0.22741  0.80955  0.01902  Biso   1.000  H
  H402     1.0000 0.02682  0.65954  0.74711  Biso   1.000  H
  H403     1.0000 0.71875  0.93490  0.69945  Biso   1.000  H
  H404     1.0000 0.76729  0.30035  0.56215  Biso   1.000  H
  H405     1.0000 0.96579  0.21294  0.85781  Biso   1.000  H
  H406     1.0000 0.22582  0.00377  0.86817  Biso   1.000  H
  H407     1.0000 0.26345  0.31198  0.99900  Biso   1.000  H
  H408     1.0000 0.49043  0.14860  0.76251  Biso   1.000  H
  H409     1.0000 0.27854  0.42094  0.22223  Biso   1.000  H
  H410     1.0000 0.17680  0.26275  0.49925  Biso   1.000  H
  H411     1.0000 0.48100  0.21295  0.36036  Biso   1.000  H
  H412     1.0000 0.83687  0.50135  0.29690  Biso   1.000  H
  H413     1.0000 0.66215  0.25542  0.00873  Biso   1.000  H
  H414     1.0000 0.95962  0.19745  0.20917  Biso   1.000  H
  H415     1.0000 0.16104  0.96197  0.25599  Biso   1.000  H
  H416     1.0000 0.31259  0.75693  0.55846  Biso   1.000  H
  H417     1.0000 0.97153  0.64181  0.30019  Biso   1.000  H
  H418     1.0000 0.71627  0.02441  0.34650  Biso   1.000  H
  H419     1.0000 0.83254  0.74644  0.05291  Biso   1.000  H
  H420     1.0000 0.46345  0.65389  0.26303  Biso   1.000  H
  H421     1.0000 0.69448  0.44842  0.84191  Biso   1.000  H
  H422     1.0000 0.75576  0.64428  0.55922  Biso   1.000  H
  H423     1.0000 0.52434  0.75391  0.71296  Biso   1.000  H
  H424     1.0000 0.21358  0.51170  0.72026  Biso   1.000  H
  H425     1.0000 0.31709  0.69589  0.00778  Biso   1.000  H
  H426     1.0000 0.03665  0.76183  0.84980  Biso   1.000  H
  H427     1.0000 0.82193  0.00524  0.80173  Biso   1.000  H
  H428     1.0000 0.72580  0.14440  0.56979  Biso   1.000  H
  H429     1.0000 0.02862  0.31059  0.75494  Biso   1.000  H
  H430     1.0000 0.32903  0.95809  0.76561  Biso   1.000  H
  H431     1.0000 0.16351  0.21175  0.99949  Biso   1.000  H
  H432     1.0000 0.47504  0.29953  0.80453  Biso   1.000  H
  H433     1.0000 0.27756  0.01561  0.71285  Biso   1.000  H
  H434     1.0000 0.72413  0.30873  0.06401  Biso   1.000  H
  H435     1.0000 0.01177  0.70363  0.36304  Biso   1.000  H
  H436     1.0000 0.78188  0.93049  0.84739  Biso   1.000  H
  H437     1.0000 0.22397  0.30887  0.56413  Biso   1.000  H
  H438     1.0000 0.52343  0.70425  0.21086  Biso   1.000  H
  H439     1.0000 0.15001  0.45626  0.77283  Biso   1.000  H
  H440     1.0000 0.77027  0.81209  0.01592  Biso   1.000  H
  H441     1.0000 0.53130  0.15145  0.30899  Biso   1.000  H
  H442     1.0000 0.65382  0.52543  0.80596  Biso   1.000  H
  H443     1.0000 0.26298  0.80980  0.49611  Biso   1.000  H
  H444     1.0000 0.02347  0.14630  0.25449  Biso   1.000  H
  H445     1.0000 0.66224  0.95664  0.30286  Biso   1.000  H
  H446     1.0000 0.27441  0.66187  0.08914  Biso   1.000  H
  H447     1.0000 0.96816  0.26104  0.70312  Biso   1.000  H
  H448     1.0000 0.20560  0.03667  0.21440  Biso   1.000  H
  H449     1.0000 0.81036  0.69495  0.50132  Biso   1.000  H
  H450     1.0000 0.54862  0.25967  0.85433  Biso   1.000  H
  H451     1.0000 0.79130  0.43288  0.34636  Biso   1.000  H
  H452     1.0000 0.21662  0.15892  0.05636  Biso   1.000  H
  H453     1.0000 0.46649  0.81156  0.76342  Biso   1.000  H
  H454     1.0000 0.32912  0.48503  0.27476  Biso   1.000  H
  H455     1.0000 0.66952  0.20310  0.51756  Biso   1.000  H
  H456     1.0000 0.97755  0.81580  0.80250  Biso   1.000  H
  H457     1.0000 0.65573  0.74443  0.50131  Biso   1.000  H
  H458     1.0000 0.46142  0.70647  0.86562  Biso   1.000  H
  H459     1.0000 0.80420  0.44885  0.75150  Biso   1.000  H
  H460     1.0000 0.17120  0.75794  0.07677  Biso   1.000  H
  H461     1.0000 0.96096  0.71235  0.70106  Biso   1.000  H
  H462     1.0000 0.25078  0.46192  0.87795  Biso   1.000  H
  H463     1.0000 0.83119  0.24531  0.51915  Biso   1.000  H
  H464     1.0000 0.01388  0.15504  0.79731  Biso   1.000  H
  H465     1.0000 0.67787  0.00853  0.74750  Biso   1.000  H
  H466     1.0000 0.32474  0.25027  0.03606  Biso   1.000  H
  H467     1.0000 0.54493  0.20680  0.70529  Biso   1.000  H
  H468     1.0000 0.17120  0.96135  0.80288  Biso   1.000  H
  H469     1.0000 0.33050  0.21254  0.55461  Biso   1.000  H
  H470     1.0000 0.53825  0.25318  0.20310  Biso   1.000  H
  H471     1.0000 0.18850  0.50245  0.31530  Biso   1.000  H
  H472     1.0000 0.76702  0.15857  0.99121  Biso   1.000  H
  H473     1.0000 0.02471  0.24747  0.36346  Biso   1.000  H
  H474     1.0000 0.73770  0.48661  0.19462  Biso   1.000  H
  H475     1.0000 0.21336  0.65446  0.50364  Biso   1.000  H
  H476     1.0000 0.01806  0.80464  0.25839  Biso   1.000  H
  H477     1.0000 0.31478  0.02428  0.30586  Biso   1.000  H
  H478     1.0000 0.72358  0.65551  0.01223  Biso   1.000  H
  H479     1.0000 0.46246  0.76338  0.35903  Biso   1.000  H
  H480     1.0000 0.81734  0.01380  0.25279  Biso   1.000  H
  N1       1.0000 0.67260  0.14968  0.54416  Biso   1.000  N
  N2       1.0000 0.49439  0.65549  0.21187  Biso   1.000  N
  N3       1.0000 0.16001  0.47928  0.72109  Biso   1.000  N
  N4       1.0000 0.16796  0.15866  0.02403  Biso   1.000  N
  N5       1.0000 0.99280  0.64995  0.35430  Biso   1.000  N
  N6       1.0000 0.65344  0.48915  0.84860  Biso   1.000  N
  N7       1.0000 0.80756  0.64819  0.53134  Biso   1.000  N
  N8       1.0000 0.99121  0.15119  0.21155  Biso   1.000  N
  N9       1.0000 0.32476  0.98677  0.71254  Biso   1.000  N
  N10      1.0000 0.31640  0.65391  0.04967  Biso   1.000  N
  N11      1.0000 0.50258  0.15843  0.35647  Biso   1.000  N
  N12      1.0000 0.82372  0.96818  0.84853  Biso   1.000  N
  N13      1.0000 0.31112  0.80590  0.53188  Biso   1.000  N
  N14      1.0000 0.50777  0.30444  0.85308  Biso   1.000  N
  N15      1.0000 0.83528  0.46488  0.34531  Biso   1.000  N
  N16      1.0000 0.82456  0.80395  0.03920  Biso   1.000  N
  N17      1.0000 0.99869  0.30967  0.70829  Biso   1.000  N
  N18      1.0000 0.32838  0.45152  0.22498  Biso   1.000  N
  N19      1.0000 0.17460  0.30915  0.53119  Biso   1.000  N
  N20      1.0000 0.00582  0.80853  0.85232  Biso   1.000  N
  N21      1.0000 0.66649  0.98801  0.34870  Biso   1.000  N
  N22      1.0000 0.66876  0.30734  0.03558  Biso   1.000  N
  N23      1.0000 0.49458  0.80627  0.71256  Biso   1.000  N
  N24      1.0000 0.16330  0.99401  0.21050  Biso   1.000  N
  N25      1.0000 0.80335  0.47726  0.70109  Biso   1.000  N
  N26      1.0000 0.66259  0.79813  0.52924  Biso   1.000  N
  N27      1.0000 0.48401  0.65339  0.85842  Biso   1.000  N
  N28      1.0000 0.30336  0.48822  0.87385  Biso   1.000  N
  N29      1.0000 0.17483  0.80722  0.04519  Biso   1.000  N
  N30      1.0000 0.98990  0.66044  0.70244  Biso   1.000  N
  N31      1.0000 0.67895  0.97431  0.69995  Biso   1.000  N
  N32      1.0000 0.82401  0.29649  0.53726  Biso   1.000  N
  N33      1.0000 0.98962  0.15865  0.85376  Biso   1.000  N
  N34      1.0000 0.17300  0.98313  0.85923  Biso   1.000  N
  N35      1.0000 0.31773  0.30553  0.01878  Biso   1.000  N
  N36      1.0000 0.51439  0.15654  0.70855  Biso   1.000  N
  N37      1.0000 0.18315  0.47806  0.36811  Biso   1.000  N
  N38      1.0000 0.31972  0.15687  0.53422  Biso   1.000  N
  N39      1.0000 0.50939  0.30453  0.20550  Biso   1.000  N
  N40      1.0000 0.68235  0.46666  0.20161  Biso   1.000  N
  N41      1.0000 0.81478  0.15698  0.02436  Biso   1.000  N
  N42      1.0000 0.99446  0.29941  0.35833  Biso   1.000  N
  N43      1.0000 0.31155  0.99613  0.35750  Biso   1.000  N
  N44      1.0000 0.15929  0.66137  0.52744  Biso   1.000  N
  N45      1.0000 0.99108  0.79958  0.20847  Biso   1.000  N
  N46      1.0000 0.81437  0.98303  0.20381  Biso   1.000  N
  N47      1.0000 0.67280  0.65848  0.03970  Biso   1.000  N
  N48      1.0000 0.49760  0.80707  0.35868  Biso   1.000  N
  O1       1.0000 0.33613  0.51796  0.04994  Biso   1.000  O
  O2       1.0000 0.00275  0.32973  0.57541  Biso   1.000  O
  O3       1.0000 0.53339  0.98620  0.37441  Biso   1.000  O
  O4       1.0000 0.83372  0.51379  0.52647  Biso   1.000  O
  O5       1.0000 0.49903  0.32628  0.98773  Biso   1.000  O
  O6       1.0000 0.02979  0.97434  0.19061  Biso   1.000  O
  O7       1.0000 0.14709  0.02496  0.03146  Biso   1.000  O
  O8       1.0000 0.48244  0.82308  0.57672  Biso   1.000  O
  O9       1.0000 0.96695  0.47504  0.37565  Biso   1.000  O
  O10      1.0000 0.65029  0.01491  0.53190  Biso   1.000  O
  O11      1.0000 0.00348  0.82199  0.99054  Biso   1.000  O
  O12      1.0000 0.46282  0.47753  0.19414  Biso   1.000  O
  O13      1.0000 0.64846  0.44010  0.02944  Biso   1.000  O
  O14      1.0000 0.97276  0.63092  0.49012  Biso   1.000  O
  O15      1.0000 0.46224  0.97841  0.69174  Biso   1.000  O
  O16      1.0000 0.15203  0.44364  0.53534  Biso   1.000  O
  O17      1.0000 0.49946  0.63213  0.07785  Biso   1.000  O
  O18      1.0000 0.95429  0.97470  0.87177  Biso   1.000  O
  O19      1.0000 0.84114  0.93796  0.03342  Biso   1.000  O
  O20      1.0000 0.49990  0.13772  0.49321  Biso   1.000  O
  O21      1.0000 0.02607  0.48778  0.68680  Biso   1.000  O
  O22      1.0000 0.33165  0.94094  0.53549  Biso   1.000  O
  O23      1.0000 0.99274  0.13369  0.07384  Biso   1.000  O
  O24      1.0000 0.51922  0.48072  0.87390  Biso   1.000  O
  O25      1.0000 0.94723  0.97826  0.18786  Biso   1.000  O
  O26      1.0000 0.15092  0.94194  0.04578  Biso   1.000  O
  O27      1.0000 0.98950  0.13851  0.99094  Biso   1.000  O
  O28      1.0000 0.44762  0.98936  0.37629  Biso   1.000  O
  O29      1.0000 0.65021  0.93220  0.52131  Biso   1.000  O
  O30      1.0000 0.49243  0.13862  0.57571  Biso   1.000  O
  O31      1.0000 0.54578  0.48477  0.19023  Biso   1.000  O
  O32      1.0000 0.33506  0.43660  0.04329  Biso   1.000  O
  O33      1.0000 0.49256  0.63314  0.99469  Biso   1.000  O
  O34      1.0000 0.05148  0.47619  0.37877  Biso   1.000  O
  O35      1.0000 0.83591  0.43189  0.52926  Biso   1.000  O
  O36      1.0000 0.99676  0.63723  0.56928  Biso   1.000  O
  O37      1.0000 0.03678  0.99294  0.87811  Biso   1.000  O
  O38      1.0000 0.83518  0.02089  0.02213  Biso   1.000  O
  O39      1.0000 0.99804  0.81711  0.07411  Biso   1.000  O
  O40      1.0000 0.54206  0.98237  0.68528  Biso   1.000  O
  O41      1.0000 0.33893  0.02307  0.53712  Biso   1.000  O
  O42      1.0000 0.49294  0.82726  0.49454  Biso   1.000  O
  O43      1.0000 0.43625  0.47059  0.87967  Biso   1.000  O
  O44      1.0000 0.65368  0.52545  0.02868  Biso   1.000  O
  O45      1.0000 0.48969  0.32421  0.07279  Biso   1.000  O
  O46      1.0000 0.94057  0.48253  0.68800  Biso   1.000  O
  O47      1.0000 0.14708  0.52698  0.54729  Biso   1.000  O
  O48      1.0000 0.99498  0.32180  0.49062  Biso   1.000  O
  O49      1.0000 0.98612  0.93378  0.18680  Biso   1.000  O
  O50      1.0000 0.14992  0.97891  0.99444  Biso   1.000  O
  O51      1.0000 0.94970  0.13673  0.03339  Biso   1.000  O
  O52      1.0000 0.49034  0.94239  0.37742  Biso   1.000  O
  O53      1.0000 0.65271  0.96891  0.56547  Biso   1.000  O
  O54      1.0000 0.45336  0.13658  0.53345  Biso   1.000  O
  O55      1.0000 0.50382  0.43929  0.18972  Biso   1.000  O
  O56      1.0000 0.32905  0.48278  0.00749  Biso   1.000  O
  O57      1.0000 0.53833  0.63846  0.03342  Biso   1.000  O
  O58      1.0000 0.00463  0.43385  0.37574  Biso   1.000  O
  O59      1.0000 0.83277  0.47293  0.56873  Biso   1.000  O
  O60      1.0000 0.02496  0.62973  0.51975  Biso   1.000  O
  O61      1.0000 0.98644  0.02362  0.87648  Biso   1.000  O
  O62      1.0000 0.83696  0.98059  0.07002  Biso   1.000  O
  O63      1.0000 0.04181  0.82224  0.03420  Biso   1.000  O
  O64      1.0000 0.50207  0.02345  0.68811  Biso   1.000  O
  O65      1.0000 0.33138  0.98453  0.49191  Biso   1.000  O
  O66      1.0000 0.52979  0.82087  0.54047  Biso   1.000  O
  O67      1.0000 0.47673  0.51938  0.87653  Biso   1.000  O
  O68      1.0000 0.65204  0.47942  0.07066  Biso   1.000  O
  O69      1.0000 0.45257  0.32347  0.02244  Biso   1.000  O
  O70      1.0000 0.98287  0.52731  0.68536  Biso   1.000  O
  O71      1.0000 0.15146  0.48756  0.50032  Biso   1.000  O
  O72      1.0000 0.95591  0.32771  0.53761  Biso   1.000  O
  O73      1.0000 0.98428  0.44433  0.69022  Biso   1.000  O
  O74      1.0000 0.64636  0.97600  0.48250  Biso   1.000  O
  O75      1.0000 0.45348  0.63396  0.04034  Biso   1.000  O
  O76      1.0000 0.48216  0.43556  0.87383  Biso   1.000  O
  O77      1.0000 0.14520  0.98759  0.07752  Biso   1.000  O
  O78      1.0000 0.94342  0.63597  0.54137  Biso   1.000  O
  O79      1.0000 0.50631  0.93972  0.68719  Biso   1.000  O
  O80      1.0000 0.84264  0.46857  0.48501  Biso   1.000  O
  O81      1.0000 0.03209  0.13490  0.02760  Biso   1.000  O
  O82      1.0000 0.00375  0.94166  0.87509  Biso   1.000  O
  O83      1.0000 0.33837  0.47020  0.09033  Biso   1.000  O
  O84      1.0000 0.53585  0.13631  0.53786  Biso   1.000  O
  O85      1.0000 0.01094  0.51624  0.38008  Biso   1.000  O
  O86      1.0000 0.33638  0.97968  0.57849  Biso   1.000  O
  O87      1.0000 0.53525  0.32239  0.03046  Biso   1.000  O
  O88      1.0000 0.50253  0.52077  0.19398  Biso   1.000  O
  O89      1.0000 0.83719  0.97425  0.98294  Biso   1.000  O
  O90      1.0000 0.03992  0.32886  0.53070  Biso   1.000  O
  O91      1.0000 0.48991  0.02339  0.37549  Biso   1.000  O
  O92      1.0000 0.14928  0.47894  0.58491  Biso   1.000  O
  O93      1.0000 0.96088  0.82134  0.03005  Biso   1.000  O
  O94      1.0000 0.99181  0.02004  0.18899  Biso   1.000  O
  O95      1.0000 0.64398  0.48424  0.98598  Biso   1.000  O
  O96      1.0000 0.44593  0.82733  0.53198  Biso   1.000  O
  O97      1.0000 0.45745  0.18619  0.53499  Biso   1.000  O
  O98      1.0000 0.50367  0.43839  0.23852  Biso   1.000  O
  O99      1.0000 0.19952  0.49933  0.50460  Biso   1.000  O
  O100     1.0000 0.95103  0.18561  0.03309  Biso   1.000  O
  O101     1.0000 0.00757  0.43285  0.32789  Biso   1.000  O
  O102     1.0000 0.70069  0.47468  0.06517  Biso   1.000  O
  O103     1.0000 0.02663  0.67827  0.52413  Biso   1.000  O
  O104     1.0000 0.98899  0.93303  0.23411  Biso   1.000  O
  O105     1.0000 0.28372  0.98403  0.49592  Biso   1.000  O
  O106     1.0000 0.53747  0.68619  0.03582  Biso   1.000  O
  O107     1.0000 0.48638  0.94251  0.32955  Biso   1.000  O
  O108     1.0000 0.78927  0.97692  0.06784  Biso   1.000  O
  O109     1.0000 0.52775  0.77187  0.54007  Biso   1.000  O
  O110     1.0000 0.47386  0.51897  0.82844  Biso   1.000  O
  O111     1.0000 0.78569  0.46776  0.56398  Biso   1.000  O
  O112     1.0000 0.04229  0.77406  0.03744  Biso   1.000  O
  O113     1.0000 0.97782  0.52794  0.73394  Biso   1.000  O
  O114     1.0000 0.28148  0.48083  0.01053  Biso   1.000  O
  O115     1.0000 0.96060  0.27884  0.54020  Biso   1.000  O
  O116     1.0000 0.98957  0.02449  0.82720  Biso   1.000  O
  O117     1.0000 0.70073  0.97223  0.56249  Biso   1.000  O
  O118     1.0000 0.45148  0.27629  0.02800  Biso   1.000  O
  O119     1.0000 0.50051  0.02319  0.73848  Biso   1.000  O
  O120     1.0000 0.19892  0.97426  0.99730  Biso   1.000  O
  O121     1.0000 0.02162  0.48772  0.73638  Biso   1.000  O
  O122     1.0000 0.69898  0.01546  0.53004  Biso   1.000  O
  O123     1.0000 0.49675  0.68049  0.07622  Biso   1.000  O
  O124     1.0000 0.51705  0.48160  0.82495  Biso   1.000  O
  O125     1.0000 0.19630  0.02607  0.02824  Biso   1.000  O
  O126     1.0000 0.97814  0.67969  0.48603  Biso   1.000  O
  O127     1.0000 0.46196  0.98266  0.73940  Biso   1.000  O
  O128     1.0000 0.78461  0.50957  0.52255  Biso   1.000  O
  O129     1.0000 0.99599  0.18335  0.07663  Biso   1.000  O
  O130     1.0000 0.95859  0.97485  0.82399  Biso   1.000  O
  O131     1.0000 0.28866  0.51639  0.06064  Biso   1.000  O
  O132     1.0000 0.50061  0.18569  0.49230  Biso   1.000  O
  O133     1.0000 0.96903  0.47300  0.32823  Biso   1.000  O
  O134     1.0000 0.28223  0.93997  0.54064  Biso   1.000  O
  O135     1.0000 0.49605  0.27811  0.98630  Biso   1.000  O
  O136     1.0000 0.46448  0.48015  0.24239  Biso   1.000  O
  O137     1.0000 0.79107  0.93387  0.03060  Biso   1.000  O
  O138     1.0000 0.00526  0.28170  0.57496  Biso   1.000  O
  O139     1.0000 0.53060  0.98004  0.32653  Biso   1.000  O
  O140     1.0000 0.20116  0.44799  0.53807  Biso   1.000  O
  O141     1.0000 0.00652  0.77386  0.98713  Biso   1.000  O
  O142     1.0000 0.03017  0.97440  0.24050  Biso   1.000  O
  O143     1.0000 0.69597  0.44044  0.01956  Biso   1.000  O
  O144     1.0000 0.48506  0.77530  0.57880  Biso   1.000  O
  O145     1.0000 0.54865  0.47898  0.23865  Biso   1.000  O
  O146     1.0000 0.19625  0.53038  0.54936  Biso   1.000  O
  O147     1.0000 0.49795  0.18617  0.57581  Biso   1.000  O
  O148     1.0000 0.05235  0.47308  0.32927  Biso   1.000  O
  O149     1.0000 0.70195  0.52318  0.02981  Biso   1.000  O
  O150     1.0000 0.99560  0.18675  0.99015  Biso   1.000  O
  O151     1.0000 0.94730  0.97243  0.23621  Biso   1.000  O
  O152     1.0000 0.28998  0.02279  0.54013  Biso   1.000  O
  O153     1.0000 0.99492  0.68611  0.56862  Biso   1.000  O
  O154     1.0000 0.44522  0.97952  0.32875  Biso   1.000  O
  O155     1.0000 0.78700  0.01927  0.02781  Biso   1.000  O
  O156     1.0000 0.49347  0.68136  0.99330  Biso   1.000  O
  O157     1.0000 0.43400  0.47525  0.83126  Biso   1.000  O
  O158     1.0000 0.78722  0.42664  0.51877  Biso   1.000  O
  O159     1.0000 0.49343  0.77852  0.49367  Biso   1.000  O
  O160     1.0000 0.93759  0.48639  0.73436  Biso   1.000  O
  O161     1.0000 0.28550  0.43493  0.04595  Biso   1.000  O
  O162     1.0000 0.99640  0.76817  0.07147  Biso   1.000  O
  O163     1.0000 0.03843  0.99637  0.82914  Biso   1.000  O
  O164     1.0000 0.69862  0.93314  0.51223  Biso   1.000  O
  O165     1.0000 0.99434  0.27363  0.49366  Biso   1.000  O
  O166     1.0000 0.54371  0.98437  0.73385  Biso   1.000  O
  O167     1.0000 0.19981  0.94307  0.04258  Biso   1.000  O
  O168     1.0000 0.49055  0.27500  0.07184  Biso   1.000  O
  O169     1.0000 0.99120  0.01671  0.23700  Biso   1.000  O
  O170     1.0000 0.19435  0.99117  0.07808  Biso   1.000  O
  O171     1.0000 0.03332  0.18148  0.03419  Biso   1.000  O
  O172     1.0000 0.49265  0.02407  0.32694  Biso   1.000  O
  O173     1.0000 0.69546  0.98422  0.48192  Biso   1.000  O
  O174     1.0000 0.54152  0.18483  0.53662  Biso   1.000  O
  O175     1.0000 0.50721  0.52092  0.24215  Biso   1.000  O
  O176     1.0000 0.29075  0.46925  0.09348  Biso   1.000  O
  O177     1.0000 0.45288  0.68247  0.03825  Biso   1.000  O
  O178     1.0000 0.01335  0.51565  0.33134  Biso   1.000  O
  O179     1.0000 0.79490  0.46733  0.47976  Biso   1.000  O
  O180     1.0000 0.94425  0.68417  0.53585  Biso   1.000  O
  O181     1.0000 0.01127  0.94398  0.82738  Biso   1.000  O
  O182     1.0000 0.78821  0.97551  0.98271  Biso   1.000  O
  O183     1.0000 0.95980  0.77219  0.02477  Biso   1.000  O
  O184     1.0000 0.50989  0.94298  0.73539  Biso   1.000  O
  O185     1.0000 0.28753  0.97914  0.58130  Biso   1.000  O
  O186     1.0000 0.44543  0.77841  0.53183  Biso   1.000  O
  O187     1.0000 0.48184  0.43798  0.82545  Biso   1.000  O
  O188     1.0000 0.69173  0.48320  0.97857  Biso   1.000  O
  O189     1.0000 0.53353  0.27358  0.03159  Biso   1.000  O
  O190     1.0000 0.98270  0.44325  0.73882  Biso   1.000  O
  O191     1.0000 0.19939  0.48204  0.58676  Biso   1.000  O
  O192     1.0000 0.03978  0.28062  0.52690  Biso   1.000  O
