data_image0
_cell_length_a       46.7001
_cell_length_b       47.1524
_cell_length_c       46.5381
_cell_angle_alpha    90
_cell_angle_beta     90
_cell_angle_gamma    90

_symmetry_space_group_name_H-M    "P 1"
_symmetry_int_tables_number       1

loop_
  _symmetry_equiv_pos_as_xyz
  'x, y, z'

loop_
  _atom_site_label
  _atom_site_occupancy
  _atom_site_fract_x
  _atom_site_fract_y
  _atom_site_fract_z
  _atom_site_thermal_displace_type
  _atom_site_B_iso_or_equiv
  _atom_site_type_symbol
  C1       1.0000 0.58414  0.97042  0.31813  Biso   1.000  C
  C2       1.0000 0.33222  0.53329  0.00204  Biso   1.000  C
  C3       1.0000 0.02815  0.29378  0.54977  Biso   1.000  C
  C4       1.0000 0.07998  0.98603  0.17128  Biso   1.000  C
  C5       1.0000 0.83502  0.51806  0.49156  Biso   1.000  C
  C6       1.0000 0.50997  0.30039  0.94169  Biso   1.000  C
  C7       1.0000 0.96009  0.48688  0.31406  Biso   1.000  C
  C8       1.0000 0.19621  0.02994  0.98162  Biso   1.000  C
  C9       1.0000 0.51325  0.79687  0.55634  Biso   1.000  C
  C10      1.0000 0.45751  0.47655  0.17989  Biso   1.000  C
  C11      1.0000 0.70320  0.02129  0.49835  Biso   1.000  C
  C12      1.0000 0.01245  0.80026  0.93670  Biso   1.000  C
  C13      1.0000 0.45137  0.97272  0.67256  Biso   1.000  C
  C14      1.0000 0.69771  0.42538  0.99198  Biso   1.000  C
  C15      1.0000 0.00363  0.65644  0.43614  Biso   1.000  C
  C16      1.0000 0.94975  0.98055  0.81604  Biso   1.000  C
  C17      1.0000 0.19532  0.42917  0.50524  Biso   1.000  C
  C18      1.0000 0.51022  0.65707  0.05207  Biso   1.000  C
  C19      1.0000 0.07107  0.47524  0.67595  Biso   1.000  C
  C20      1.0000 0.82986  0.92739  0.01244  Biso   1.000  C
  C21      1.0000 0.52061  0.15218  0.43945  Biso   1.000  C
  C22      1.0000 0.56912  0.48783  0.81317  Biso   1.000  C
  C23      1.0000 0.33011  0.92768  0.49230  Biso   1.000  C
  C24      1.0000 0.01162  0.15770  0.05065  Biso   1.000  C
  C25      1.0000 0.33421  0.03695  0.48790  Biso   1.000  C
  C26      1.0000 0.52035  0.30246  0.05238  Biso   1.000  C
  C27      1.0000 0.06623  0.45783  0.31662  Biso   1.000  C
  C28      1.0000 0.83389  0.03646  0.00630  Biso   1.000  C
  C29      1.0000 0.01325  0.29108  0.44036  Biso   1.000  C
  C30      1.0000 0.56599  0.48735  0.17510  Biso   1.000  C
  C31      1.0000 0.19847  0.53924  0.48822  Biso   1.000  C
  C32      1.0000 0.00920  0.80489  0.04817  Biso   1.000  C
  C33      1.0000 0.47246  0.97920  0.31503  Biso   1.000  C
  C34      1.0000 0.69833  0.53341  0.99149  Biso   1.000  C
  C35      1.0000 0.50928  0.79648  0.44761  Biso   1.000  C
  C36      1.0000 0.97385  0.97241  0.18068  Biso   1.000  C
  C37      1.0000 0.70184  0.91442  0.51072  Biso   1.000  C
  C38      1.0000 0.51072  0.65476  0.94352  Biso   1.000  C
  C39      1.0000 0.96066  0.46508  0.67678  Biso   1.000  C
  C40      1.0000 0.19200  0.92046  0.98919  Biso   1.000  C
  C41      1.0000 0.01786  0.65006  0.54542  Biso   1.000  C
  C42      1.0000 0.46195  0.46640  0.81857  Biso   1.000  C
  C43      1.0000 0.83747  0.41070  0.49916  Biso   1.000  C
  C44      1.0000 0.02547  0.15238  0.94268  Biso   1.000  C
  C45      1.0000 0.55701  0.98115  0.67664  Biso   1.000  C
  C46      1.0000 0.33119  0.42402  0.00386  Biso   1.000  C
  C47      1.0000 0.51842  0.15441  0.54922  Biso   1.000  C
  C48      1.0000 0.05871  0.97162  0.80876  Biso   1.000  C
  C49      1.0000 0.01109  0.02964  0.81051  Biso   1.000  C
  C50      1.0000 0.83549  0.98206  0.06311  Biso   1.000  C
  C51      1.0000 0.06419  0.79828  0.99895  Biso   1.000  C
  C52      1.0000 0.49968  0.02947  0.67953  Biso   1.000  C
  C53      1.0000 0.33558  0.98132  0.43347  Biso   1.000  C
  C54      1.0000 0.56827  0.79270  0.50396  Biso   1.000  C
  C55      1.0000 0.50679  0.52923  0.81489  Biso   1.000  C
  C56      1.0000 0.69268  0.48212  0.04582  Biso   1.000  C
  C57      1.0000 0.46043  0.30038  0.00288  Biso   1.000  C
  C58      1.0000 0.00889  0.52670  0.67599  Biso   1.000  C
  C59      1.0000 0.19927  0.47450  0.44163  Biso   1.000  C
  C60      1.0000 0.96564  0.28851  0.50368  Biso   1.000  C
  C61      1.0000 0.03793  0.92148  0.17871  Biso   1.000  C
  C62      1.0000 0.19353  0.97280  0.92968  Biso   1.000  C
  C63      1.0000 0.96562  0.15497  0.98867  Biso   1.000  C
  C64      1.0000 0.52322  0.92186  0.31670  Biso   1.000  C
  C65      1.0000 0.69675  0.97802  0.56077  Biso   1.000  C
  C66      1.0000 0.46546  0.15781  0.49016  Biso   1.000  C
  C67      1.0000 0.51904  0.42655  0.17510  Biso   1.000  C
  C68      1.0000 0.33043  0.47623  0.94564  Biso   1.000  C
  C69      1.0000 0.56781  0.65692  0.00200  Biso   1.000  C
  C70      1.0000 0.99948  0.42205  0.31349  Biso   1.000  C
  C71      1.0000 0.83509  0.46669  0.54710  Biso   1.000  C
  C72      1.0000 0.06316  0.65583  0.48565  Biso   1.000  C
  C73      1.0000 0.02463  0.52798  0.31324  Biso   1.000  C
  C74      1.0000 0.32917  0.98733  0.54251  Biso   1.000  C
  C75      1.0000 0.57019  0.29898  0.99411  Biso   1.000  C
  C76      1.0000 0.51016  0.53345  0.18158  Biso   1.000  C
  C77      1.0000 0.83115  0.98502  0.95308  Biso   1.000  C
  C78      1.0000 0.07457  0.29784  0.48461  Biso   1.000  C
  C79      1.0000 0.52890  0.03015  0.31405  Biso   1.000  C
  C80      1.0000 0.19490  0.48742  0.54889  Biso   1.000  C
  C81      1.0000 0.95439  0.80378  0.98914  Biso   1.000  C
  C82      1.0000 0.01952  0.02887  0.17137  Biso   1.000  C
  C83      1.0000 0.70164  0.48148  0.93641  Biso   1.000  C
  C84      1.0000 0.45761  0.79973  0.50137  Biso   1.000  C
  C85      1.0000 0.01865  0.41985  0.67763  Biso   1.000  C
  C86      1.0000 0.70809  0.95939  0.45296  Biso   1.000  C
  C87      1.0000 0.45936  0.65625  0.00249  Biso   1.000  C
  C88      1.0000 0.52485  0.42216  0.81323  Biso   1.000  C
  C89      1.0000 0.19618  0.98000  0.03891  Biso   1.000  C
  C90      1.0000 0.95442  0.64987  0.49256  Biso   1.000  C
  C91      1.0000 0.50927  0.92354  0.67867  Biso   1.000  C
  C92      1.0000 0.83327  0.46405  0.43808  Biso   1.000  C
  C93      1.0000 0.07353  0.15717  0.00762  Biso   1.000  C
  C94      1.0000 0.00145  0.92423  0.80874  Biso   1.000  C
  C95      1.0000 0.32669  0.47656  0.05490  Biso   1.000  C
  C96      1.0000 0.57388  0.15004  0.49697  Biso   1.000  C
  C97      1.0000 0.70200  0.05273  0.49251  Biso   1.000  C
  C98      1.0000 0.51071  0.65839  0.08538  Biso   1.000  C
  C99      1.0000 0.10296  0.47574  0.67670  Biso   1.000  C
  C100     1.0000 0.19769  0.06206  0.98644  Biso   1.000  C
  C101     1.0000 0.00658  0.65534  0.40442  Biso   1.000  C
  C102     1.0000 0.60166  0.49186  0.81001  Biso   1.000  C
  C103     1.0000 0.83329  0.54904  0.49711  Biso   1.000  C
  C104     1.0000 0.01022  0.15724  0.08224  Biso   1.000  C
  C105     1.0000 0.41838  0.96878  0.67115  Biso   1.000  C
  C106     1.0000 0.33204  0.56367  0.00805  Biso   1.000  C
  C107     1.0000 0.52142  0.15353  0.40797  Biso   1.000  C
  C108     1.0000 0.91852  0.98286  0.82046  Biso   1.000  C
  C109     1.0000 0.32934  0.89552  0.49422  Biso   1.000  C
  C110     1.0000 0.50986  0.29985  0.90973  Biso   1.000  C
  C111     1.0000 0.92702  0.49001  0.31339  Biso   1.000  C
  C112     1.0000 0.83146  0.89669  0.02077  Biso   1.000  C
  C113     1.0000 0.03375  0.29387  0.58254  Biso   1.000  C
  C114     1.0000 0.42627  0.47422  0.18130  Biso   1.000  C
  C115     1.0000 0.19743  0.39740  0.50320  Biso   1.000  C
  C116     1.0000 0.01221  0.80000  0.90434  Biso   1.000  C
  C117     1.0000 0.61630  0.96259  0.32042  Biso   1.000  C
  C118     1.0000 0.69702  0.39337  0.99204  Biso   1.000  C
  C119     1.0000 0.52239  0.79502  0.58855  Biso   1.000  C
  C120     1.0000 0.11017  0.99645  0.16968  Biso   1.000  C
  C121     1.0000 0.83867  0.98341  0.09442  Biso   1.000  C
  C122     1.0000 0.09685  0.79688  0.00297  Biso   1.000  C
  C123     1.0000 0.01394  0.06104  0.81265  Biso   1.000  C
  C124     1.0000 0.33851  0.98425  0.40197  Biso   1.000  C
  C125     1.0000 0.60063  0.79233  0.50180  Biso   1.000  C
  C126     1.0000 0.50184  0.06207  0.68041  Biso   1.000  C
  C127     1.0000 0.69380  0.48782  0.07777  Biso   1.000  C
  C128     1.0000 0.42927  0.30041  0.00823  Biso   1.000  C
  C129     1.0000 0.50144  0.56028  0.81690  Biso   1.000  C
  C130     1.0000 0.19829  0.46686  0.41055  Biso   1.000  C
  C131     1.0000 0.93478  0.28631  0.50081  Biso   1.000  C
  C132     1.0000 0.00501  0.55724  0.67524  Biso   1.000  C
  C133     1.0000 0.19192  0.96872  0.89766  Biso   1.000  C
  C134     1.0000 0.93383  0.15598  0.98786  Biso   1.000  C
  C135     1.0000 0.04243  0.88877  0.17878  Biso   1.000  C
  C136     1.0000 0.69258  0.98069  0.59202  Biso   1.000  C
  C137     1.0000 0.43326  0.15800  0.48537  Biso   1.000  C
  C138     1.0000 0.52055  0.88998  0.31768  Biso   1.000  C
  C139     1.0000 0.33112  0.47790  0.91348  Biso   1.000  C
  C140     1.0000 0.59970  0.65644  0.00097  Biso   1.000  C
  C141     1.0000 0.52154  0.39445  0.17655  Biso   1.000  C
  C142     1.0000 0.83422  0.46583  0.57899  Biso   1.000  C
  C143     1.0000 0.09514  0.65834  0.48600  Biso   1.000  C
  C144     1.0000 0.99751  0.38935  0.31521  Biso   1.000  C
  C145     1.0000 0.32689  0.47410  0.08740  Biso   1.000  C
  C146     1.0000 0.10623  0.30016  0.48180  Biso   1.000  C
  C147     1.0000 0.53348  0.06109  0.31290  Biso   1.000  C
  C148     1.0000 0.83344  0.47031  0.40649  Biso   1.000  C
  C149     1.0000 0.60255  0.29847  0.98975  Biso   1.000  C
  C150     1.0000 0.01293  0.05975  0.17350  Biso   1.000  C
  C151     1.0000 0.19713  0.98362  0.07090  Biso   1.000  C
  C152     1.0000 0.42454  0.79924  0.49953  Biso   1.000  C
  C153     1.0000 0.02774  0.55954  0.31154  Biso   1.000  C
  C154     1.0000 0.70911  0.95627  0.42022  Biso   1.000  C
  C155     1.0000 0.92320  0.80355  0.98857  Biso   1.000  C
  C156     1.0000 0.51525  0.56473  0.18062  Biso   1.000  C
  C157     1.0000 0.70175  0.48160  0.90470  Biso   1.000  C
  C158     1.0000 0.92179  0.64780  0.49708  Biso   1.000  C
  C159     1.0000 0.50840  0.89164  0.67870  Biso   1.000  C
  C160     1.0000 0.19371  0.48837  0.58279  Biso   1.000  C
  C161     1.0000 0.42809  0.65559  0.01398  Biso   1.000  C
  C162     1.0000 0.00472  0.89230  0.80833  Biso   1.000  C
  C163     1.0000 0.83125  0.99156  0.92195  Biso   1.000  C
  C164     1.0000 0.60639  0.14870  0.50309  Biso   1.000  C
  C165     1.0000 0.02320  0.38790  0.67832  Biso   1.000  C
  C166     1.0000 0.32811  0.98713  0.57517  Biso   1.000  C
  C167     1.0000 0.10616  0.15750  0.00748  Biso   1.000  C
  C168     1.0000 0.52687  0.38952  0.81381  Biso   1.000  C
  C169     1.0000 0.01574  0.80337  0.08052  Biso   1.000  C
  C170     1.0000 0.08954  0.96850  0.80708  Biso   1.000  C
  C171     1.0000 0.83477  0.06592  0.00128  Biso   1.000  C
  C172     1.0000 0.51082  0.79615  0.41680  Biso   1.000  C
  C173     1.0000 0.58968  0.97993  0.67701  Biso   1.000  C
  C174     1.0000 0.33531  0.07005  0.48958  Biso   1.000  C
  C175     1.0000 0.52604  0.30174  0.08422  Biso   1.000  C
  C176     1.0000 0.42983  0.46493  0.82086  Biso   1.000  C
  C177     1.0000 0.69903  0.56546  0.99403  Biso   1.000  C
  C178     1.0000 0.01123  0.29290  0.40819  Biso   1.000  C
  C179     1.0000 0.92945  0.45987  0.67705  Biso   1.000  C
  C180     1.0000 0.19742  0.57038  0.48996  Biso   1.000  C
  C181     1.0000 0.02463  0.15176  0.91114  Biso   1.000  C
  C182     1.0000 0.94251  0.97734  0.18369  Biso   1.000  C
  C183     1.0000 0.19267  0.88817  0.99161  Biso   1.000  C
  C184     1.0000 0.51451  0.15499  0.58143  Biso   1.000  C
  C185     1.0000 0.44107  0.98453  0.31414  Biso   1.000  C
  C186     1.0000 0.70112  0.88120  0.50877  Biso   1.000  C
  C187     1.0000 0.50403  0.65512  0.91158  Biso   1.000  C
  C188     1.0000 0.59713  0.49602  0.17145  Biso   1.000  C
  C189     1.0000 0.33281  0.39230  0.00718  Biso   1.000  C
  C190     1.0000 0.02225  0.64960  0.57734  Biso   1.000  C
  C191     1.0000 0.09877  0.45417  0.31658  Biso   1.000  C
  C192     1.0000 0.83884  0.37843  0.49814  Biso   1.000  C
  C193     1.0000 0.85550  0.98724  0.90420  Biso   1.000  C
  C194     1.0000 0.90844  0.82956  0.99776  Biso   1.000  C
  C195     1.0000 0.00325  0.87549  0.83511  Biso   1.000  C
  C196     1.0000 0.35321  0.98264  0.59363  Biso   1.000  C
  C197     1.0000 0.40798  0.82668  0.49885  Biso   1.000  C
  C198     1.0000 0.51502  0.87555  0.65324  Biso   1.000  C
  C199     1.0000 0.67380  0.48157  0.88776  Biso   1.000  C
  C200     1.0000 0.61680  0.32607  0.99028  Biso   1.000  C
  C201     1.0000 0.52469  0.37345  0.84068  Biso   1.000  C
  C202     1.0000 0.16614  0.48510  0.59914  Biso   1.000  C
  C203     1.0000 0.11962  0.32848  0.48687  Biso   1.000  C
  C204     1.0000 0.02465  0.37274  0.65133  Biso   1.000  C
  C205     1.0000 0.17164  0.99175  0.08648  Biso   1.000  C
  C206     1.0000 0.12125  0.13073  0.00239  Biso   1.000  C
  C207     1.0000 0.00863  0.07572  0.14583  Biso   1.000  C
  C208     1.0000 0.68305  0.95812  0.40337  Biso   1.000  C
  C209     1.0000 0.62224  0.12198  0.49844  Biso   1.000  C
  C210     1.0000 0.53005  0.07675  0.34030  Biso   1.000  C
  C211     1.0000 0.35581  0.47381  0.10052  Biso   1.000  C
  C212     1.0000 0.41045  0.62879  0.01282  Biso   1.000  C
  C213     1.0000 0.51618  0.58093  0.15366  Biso   1.000  C
  C214     1.0000 0.85865  0.47221  0.38911  Biso   1.000  C
  C215     1.0000 0.90852  0.61979  0.49594  Biso   1.000  C
  C216     1.0000 0.02218  0.57590  0.33773  Biso   1.000  C
  C217     1.0000 0.10701  0.96953  0.83433  Biso   1.000  C
  C218     1.0000 0.86162  0.08071  0.99288  Biso   1.000  C
  C219     1.0000 0.02381  0.82875  0.09624  Biso   1.000  C
  C220     1.0000 0.60771  0.97972  0.65148  Biso   1.000  C
  C221     1.0000 0.36275  0.08484  0.49141  Biso   1.000  C
  C222     1.0000 0.51592  0.82190  0.39879  Biso   1.000  C
  C223     1.0000 0.41380  0.46799  0.84719  Biso   1.000  C
  C224     1.0000 0.67195  0.58180  0.99597  Biso   1.000  C
  C225     1.0000 0.52184  0.32769  0.10107  Biso   1.000  C
  C226     1.0000 0.91422  0.46238  0.64903  Biso   1.000  C
  C227     1.0000 0.16772  0.58439  0.48846  Biso   1.000  C
  C228     1.0000 0.00615  0.31981  0.39284  Biso   1.000  C
  C229     1.0000 0.92348  0.97706  0.15742  Biso   1.000  C
  C230     1.0000 0.16458  0.87345  0.99642  Biso   1.000  C
  C231     1.0000 0.02084  0.12536  0.89443  Biso   1.000  C
  C232     1.0000 0.42396  0.98344  0.34056  Biso   1.000  C
  C233     1.0000 0.67388  0.86739  0.50645  Biso   1.000  C
  C234     1.0000 0.51126  0.12731  0.59820  Biso   1.000  C
  C235     1.0000 0.61391  0.49346  0.14483  Biso   1.000  C
  C236     1.0000 0.36141  0.37758  0.00867  Biso   1.000  C
  C237     1.0000 0.50112  0.62748  0.89639  Biso   1.000  C
  C238     1.0000 0.11485  0.45689  0.34404  Biso   1.000  C
  C239     1.0000 0.86584  0.36277  0.50024  Biso   1.000  C
  C240     1.0000 0.01627  0.62381  0.59450  Biso   1.000  C
  C241     1.0000 0.61982  0.48984  0.83628  Biso   1.000  C
  C242     1.0000 0.85970  0.56718  0.49602  Biso   1.000  C
  C243     1.0000 0.52555  0.82212  0.60304  Biso   1.000  C
  C244     1.0000 0.11791  0.47700  0.64996  Biso   1.000  C
  C245     1.0000 0.35785  0.58011  0.00958  Biso   1.000  C
  C246     1.0000 0.01055  0.82727  0.88800  Biso   1.000  C
  C247     1.0000 0.90364  0.98510  0.84920  Biso   1.000  C
  C248     1.0000 0.67415  0.06876  0.49221  Biso   1.000  C
  C249     1.0000 0.03106  0.32045  0.59839  Biso   1.000  C
  C250     1.0000 0.40236  0.97291  0.64362  Biso   1.000  C
  C251     1.0000 0.17112  0.07898  0.99104  Biso   1.000  C
  C252     1.0000 0.51452  0.32595  0.89165  Biso   1.000  C
  C253     1.0000 0.40933  0.47628  0.15451  Biso   1.000  C
  C254     1.0000 0.17001  0.38179  0.50100  Biso   1.000  C
  C255     1.0000 0.52614  0.12721  0.39240  Biso   1.000  C
  C256     1.0000 0.90908  0.48714  0.33897  Biso   1.000  C
  C257     1.0000 0.66991  0.37825  0.99391  Biso   1.000  C
  C258     1.0000 0.00663  0.12926  0.09656  Biso   1.000  C
  C259     1.0000 0.12271  0.99490  0.14130  Biso   1.000  C
  C260     1.0000 0.35726  0.88092  0.49601  Biso   1.000  C
  C261     1.0000 0.01388  0.62748  0.39030  Biso   1.000  C
  C262     1.0000 0.63166  0.96060  0.34840  Biso   1.000  C
  C263     1.0000 0.85770  0.88132  0.01460  Biso   1.000  C
  C264     1.0000 0.51463  0.63227  0.10376  Biso   1.000  C
  C265     1.0000 0.01543  0.07610  0.84051  Biso   1.000  C
  C266     1.0000 0.86723  0.98187  0.10863  Biso   1.000  C
  C267     1.0000 0.11351  0.82359  0.00094  Biso   1.000  C
  C268     1.0000 0.50635  0.07754  0.65345  Biso   1.000  C
  C269     1.0000 0.36818  0.98388  0.38950  Biso   1.000  C
  C270     1.0000 0.61743  0.82008  0.50260  Biso   1.000  C
  C271     1.0000 0.50366  0.57408  0.84496  Biso   1.000  C
  C272     1.0000 0.66637  0.49237  0.09371  Biso   1.000  C
  C273     1.0000 0.41286  0.32759  0.00832  Biso   1.000  C
  C274     1.0000 0.00590  0.57400  0.64893  Biso   1.000  C
  C275     1.0000 0.17029  0.46304  0.39582  Biso   1.000  C
  C276     1.0000 0.91949  0.31185  0.49414  Biso   1.000  C
  C277     1.0000 0.03950  0.87416  0.14987  Biso   1.000  C
  C278     1.0000 0.16420  0.97313  0.88379  Biso   1.000  C
  C279     1.0000 0.91589  0.12815  0.98782  Biso   1.000  C
  C280     1.0000 0.51850  0.87395  0.34505  Biso   1.000  C
  C281     1.0000 0.66361  0.98262  0.60495  Biso   1.000  C
  C282     1.0000 0.41577  0.13306  0.48939  Biso   1.000  C
  C283     1.0000 0.51827  0.37716  0.15057  Biso   1.000  C
  C284     1.0000 0.35908  0.47853  0.89857  Biso   1.000  C
  C285     1.0000 0.61696  0.63010  0.99683  Biso   1.000  C
  C286     1.0000 0.00017  0.37176  0.34063  Biso   1.000  C
  C287     1.0000 0.86169  0.46699  0.59590  Biso   1.000  C
  C288     1.0000 0.11224  0.63192  0.48641  Biso   1.000  C
  C289     1.0000 0.35574  0.84944  0.49804  Biso   1.000  C
  C290     1.0000 0.51714  0.32220  0.86112  Biso   1.000  C
  C291     1.0000 0.87722  0.48367  0.33770  Biso   1.000  C
  C292     1.0000 0.85696  0.85146  0.01047  Biso   1.000  C
  C293     1.0000 0.03522  0.32025  0.63023  Biso   1.000  C
  C294     1.0000 0.37858  0.47050  0.15541  Biso   1.000  C
  C295     1.0000 0.17157  0.35074  0.49406  Biso   1.000  C
  C296     1.0000 0.01124  0.82436  0.85638  Biso   1.000  C
  C297     1.0000 0.66304  0.95896  0.35026  Biso   1.000  C
  C298     1.0000 0.67014  0.34675  0.99261  Biso   1.000  C
  C299     1.0000 0.52271  0.82154  0.63436  Biso   1.000  C
  C300     1.0000 0.15574  0.99592  0.14109  Biso   1.000  C
  C301     1.0000 0.67499  0.10053  0.49311  Biso   1.000  C
  C302     1.0000 0.51289  0.63352  0.13493  Biso   1.000  C
  C303     1.0000 0.14968  0.47708  0.65218  Biso   1.000  C
  C304     1.0000 0.17306  0.11044  0.99326  Biso   1.000  C
  C305     1.0000 0.02105  0.62809  0.36019  Biso   1.000  C
  C306     1.0000 0.65028  0.48710  0.83498  Biso   1.000  C
  C307     1.0000 0.85622  0.59839  0.49887  Biso   1.000  C
  C308     1.0000 0.00270  0.13006  0.12768  Biso   1.000  C
  C309     1.0000 0.37082  0.97771  0.64706  Biso   1.000  C
  C310     1.0000 0.35769  0.61174  0.01378  Biso   1.000  C
  C311     1.0000 0.52448  0.12901  0.36161  Biso   1.000  C
  C312     1.0000 0.87238  0.98620  0.84963  Biso   1.000  C
  C313     1.0000 0.16986  0.46016  0.36431  Biso   1.000  C
  C314     1.0000 0.38505  0.13636  0.48556  Biso   1.000  C
  C315     1.0000 0.52239  0.34666  0.15395  Biso   1.000  C
  C316     1.0000 0.66750  0.49180  0.12522  Biso   1.000  C
  C317     1.0000 0.88553  0.13184  0.98895  Biso   1.000  C
  C318     1.0000 0.00186  0.34068  0.33831  Biso   1.000  C
  C319     1.0000 0.37056  0.98462  0.35803  Biso   1.000  C
  C320     1.0000 0.14331  0.63531  0.49062  Biso   1.000  C
  C321     1.0000 0.03564  0.84387  0.14913  Biso   1.000  C
  C322     1.0000 0.86802  0.97844  0.14027  Biso   1.000  C
  C323     1.0000 0.64901  0.63354  0.99783  Biso   1.000  C
  C324     1.0000 0.51710  0.84184  0.34641  Biso   1.000  C
  C325     1.0000 0.86006  0.46563  0.62774  Biso   1.000  C
  C326     1.0000 0.64814  0.81623  0.50482  Biso   1.000  C
  C327     1.0000 0.50253  0.60765  0.84539  Biso   1.000  C
  C328     1.0000 0.35944  0.47546  0.86639  Biso   1.000  C
  C329     1.0000 0.14476  0.81990  0.00193  Biso   1.000  C
  C330     1.0000 0.01255  0.60395  0.64885  Biso   1.000  C
  C331     1.0000 0.66183  0.98264  0.63585  Biso   1.000  C
  C332     1.0000 0.88688  0.30979  0.49791  Biso   1.000  C
  C333     1.0000 0.01899  0.10672  0.84134  Biso   1.000  C
  C334     1.0000 0.16177  0.97159  0.85273  Biso   1.000  C
  C335     1.0000 0.38199  0.32619  0.00831  Biso   1.000  C
  C336     1.0000 0.50867  0.10886  0.65229  Biso   1.000  C
  C337     1.0000 0.67326  0.48340  0.85650  Biso   1.000  C
  C338     1.0000 0.87663  0.61957  0.49665  Biso   1.000  C
  C339     1.0000 0.51678  0.84343  0.65571  Biso   1.000  C
  C340     1.0000 0.17013  0.47907  0.63024  Biso   1.000  C
  C341     1.0000 0.37945  0.63160  0.01409  Biso   1.000  C
  C342     1.0000 0.00825  0.84461  0.83518  Biso   1.000  C
  C343     1.0000 0.85174  0.98715  0.87315  Biso   1.000  C
  C344     1.0000 0.65365  0.12242  0.49559  Biso   1.000  C
  C345     1.0000 0.03226  0.34108  0.65254  Biso   1.000  C
  C346     1.0000 0.35040  0.98167  0.62429  Biso   1.000  C
  C347     1.0000 0.15296  0.13237  0.99669  Biso   1.000  C
  C348     1.0000 0.52013  0.34317  0.83845  Biso   1.000  C
  C349     1.0000 0.35655  0.46985  0.13316  Biso   1.000  C
  C350     1.0000 0.15104  0.32835  0.48846  Biso   1.000  C
  C351     1.0000 0.52659  0.10772  0.33953  Biso   1.000  C
  C352     1.0000 0.85602  0.47858  0.35823  Biso   1.000  C
  C353     1.0000 0.64875  0.32545  0.99023  Biso   1.000  C
  C354     1.0000 0.00324  0.10673  0.14799  Biso   1.000  C
  C355     1.0000 0.17553  0.99440  0.11833  Biso   1.000  C
  C356     1.0000 0.37689  0.82675  0.49828  Biso   1.000  C
  C357     1.0000 0.02339  0.60700  0.33791  Biso   1.000  C
  C358     1.0000 0.68392  0.95735  0.37273  Biso   1.000  C
  C359     1.0000 0.87683  0.82954  0.00293  Biso   1.000  C
  C360     1.0000 0.51405  0.61200  0.15573  Biso   1.000  C
  C361     1.0000 0.02234  0.12794  0.86264  Biso   1.000  C
  C362     1.0000 0.89166  0.97583  0.15988  Biso   1.000  C
  C363     1.0000 0.16535  0.84155  0.99858  Biso   1.000  C
  C364     1.0000 0.51073  0.12914  0.62915  Biso   1.000  C
  C365     1.0000 0.39274  0.98398  0.33733  Biso   1.000  C
  C366     1.0000 0.67245  0.83636  0.50611  Biso   1.000  C
  C367     1.0000 0.50033  0.63007  0.86470  Biso   1.000  C
  C368     1.0000 0.64483  0.49242  0.14707  Biso   1.000  C
  C369     1.0000 0.35941  0.34613  0.00863  Biso   1.000  C
  C370     1.0000 0.01565  0.62478  0.62686  Biso   1.000  C
  C371     1.0000 0.14755  0.45751  0.34266  Biso   1.000  C
  C372     1.0000 0.86511  0.33140  0.49958  Biso   1.000  C
  C373     1.0000 0.02795  0.82543  0.12729  Biso   1.000  C
  C374     1.0000 0.13877  0.97073  0.83201  Biso   1.000  C
  C375     1.0000 0.86214  0.11184  0.99076  Biso   1.000  C
  C376     1.0000 0.51700  0.81878  0.36761  Biso   1.000  C
  C377     1.0000 0.63824  0.98181  0.65630  Biso   1.000  C
  C378     1.0000 0.36289  0.11620  0.48529  Biso   1.000  C
  C379     1.0000 0.52518  0.32551  0.13249  Biso   1.000  C
  C380     1.0000 0.38291  0.47174  0.84695  Biso   1.000  C
  C381     1.0000 0.67188  0.61315  0.99748  Biso   1.000  C
  C382     1.0000 0.00328  0.31963  0.36079  Biso   1.000  C
  C383     1.0000 0.88297  0.46309  0.64949  Biso   1.000  C
  C384     1.0000 0.16701  0.61566  0.49098  Biso   1.000  C
  C385     1.0000 0.20091  0.12458  0.99170  Biso   1.000  C
  C386     1.0000 0.99986  0.15647  0.14454  Biso   1.000  C
  C387     1.0000 0.17272  0.00040  0.16692  Biso   1.000  C
  C388     1.0000 0.70186  0.11607  0.49358  Biso   1.000  C
  C389     1.0000 0.52081  0.15469  0.34566  Biso   1.000  C
  C390     1.0000 0.67902  0.95872  0.32369  Biso   1.000  C
  C391     1.0000 0.33077  0.62642  0.01670  Biso   1.000  C
  C392     1.0000 0.50774  0.66046  0.15005  Biso   1.000  C
  C393     1.0000 0.36348  0.46496  0.18176  Biso   1.000  C
  C394     1.0000 0.82815  0.61228  0.50324  Biso   1.000  C
  C395     1.0000 0.02169  0.65534  0.34479  Biso   1.000  C
  C396     1.0000 0.86248  0.48635  0.31090  Biso   1.000  C
  C397     1.0000 0.82980  0.83551  0.01161  Biso   1.000  C
  C398     1.0000 0.01454  0.79703  0.84066  Biso   1.000  C
  C399     1.0000 0.85530  0.98552  0.82392  Biso   1.000  C
  C400     1.0000 0.32846  0.83440  0.49742  Biso   1.000  C
  C401     1.0000 0.51973  0.79489  0.65014  Biso   1.000  C
  C402     1.0000 0.35422  0.97632  0.67222  Biso   1.000  C
  C403     1.0000 0.69673  0.33060  0.99147  Biso   1.000  C
  C404     1.0000 0.51443  0.29574  0.84556  Biso   1.000  C
  C405     1.0000 0.66538  0.48986  0.80777  Biso   1.000  C
  C406     1.0000 0.19916  0.33649  0.49414  Biso   1.000  C
  C407     1.0000 0.03978  0.29442  0.64463  Biso   1.000  C
  C408     1.0000 0.16562  0.47437  0.67837  Biso   1.000  C
  C409     1.0000 0.15361  0.96589  0.80456  Biso   1.000  C
  C410     1.0000 0.83638  0.13052  0.99401  Biso   1.000  C
  C411     1.0000 0.02515  0.79877  0.14250  Biso   1.000  C
  C412     1.0000 0.65203  0.97984  0.68335  Biso   1.000  C
  C413     1.0000 0.33566  0.13300  0.48129  Biso   1.000  C
  C414     1.0000 0.51187  0.79283  0.35203  Biso   1.000  C
  C415     1.0000 0.36748  0.46924  0.81974  Biso   1.000  C
  C416     1.0000 0.69780  0.62970  0.99871  Biso   1.000  C
  C417     1.0000 0.52887  0.29910  0.14759  Biso   1.000  C
  C418     1.0000 0.86731  0.46313  0.67571  Biso   1.000  C
  C419     1.0000 0.19381  0.63202  0.49526  Biso   1.000  C
  C420     1.0000 0.00556  0.29364  0.34482  Biso   1.000  C
  C421     1.0000 0.87796  0.97311  0.18719  Biso   1.000  C
  C422     1.0000 0.19243  0.82519  0.99965  Biso   1.000  C
  C423     1.0000 0.02836  0.15428  0.84777  Biso   1.000  C
  C424     1.0000 0.37824  0.98571  0.30992  Biso   1.000  C
  C425     1.0000 0.69773  0.81842  0.50711  Biso   1.000  C
  C426     1.0000 0.51136  0.15703  0.64450  Biso   1.000  C
  C427     1.0000 0.66115  0.49656  0.17370  Biso   1.000  C
  C428     1.0000 0.33350  0.33071  0.00900  Biso   1.000  C
  C429     1.0000 0.50049  0.65701  0.84953  Biso   1.000  C
  C430     1.0000 0.16307  0.45363  0.31657  Biso   1.000  C
  C431     1.0000 0.83911  0.31434  0.50014  Biso   1.000  C
  C432     1.0000 0.01960  0.65116  0.64202  Biso   1.000  C
  C433     1.0000 0.02336  0.12377  0.81434  Biso   1.000  C
  C434     1.0000 0.84242  0.97627  0.15772  Biso   1.000  C
  C435     1.0000 0.15946  0.79260  0.00509  Biso   1.000  C
  C436     1.0000 0.50902  0.12483  0.67995  Biso   1.000  C
  C437     1.0000 0.34422  0.98759  0.34000  Biso   1.000  C
  C438     1.0000 0.66252  0.78814  0.50323  Biso   1.000  C
  C439     1.0000 0.50115  0.62458  0.81844  Biso   1.000  C
  C440     1.0000 0.69429  0.49383  0.14018  Biso   1.000  C
  C441     1.0000 0.36669  0.29867  0.00869  Biso   1.000  C
  C442     1.0000 0.01532  0.61999  0.67584  Biso   1.000  C
  C443     1.0000 0.19649  0.45921  0.34798  Biso   1.000  C
  C444     1.0000 0.87233  0.28273  0.50118  Biso   1.000  C
  C445     1.0000 0.03989  0.82688  0.17525  Biso   1.000  C
  C446     1.0000 0.18809  0.96740  0.83540  Biso   1.000  C
  C447     1.0000 0.87102  0.15951  0.98721  Biso   1.000  C
  C448     1.0000 0.51559  0.82624  0.31913  Biso   1.000  C
  C449     1.0000 0.68830  0.98111  0.65342  Biso   1.000  C
  C450     1.0000 0.37065  0.16391  0.47994  Biso   1.000  C
  C451     1.0000 0.52664  0.33199  0.18138  Biso   1.000  C
  C452     1.0000 0.33286  0.47368  0.84979  Biso   1.000  C
  C453     1.0000 0.66335  0.66137  0.99962  Biso   1.000  C
  C454     1.0000 0.00121  0.32544  0.31082  Biso   1.000  C
  C455     1.0000 0.83350  0.46254  0.64282  Biso   1.000  C
  C456     1.0000 0.15827  0.66378  0.49250  Biso   1.000  C
  C457     1.0000 0.02521  0.62400  0.31119  Biso   1.000  C
  C458     1.0000 0.32369  0.98330  0.63774  Biso   1.000  C
  C459     1.0000 0.66449  0.29948  0.98834  Biso   1.000  C
  C460     1.0000 0.51162  0.62719  0.18427  Biso   1.000  C
  C461     1.0000 0.82363  0.98887  0.85896  Biso   1.000  C
  C462     1.0000 0.16806  0.30235  0.48439  Biso   1.000  C
  C463     1.0000 0.52755  0.12191  0.31308  Biso   1.000  C
  C464     1.0000 0.19765  0.47809  0.64468  Biso   1.000  C
  C465     1.0000 0.86064  0.80435  0.99896  Biso   1.000  C
  C466     1.0000 0.99951  0.12120  0.17672  Biso   1.000  C
  C467     1.0000 0.69946  0.48616  0.84054  Biso   1.000  C
  C468     1.0000 0.36058  0.80089  0.49726  Biso   1.000  C
  C469     1.0000 0.03743  0.32460  0.67854  Biso   1.000  C
  C470     1.0000 0.71104  0.95693  0.35873  Biso   1.000  C
  C471     1.0000 0.36533  0.65865  0.01680  Biso   1.000  C
  C472     1.0000 0.52092  0.32827  0.81178  Biso   1.000  C
  C473     1.0000 0.20365  0.99519  0.13293  Biso   1.000  C
  C474     1.0000 0.85861  0.64545  0.49831  Biso   1.000  C
  C475     1.0000 0.51067  0.82672  0.68192  Biso   1.000  C
  C476     1.0000 0.82930  0.48280  0.34399  Biso   1.000  C
  C477     1.0000 0.16927  0.15851  0.99784  Biso   1.000  C
  C478     1.0000 0.01200  0.82991  0.80829  Biso   1.000  C
  C479     1.0000 0.33030  0.46278  0.14835  Biso   1.000  C
  C480     1.0000 0.67083  0.14822  0.49882  Biso   1.000  C
  C481     1.0000 0.37630  0.77339  0.49620  Biso   1.000  C
  C482     1.0000 0.52550  0.34313  0.78480  Biso   1.000  C
  C483     1.0000 0.80275  0.47876  0.36069  Biso   1.000  C
  C484     1.0000 0.87455  0.77797  0.98944  Biso   1.000  C
  C485     1.0000 0.03553  0.33987  0.70605  Biso   1.000  C
  C486     1.0000 0.30150  0.46184  0.13347  Biso   1.000  C
  C487     1.0000 0.15333  0.27430  0.48098  Biso   1.000  C
  C488     1.0000 0.01110  0.84571  0.78060  Biso   1.000  C
  C489     1.0000 0.73845  0.95783  0.37426  Biso   1.000  C
  C490     1.0000 0.64929  0.27104  0.98640  Biso   1.000  C
  C491     1.0000 0.50325  0.84425  0.70817  Biso   1.000  C
  C492     1.0000 0.22917  0.98770  0.11651  Biso   1.000  C
  C493     1.0000 0.65605  0.17502  0.50715  Biso   1.000  C
  C494     1.0000 0.51262  0.60993  0.21168  Biso   1.000  C
  C495     1.0000 0.22509  0.48386  0.62976  Biso   1.000  C
  C496     1.0000 0.15207  0.18458  0.00368  Biso   1.000  C
  C497     1.0000 0.03111  0.60750  0.28502  Biso   1.000  C
  C498     1.0000 0.72849  0.48485  0.85500  Biso   1.000  C
  C499     1.0000 0.87275  0.67453  0.49983  Biso   1.000  C
  C500     1.0000 0.00062  0.10271  0.20272  Biso   1.000  C
  C501     1.0000 0.29664  0.98655  0.61991  Biso   1.000  C
  C502     1.0000 0.38286  0.68550  0.01971  Biso   1.000  C
  C503     1.0000 0.53262  0.10625  0.28615  Biso   1.000  C
  C504     1.0000 0.79869  0.99119  0.87540  Biso   1.000  C
  C505     1.0000 0.64808  0.49422  0.78075  Biso   1.000  C
  C506     1.0000 0.80059  0.59574  0.50592  Biso   1.000  C
  C507     1.0000 0.51992  0.76744  0.63510  Biso   1.000  C
  C508     1.0000 0.15019  0.47240  0.70577  Biso   1.000  C
  C509     1.0000 0.30371  0.61135  0.01353  Biso   1.000  C
  C510     1.0000 0.01480  0.77015  0.85752  Biso   1.000  C
  C511     1.0000 0.86879  0.98469  0.79545  Biso   1.000  C
  C512     1.0000 0.72882  0.09911  0.48968  Biso   1.000  C
  C513     1.0000 0.04379  0.26767  0.62877  Biso   1.000  C
  C514     1.0000 0.37125  0.97253  0.69945  Biso   1.000  C
  C515     1.0000 0.22742  0.10733  0.98667  Biso   1.000  C
  C516     1.0000 0.50937  0.27137  0.86479  Biso   1.000  C
  C517     1.0000 0.38086  0.46464  0.20884  Biso   1.000  C
  C518     1.0000 0.22545  0.35214  0.49735  Biso   1.000  C
  C519     1.0000 0.52022  0.18380  0.36014  Biso   1.000  C
  C520     1.0000 0.88011  0.49229  0.28396  Biso   1.000  C
  C521     1.0000 0.72488  0.34586  0.99066  Biso   1.000  C
  C522     1.0000 0.00259  0.18320  0.12972  Biso   1.000  C
  C523     1.0000 0.15775  0.00608  0.19304  Biso   1.000  C
  C524     1.0000 0.29967  0.85096  0.49595  Biso   1.000  C
  C525     1.0000 0.01350  0.68205  0.35812  Biso   1.000  C
  C526     1.0000 0.66428  0.95851  0.29514  Biso   1.000  C
  C527     1.0000 0.80310  0.84872  0.02256  Biso   1.000  C
  C528     1.0000 0.50132  0.68614  0.13202  Biso   1.000  C
  C529     1.0000 0.81152  0.11495  0.00335  Biso   1.000  C
  C530     1.0000 0.01644  0.77308  0.12753  Biso   1.000  C
  C531     1.0000 0.13475  0.96515  0.77771  Biso   1.000  C
  C532     1.0000 0.30923  0.11690  0.48415  Biso   1.000  C
  C533     1.0000 0.50630  0.76819  0.36885  Biso   1.000  C
  C534     1.0000 0.63365  0.98216  0.70810  Biso   1.000  C
  C535     1.0000 0.72569  0.61309  0.99815  Biso   1.000  C
  C536     1.0000 0.53117  0.27233  0.12971  Biso   1.000  C
  C537     1.0000 0.38122  0.46314  0.79180  Biso   1.000  C
  C538     1.0000 0.22118  0.61671  0.49411  Biso   1.000  C
  C539     1.0000 0.01053  0.26762  0.36030  Biso   1.000  C
  C540     1.0000 0.88234  0.46064  0.70457  Biso   1.000  C
  C541     1.0000 0.22015  0.83998  0.99688  Biso   1.000  C
  C542     1.0000 0.03508  0.17928  0.86547  Biso   1.000  C
  C543     1.0000 0.89700  0.96945  0.21253  Biso   1.000  C
  C544     1.0000 0.72642  0.83336  0.50858  Biso   1.000  C
  C545     1.0000 0.51216  0.18306  0.62727  Biso   1.000  C
  C546     1.0000 0.39575  0.98301  0.28365  Biso   1.000  C
  C547     1.0000 0.30538  0.34611  0.00824  Biso   1.000  C
  C548     1.0000 0.49988  0.68475  0.86448  Biso   1.000  C
  C549     1.0000 0.64417  0.50186  0.20026  Biso   1.000  C
  C550     1.0000 0.81132  0.32960  0.49748  Biso   1.000  C
  C551     1.0000 0.02719  0.67651  0.62521  Biso   1.000  C
  C552     1.0000 0.14711  0.44921  0.29039  Biso   1.000  C
  C553     1.0000 0.01820  0.10970  0.78661  Biso   1.000  C
  C554     1.0000 0.81498  0.97879  0.14170  Biso   1.000  C
  C555     1.0000 0.14067  0.76779  0.00796  Biso   1.000  C
  C556     1.0000 0.50551  0.10951  0.70783  Biso   1.000  C
  C557     1.0000 0.31549  0.98970  0.35289  Biso   1.000  C
  C558     1.0000 0.64567  0.76144  0.50005  Biso   1.000  C
  C559     1.0000 0.49696  0.60966  0.79022  Biso   1.000  C
  C560     1.0000 0.72222  0.49142  0.12497  Biso   1.000  C
  C561     1.0000 0.38193  0.27118  0.00758  Biso   1.000  C
  C562     1.0000 0.00936  0.60346  0.70269  Biso   1.000  C
  C563     1.0000 0.22335  0.46269  0.36392  Biso   1.000  C
  C564     1.0000 0.88889  0.25654  0.50487  Biso   1.000  C
  C565     1.0000 0.04405  0.84132  0.20354  Biso   1.000  C
  C566     1.0000 0.21731  0.96360  0.85023  Biso   1.000  C
  C567     1.0000 0.88776  0.18622  0.98409  Biso   1.000  C
  C568     1.0000 0.51581  0.84250  0.29104  Biso   1.000  C
  C569     1.0000 0.71620  0.98101  0.64026  Biso   1.000  C
  C570     1.0000 0.38834  0.18912  0.47727  Biso   1.000  C
  C571     1.0000 0.52836  0.34824  0.20728  Biso   1.000  C
  C572     1.0000 0.30505  0.47768  0.86474  Biso   1.000  C
  C573     1.0000 0.64640  0.68670  0.00349  Biso   1.000  C
  C574     1.0000 0.99550  0.34282  0.28482  Biso   1.000  C
  C575     1.0000 0.80534  0.46408  0.62600  Biso   1.000  C
  C576     1.0000 0.13987  0.68944  0.49190  Biso   1.000  C
  C577     1.0000 0.30055  0.46825  0.10254  Biso   1.000  C
  C578     1.0000 0.12162  0.27285  0.47831  Biso   1.000  C
  C579     1.0000 0.53372  0.07554  0.28490  Biso   1.000  C
  C580     1.0000 0.80607  0.47290  0.39122  Biso   1.000  C
  C581     1.0000 0.61779  0.27265  0.98610  Biso   1.000  C
  C582     1.0000 0.00844  0.07291  0.20200  Biso   1.000  C
  C583     1.0000 0.22582  0.98096  0.08571  Biso   1.000  C
  C584     1.0000 0.40824  0.77225  0.49581  Biso   1.000  C
  C585     1.0000 0.03308  0.57522  0.28500  Biso   1.000  C
  C586     1.0000 0.73683  0.95901  0.40609  Biso   1.000  C
  C587     1.0000 0.90501  0.77779  0.98228  Biso   1.000  C
  C588     1.0000 0.51641  0.57906  0.20764  Biso   1.000  C
  C589     1.0000 0.72800  0.48173  0.88746  Biso   1.000  C
  C590     1.0000 0.90408  0.67458  0.49900  Biso   1.000  C
  C591     1.0000 0.50428  0.87559  0.70655  Biso   1.000  C
  C592     1.0000 0.22147  0.48941  0.59956  Biso   1.000  C
  C593     1.0000 0.41376  0.68309  0.01832  Biso   1.000  C
  C594     1.0000 0.00663  0.87674  0.78131  Biso   1.000  C
  C595     1.0000 0.80235  0.99462  0.90744  Biso   1.000  C
  C596     1.0000 0.62317  0.17441  0.50775  Biso   1.000  C
  C597     1.0000 0.02822  0.37070  0.70601  Biso   1.000  C
  C598     1.0000 0.30000  0.98944  0.58882  Biso   1.000  C
  C599     1.0000 0.12170  0.18339  0.01001  Biso   1.000  C
  C600     1.0000 0.52692  0.37379  0.78557  Biso   1.000  C
  C601     1.0000 0.21833  0.96544  0.88221  Biso   1.000  C
  C602     1.0000 0.91977  0.18404  0.98552  Biso   1.000  C
  C603     1.0000 0.04590  0.87291  0.20472  Biso   1.000  C
  C604     1.0000 0.71805  0.98086  0.60917  Biso   1.000  C
  C605     1.0000 0.41825  0.18555  0.47819  Biso   1.000  C
  C606     1.0000 0.51819  0.87374  0.28925  Biso   1.000  C
  C607     1.0000 0.30396  0.47857  0.89611  Biso   1.000  C
  C608     1.0000 0.61476  0.68438  0.00337  Biso   1.000  C
  C609     1.0000 0.52631  0.37932  0.20408  Biso   1.000  C
  C610     1.0000 0.80666  0.46510  0.59403  Biso   1.000  C
  C611     1.0000 0.10847  0.68722  0.48883  Biso   1.000  C
  C612     1.0000 0.99552  0.37430  0.28623  Biso   1.000  C
  C613     1.0000 0.81241  0.98338  0.11076  Biso   1.000  C
  C614     1.0000 0.11013  0.76960  0.00441  Biso   1.000  C
  C615     1.0000 0.01627  0.07895  0.78567  Biso   1.000  C
  C616     1.0000 0.31306  0.98773  0.38378  Biso   1.000  C
  C617     1.0000 0.61405  0.76405  0.49869  Biso   1.000  C
  C618     1.0000 0.49976  0.07763  0.70701  Biso   1.000  C
  C619     1.0000 0.72052  0.48616  0.09383  Biso   1.000  C
  C620     1.0000 0.41365  0.27285  0.00788  Biso   1.000  C
  C621     1.0000 0.49727  0.57822  0.79049  Biso   1.000  C
  C622     1.0000 0.22350  0.46641  0.39467  Biso   1.000  C
  C623     1.0000 0.91956  0.25888  0.50553  Biso   1.000  C
  C624     1.0000 0.00465  0.57280  0.70269  Biso   1.000  C
  C625     1.0000 0.03174  0.17914  0.89573  Biso   1.000  C
  C626     1.0000 0.92856  0.97324  0.21030  Biso   1.000  C
  C627     1.0000 0.21969  0.87180  0.99152  Biso   1.000  C
  C628     1.0000 0.51477  0.18280  0.59639  Biso   1.000  C
  C629     1.0000 0.42660  0.98247  0.28592  Biso   1.000  C
  C630     1.0000 0.72821  0.86467  0.51000  Biso   1.000  C
  C631     1.0000 0.49981  0.68195  0.89610  Biso   1.000  C
  C632     1.0000 0.61303  0.50338  0.19713  Biso   1.000  C
  C633     1.0000 0.30531  0.37780  0.00495  Biso   1.000  C
  C634     1.0000 0.02863  0.67547  0.59327  Biso   1.000  C
  C635     1.0000 0.11582  0.44958  0.28973  Biso   1.000  C
  C636     1.0000 0.81144  0.36169  0.49745  Biso   1.000  C
  C637     1.0000 0.01335  0.77572  0.09600  Biso   1.000  C
  C638     1.0000 0.10335  0.96534  0.78012  Biso   1.000  C
  C639     1.0000 0.80992  0.08441  0.00586  Biso   1.000  C
  C640     1.0000 0.50599  0.76877  0.40142  Biso   1.000  C
  C641     1.0000 0.60317  0.97941  0.70424  Biso   1.000  C
  C642     1.0000 0.30882  0.08557  0.48857  Biso   1.000  C
  C643     1.0000 0.52922  0.27317  0.09821  Biso   1.000  C
  C644     1.0000 0.41237  0.46032  0.79282  Biso   1.000  C
  C645     1.0000 0.72613  0.58116  0.99724  Biso   1.000  C
  C646     1.0000 0.01275  0.26675  0.39159  Biso   1.000  C
  C647     1.0000 0.91351  0.45781  0.70407  Biso   1.000  C
  C648     1.0000 0.22450  0.58566  0.49405  Biso   1.000  C
  C649     1.0000 0.00555  0.68283  0.38853  Biso   1.000  C
  C650     1.0000 0.40412  0.96781  0.69878  Biso   1.000  C
  C651     1.0000 0.72528  0.37726  0.99042  Biso   1.000  C
  C652     1.0000 0.50213  0.68506  0.09993  Biso   1.000  C
  C653     1.0000 0.89973  0.98193  0.79415  Biso   1.000  C
  C654     1.0000 0.22504  0.38427  0.50080  Biso   1.000  C
  C655     1.0000 0.51890  0.18210  0.39220  Biso   1.000  C
  C656     1.0000 0.11844  0.47415  0.70500  Biso   1.000  C
  C657     1.0000 0.80457  0.88094  0.02639  Biso   1.000  C
  C658     1.0000 0.00977  0.18321  0.09985  Biso   1.000  C
  C659     1.0000 0.61675  0.49429  0.78130  Biso   1.000  C
  C660     1.0000 0.30091  0.88260  0.49477  Biso   1.000  C
  C661     1.0000 0.03873  0.26656  0.59814  Biso   1.000  C
  C662     1.0000 0.63366  0.96166  0.29256  Biso   1.000  C
  C663     1.0000 0.30386  0.58091  0.00912  Biso   1.000  C
  C664     1.0000 0.50837  0.27162  0.89628  Biso   1.000  C
  C665     1.0000 0.12617  0.00359  0.19512  Biso   1.000  C
  C666     1.0000 0.80387  0.56213  0.50191  Biso   1.000  C
  C667     1.0000 0.52246  0.76807  0.60433  Biso   1.000  C
  C668     1.0000 0.91170  0.49625  0.28615  Biso   1.000  C
  C669     1.0000 0.22525  0.07541  0.98622  Biso   1.000  C
  C670     1.0000 0.01351  0.77268  0.88862  Biso   1.000  C
  C671     1.0000 0.41188  0.46839  0.20942  Biso   1.000  C
  C672     1.0000 0.72927  0.06806  0.48671  Biso   1.000  C
  C673     1.0000 0.19942  0.96763  0.78778  Biso   1.000  C
  C674     1.0000 0.82514  0.17766  0.98875  Biso   1.000  C
  C675     1.0000 0.03089  0.78140  0.18910  Biso   1.000  C
  C676     1.0000 0.70029  0.97907  0.69937  Biso   1.000  C
  C677     1.0000 0.32239  0.17886  0.47610  Biso   1.000  C
  C678     1.0000 0.51097  0.78005  0.30528  Biso   1.000  C
  C679     1.0000 0.32078  0.46867  0.80247  Biso   1.000  C
  C680     1.0000 0.71128  0.67547  0.99989  Biso   1.000  C
  C681     1.0000 0.53117  0.28543  0.19515  Biso   1.000  C
  C682     1.0000 0.81896  0.46621  0.68911  Biso   1.000  C
  C683     1.0000 0.20347  0.67966  0.49824  Biso   1.000  C
  C684     1.0000 0.00099  0.27924  0.29804  Biso   1.000  C
  C685     1.0000 0.83290  0.96892  0.20493  Biso   1.000  C
  C686     1.0000 0.20546  0.77869  0.00488  Biso   1.000  C
  C687     1.0000 0.03311  0.16958  0.80218  Biso   1.000  C
  C688     1.0000 0.33230  0.98589  0.29163  Biso   1.000  C
  C689     1.0000 0.70756  0.77074  0.50689  Biso   1.000  C
  C690     1.0000 0.51097  0.17299  0.69036  Biso   1.000  C
  C691     1.0000 0.70718  0.49680  0.18808  Biso   1.000  C
  C692     1.0000 0.32005  0.28482  0.00645  Biso   1.000  C
  C693     1.0000 0.50264  0.67033  0.80317  Biso   1.000  C
  C694     1.0000 0.21002  0.45071  0.30390  Biso   1.000  C
  C695     1.0000 0.82591  0.26756  0.50237  Biso   1.000  C
  C696     1.0000 0.02010  0.66687  0.68988  Biso   1.000  C
  C697     1.0000 0.72650  0.95971  0.31260  Biso   1.000  C
  C698     1.0000 0.31896  0.67362  0.01869  Biso   1.000  C
  C699     1.0000 0.04331  0.27812  0.69135  Biso   1.000  C
  C700     1.0000 0.21990  0.99812  0.18099  Biso   1.000  C
  C701     1.0000 0.81167  0.65830  0.50801  Biso   1.000  C
  C702     1.0000 0.51538  0.28263  0.79829  Biso   1.000  C
  C703     1.0000 0.81621  0.49154  0.29762  Biso   1.000  C
  C704     1.0000 0.21501  0.17200  0.99277  Biso   1.000  C
  C705     1.0000 0.51454  0.77855  0.69516  Biso   1.000  C
  C706     1.0000 0.31981  0.45608  0.19731  Biso   1.000  C
  C707     1.0000 0.71859  0.16138  0.49790  Biso   1.000  C
  C708     1.0000 0.01423  0.78211  0.79445  Biso   1.000  C
  C709     1.0000 0.30733  0.98048  0.68392  Biso   1.000  C
  C710     1.0000 0.71199  0.28451  0.98991  Biso   1.000  C
  C711     1.0000 0.02567  0.67065  0.29844  Biso   1.000  C
  C712     1.0000 0.80784  0.98623  0.81029  Biso   1.000  C
  C713     1.0000 0.21349  0.29016  0.48453  Biso   1.000  C
  C714     1.0000 0.50870  0.67490  0.19552  Biso   1.000  C
  C715     1.0000 0.21234  0.47597  0.69209  Biso   1.000  C
  C716     1.0000 0.81585  0.79005  0.00524  Biso   1.000  C
  C717     1.0000 0.52340  0.17097  0.29949  Biso   1.000  C
  C718     1.0000 0.71257  0.48405  0.79417  Biso   1.000  C
  C719     1.0000 0.31444  0.78692  0.50094  Biso   1.000  C
  C720     1.0000 0.99735  0.16550  0.19240  Biso   1.000  C
  C721     1.0000 0.53302  0.77781  0.28264  Biso   1.000  C
  C722     1.0000 0.32549  0.48459  0.77564  Biso   1.000  C
  C723     1.0000 0.79940  0.27198  0.51855  Biso   1.000  C
  C724     1.0000 0.00469  0.76397  0.19142  Biso   1.000  C
  C725     1.0000 0.79538  0.48656  0.68544  Biso   1.000  C
  C726     1.0000 0.29524  0.28794  0.98410  Biso   1.000  C
  C727     1.0000 0.98417  0.25311  0.30333  Biso   1.000  C
  C728     1.0000 0.22520  0.98371  0.78939  Biso   1.000  C
  C729     1.0000 0.73095  0.77130  0.52741  Biso   1.000  C
  C730     1.0000 0.51460  0.28728  0.22113  Biso   1.000  C
  C731     1.0000 0.72572  0.96048  0.69786  Biso   1.000  C
  C732     1.0000 0.23066  0.77649  0.98732  Biso   1.000  C
  C733     1.0000 0.49194  0.17236  0.71443  Biso   1.000  C
  C734     1.0000 0.70295  0.48492  0.21776  Biso   1.000  C
  C735     1.0000 0.20009  0.70996  0.48640  Biso   1.000  C
  C736     1.0000 0.02484  0.19917  0.80483  Biso   1.000  C
  C737     1.0000 0.23607  0.43295  0.30817  Biso   1.000  C
  C738     1.0000 0.73483  0.67635  0.02180  Biso   1.000  C
  C739     1.0000 0.02822  0.66241  0.72107  Biso   1.000  C
  C740     1.0000 0.80603  0.95370  0.20050  Biso   1.000  C
  C741     1.0000 0.29322  0.17421  0.46477  Biso   1.000  C
  C742     1.0000 0.51959  0.66439  0.77666  Biso   1.000  C
  C743     1.0000 0.30450  0.97017  0.29517  Biso   1.000  C
  C744     1.0000 0.82808  0.20672  0.00003  Biso   1.000  C
  C745     1.0000 0.04073  0.69845  0.30184  Biso   1.000  C
  C746     1.0000 0.28084  0.99664  0.68047  Biso   1.000  C
  C747     1.0000 0.73573  0.28579  0.00996  Biso   1.000  C
  C748     1.0000 0.52089  0.70277  0.19066  Biso   1.000  C
  C749     1.0000 0.80814  0.96415  0.78778  Biso   1.000  C
  C750     1.0000 0.23809  0.28780  0.50415  Biso   1.000  C
  C751     1.0000 0.54659  0.17095  0.27951  Biso   1.000  C
  C752     1.0000 0.24074  0.46433  0.68764  Biso   1.000  C
  C753     1.0000 0.78689  0.79525  0.99493  Biso   1.000  C
  C754     1.0000 0.01649  0.16257  0.21935  Biso   1.000  C
  C755     1.0000 0.70680  0.46586  0.76843  Biso   1.000  C
  C756     1.0000 0.29163  0.78803  0.52337  Biso   1.000  C
  C757     1.0000 0.02909  0.24937  0.68787  Biso   1.000  C
  C758     1.0000 0.72413  0.98241  0.28979  Biso   1.000  C
  C759     1.0000 0.29481  0.66982  0.03761  Biso   1.000  C
  C760     1.0000 0.53232  0.28372  0.77270  Biso   1.000  C
  C761     1.0000 0.24836  0.00925  0.17549  Biso   1.000  C
  C762     1.0000 0.81149  0.68426  0.48857  Biso   1.000  C
  C763     1.0000 0.48998  0.77887  0.71479  Biso   1.000  C
  C764     1.0000 0.78838  0.50625  0.30402  Biso   1.000  C
  C765     1.0000 0.24447  0.16682  0.00589  Biso   1.000  C
  C766     1.0000 0.99962  0.78409  0.76561  Biso   1.000  C
  C767     1.0000 0.32302  0.46971  0.22644  Biso   1.000  C
  C768     1.0000 0.71365  0.19095  0.48738  Biso   1.000  C
  C769     1.0000 0.48820  0.69870  0.80609  Biso   1.000  C
  C770     1.0000 0.82011  0.44949  0.71628  Biso   1.000  C
  C771     1.0000 0.70514  0.74619  0.48827  Biso   1.000  C
  C772     1.0000 0.01161  0.69741  0.68205  Biso   1.000  C
  C773     1.0000 0.29287  0.45678  0.80568  Biso   1.000  C
  C774     1.0000 0.20291  0.75692  0.02814  Biso   1.000  C
  C775     1.0000 0.04620  0.16158  0.77430  Biso   1.000  C
  C776     1.0000 0.69408  0.99683  0.72434  Biso   1.000  C
  C777     1.0000 0.82938  0.23963  0.48745  Biso   1.000  C
  C778     1.0000 0.52985  0.19721  0.68887  Biso   1.000  C
  C779     1.0000 0.19370  0.95409  0.75965  Biso   1.000  C
  C780     1.0000 0.32063  0.25787  0.02304  Biso   1.000  C
  C781     1.0000 0.54807  0.25910  0.19108  Biso   1.000  C
  C782     1.0000 0.20872  0.46717  0.27700  Biso   1.000  C
  C783     1.0000 0.32785  0.20756  0.48876  Biso   1.000  C
  C784     1.0000 0.01622  0.28028  0.27005  Biso   1.000  C
  C785     1.0000 0.73452  0.51074  0.18356  Biso   1.000  C
  C786     1.0000 0.79603  0.17244  0.97567  Biso   1.000  C
  C787     1.0000 0.05263  0.77659  0.21404  Biso   1.000  C
  C788     1.0000 0.33304  0.00265  0.26404  Biso   1.000  C
  C789     1.0000 0.23068  0.67434  0.51772  Biso   1.000  C
  C790     1.0000 0.48348  0.76311  0.30351  Biso   1.000  C
  C791     1.0000 0.83625  0.98068  0.23363  Biso   1.000  C
  C792     1.0000 0.70987  0.70207  0.98199  Biso   1.000  C
  C793     1.0000 0.50114  0.19499  0.29839  Biso   1.000  C
  C794     1.0000 0.29469  0.43849  0.19214  Biso   1.000  C
  C795     1.0000 0.21403  0.26945  0.46066  Biso   1.000  C
  C796     1.0000 0.97819  0.19149  0.19067  Biso   1.000  C
  C797     1.0000 0.82088  0.48408  0.26740  Biso   1.000  C
  C798     1.0000 0.71039  0.26080  0.97027  Biso   1.000  C
  C799     1.0000 0.00832  0.66801  0.27031  Biso   1.000  C
  C800     1.0000 0.21436  0.98418  0.20912  Biso   1.000  C
  C801     1.0000 0.31313  0.75980  0.48313  Biso   1.000  C
  C802     1.0000 0.49331  0.67073  0.22224  Biso   1.000  C
  C803     1.0000 0.75056  0.93908  0.31264  Biso   1.000  C
  C804     1.0000 0.82371  0.75979  0.01276  Biso   1.000  C
  C805     1.0000 0.53277  0.75328  0.69529  Biso   1.000  C
  C806     1.0000 0.74088  0.49860  0.79693  Biso   1.000  C
  C807     1.0000 0.78857  0.65637  0.52871  Biso   1.000  C
  C808     1.0000 0.03071  0.75577  0.79863  Biso   1.000  C
  C809     1.0000 0.20594  0.48901  0.72101  Biso   1.000  C
  C810     1.0000 0.32132  0.70131  0.00291  Biso   1.000  C
  C811     1.0000 0.05898  0.28120  0.71837  Biso   1.000  C
  C812     1.0000 0.78408  0.00674  0.81085  Biso   1.000  C
  C813     1.0000 0.74789  0.15616  0.51232  Biso   1.000  C
  C814     1.0000 0.49514  0.25774  0.80134  Biso   1.000  C
  C815     1.0000 0.30916  0.96017  0.70857  Biso   1.000  C
  C816     1.0000 0.20940  0.20087  0.98066  Biso   1.000  C
  C817     1.0000 0.02704  0.21868  0.78314  Biso   1.000  C
  C818     1.0000 0.78499  0.94826  0.22212  Biso   1.000  C
  C819     1.0000 0.25442  0.75919  0.99590  Biso   1.000  C
  C820     1.0000 0.49114  0.19299  0.73489  Biso   1.000  C
  C821     1.0000 0.28320  0.97178  0.27330  Biso   1.000  C
  C822     1.0000 0.75131  0.74967  0.52824  Biso   1.000  C
  C823     1.0000 0.51857  0.68288  0.75343  Biso   1.000  C
  C824     1.0000 0.72365  0.48917  0.24104  Biso   1.000  C
  C825     1.0000 0.27561  0.26601  0.98127  Biso   1.000  C
  C826     1.0000 0.02796  0.68571  0.74043  Biso   1.000  C
  C827     1.0000 0.25676  0.42897  0.28754  Biso   1.000  C
  C828     1.0000 0.77796  0.25193  0.51775  Biso   1.000  C
  C829     1.0000 0.00076  0.74221  0.21279  Biso   1.000  C
  C830     1.0000 0.24610  0.98372  0.76772  Biso   1.000  C
  C831     1.0000 0.80500  0.22573  0.99751  Biso   1.000  C
  C832     1.0000 0.52675  0.75813  0.26182  Biso   1.000  C
  C833     1.0000 0.74585  0.96154  0.72011  Biso   1.000  C
  C834     1.0000 0.27325  0.19726  0.46498  Biso   1.000  C
  C835     1.0000 0.51592  0.26603  0.24188  Biso   1.000  C
  C836     1.0000 0.30306  0.48664  0.75465  Biso   1.000  C
  C837     1.0000 0.75293  0.69960  0.02391  Biso   1.000  C
  C838     1.0000 0.98272  0.23192  0.28270  Biso   1.000  C
  C839     1.0000 0.77372  0.48651  0.70562  Biso   1.000  C
  C840     1.0000 0.22051  0.73059  0.49436  Biso   1.000  C
  C841     1.0000 0.21434  0.95352  0.73817  Biso   1.000  C
  C842     1.0000 0.77311  0.19262  0.97603  Biso   1.000  C
  C843     1.0000 0.04934  0.75550  0.23436  Biso   1.000  C
  C844     1.0000 0.71482  0.99487  0.74722  Biso   1.000  C
  C845     1.0000 0.30677  0.22950  0.48947  Biso   1.000  C
  C846     1.0000 0.47995  0.74406  0.28137  Biso   1.000  C
  C847     1.0000 0.26998  0.45979  0.78491  Biso   1.000  C
  C848     1.0000 0.73052  0.72326  0.98152  Biso   1.000  C
  C849     1.0000 0.54934  0.23758  0.21192  Biso   1.000  C
  C850     1.0000 0.80078  0.45496  0.73830  Biso   1.000  C
  C851     1.0000 0.25103  0.69574  0.52102  Biso   1.000  C
  C852     1.0000 0.01414  0.25780  0.25124  Biso   1.000  C
  C853     1.0000 0.81456  0.97849  0.25352  Biso   1.000  C
  C854     1.0000 0.22437  0.73668  0.03262  Biso   1.000  C
  C855     1.0000 0.04901  0.18265  0.75273  Biso   1.000  C
  C856     1.0000 0.31068  0.00387  0.24454  Biso   1.000  C
  C857     1.0000 0.72439  0.72266  0.49260  Biso   1.000  C
  C858     1.0000 0.52799  0.21885  0.70886  Biso   1.000  C
  C859     1.0000 0.75516  0.51445  0.20643  Biso   1.000  C
  C860     1.0000 0.30012  0.23643  0.01967  Biso   1.000  C
  C861     1.0000 0.49073  0.71742  0.78203  Biso   1.000  C
  C862     1.0000 0.23032  0.46321  0.25635  Biso   1.000  C
  C863     1.0000 0.80781  0.21891  0.48811  Biso   1.000  C
  C864     1.0000 0.01387  0.71878  0.70144  Biso   1.000  C
  C865     1.0000 0.72803  0.46142  0.74848  Biso   1.000  C
  C866     1.0000 0.78952  0.70496  0.49018  Biso   1.000  C
  C867     1.0000 0.48505  0.75581  0.73380  Biso   1.000  C
  C868     1.0000 0.26074  0.46342  0.71082  Biso   1.000  C
  C869     1.0000 0.27379  0.69161  0.03882  Biso   1.000  C
  C870     1.0000 0.00086  0.76015  0.74652  Biso   1.000  C
  C871     1.0000 0.78546  0.96160  0.76797  Biso   1.000  C
  C872     1.0000 0.73454  0.21116  0.49216  Biso   1.000  C
  C873     1.0000 0.02931  0.22830  0.70749  Biso   1.000  C
  C874     1.0000 0.25825  0.99174  0.69946  Biso   1.000  C
  C875     1.0000 0.26450  0.19001  0.00311  Biso   1.000  C
  C876     1.0000 0.52930  0.26342  0.75182  Biso   1.000  C
  C877     1.0000 0.30232  0.46320  0.24686  Biso   1.000  C
  C878     1.0000 0.26015  0.26681  0.50157  Biso   1.000  C
  C879     1.0000 0.54979  0.19406  0.26021  Biso   1.000  C
  C880     1.0000 0.76644  0.51190  0.28309  Biso   1.000  C
  C881     1.0000 0.75794  0.26540  0.00805  Biso   1.000  C
  C882     1.0000 0.01523  0.18488  0.23958  Biso   1.000  C
  C883     1.0000 0.27034  0.00560  0.19685  Biso   1.000  C
  C884     1.0000 0.26989  0.76699  0.52559  Biso   1.000  C
  C885     1.0000 0.03887  0.72047  0.28062  Biso   1.000  C
  C886     1.0000 0.74341  0.98088  0.26741  Biso   1.000  C
  C887     1.0000 0.76752  0.77232  0.99633  Biso   1.000  C
  C888     1.0000 0.51665  0.72488  0.21145  Biso   1.000  C
  C889     1.0000 0.77033  0.94248  0.29103  Biso   1.000  C
  C890     1.0000 0.29946  0.72079  0.00563  Biso   1.000  C
  C891     1.0000 0.05736  0.25821  0.73962  Biso   1.000  C
  C892     1.0000 0.23684  0.97862  0.22787  Biso   1.000  C
  C893     1.0000 0.76869  0.67822  0.53207  Biso   1.000  C
  C894     1.0000 0.49414  0.23884  0.77824  Biso   1.000  C
  C895     1.0000 0.80005  0.49166  0.24710  Biso   1.000  C
  C896     1.0000 0.22789  0.22410  0.98342  Biso   1.000  C
  C897     1.0000 0.52711  0.73134  0.71520  Biso   1.000  C
  C898     1.0000 0.27345  0.43577  0.21358  Biso   1.000  C
  C899     1.0000 0.76915  0.17651  0.51433  Biso   1.000  C
  C900     1.0000 0.03239  0.73397  0.77890  Biso   1.000  C
  C901     1.0000 0.28523  0.95344  0.72510  Biso   1.000  C
  C902     1.0000 0.73206  0.23941  0.96947  Biso   1.000  C
  C903     1.0000 0.00574  0.69206  0.25141  Biso   1.000  C
  C904     1.0000 0.76034  0.00264  0.78955  Biso   1.000  C
  C905     1.0000 0.23576  0.24863  0.45909  Biso   1.000  C
  C906     1.0000 0.49034  0.69267  0.24254  Biso   1.000  C
  C907     1.0000 0.22613  0.48665  0.74262  Biso   1.000  C
  C908     1.0000 0.80385  0.73769  0.01000  Biso   1.000  C
  C909     1.0000 0.50496  0.21626  0.27641  Biso   1.000  C
  C910     1.0000 0.76071  0.49416  0.77563  Biso   1.000  C
  C911     1.0000 0.29137  0.73843  0.48699  Biso   1.000  C
  C912     1.0000 0.97806  0.21276  0.21214  Biso   1.000  C
  C913     1.0000 0.77689  0.47297  0.73225  Biso   1.000  C
  C914     1.0000 0.74832  0.72485  0.51162  Biso   1.000  C
  C915     1.0000 0.50569  0.70959  0.75587  Biso   1.000  C
  C916     1.0000 0.27593  0.47474  0.76039  Biso   1.000  C
  C917     1.0000 0.25034  0.73731  0.01722  Biso   1.000  C
  C918     1.0000 0.01872  0.71349  0.73121  Biso   1.000  C
  C919     1.0000 0.74181  0.98147  0.74321  Biso   1.000  C
  C920     1.0000 0.78437  0.22544  0.50456  Biso   1.000  C
  C921     1.0000 0.04090  0.21052  0.75831  Biso   1.000  C
  C922     1.0000 0.23977  0.96821  0.74278  Biso   1.000  C
  C923     1.0000 0.27752  0.24065  0.99859  Biso   1.000  C
  C924     1.0000 0.51048  0.21616  0.73363  Biso   1.000  C
  C925     1.0000 0.25459  0.44615  0.26243  Biso   1.000  C
  C926     1.0000 0.28019  0.22541  0.47691  Biso   1.000  C
  C927     1.0000 0.53132  0.24029  0.23603  Biso   1.000  C
  C928     1.0000 0.74842  0.50512  0.23464  Biso   1.000  C
  C929     1.0000 0.77751  0.21957  0.98683  Biso   1.000  C
  C930     1.0000 0.99803  0.23392  0.25656  Biso   1.000  C
  C931     1.0000 0.28672  0.98704  0.24746  Biso   1.000  C
  C932     1.0000 0.24616  0.72328  0.50958  Biso   1.000  C
  C933     1.0000 0.02333  0.73829  0.23319  Biso   1.000  C
  C934     1.0000 0.78875  0.96377  0.24790  Biso   1.000  C
  C935     1.0000 0.75274  0.72128  0.00313  Biso   1.000  C
  C936     1.0000 0.50196  0.74089  0.26006  Biso   1.000  C
  C937     1.0000 0.75484  0.24197  0.98897  Biso   1.000  C
  C938     1.0000 0.02177  0.71597  0.25613  Biso   1.000  C
  C939     1.0000 0.26148  0.96981  0.72050  Biso   1.000  C
  C940     1.0000 0.25792  0.24743  0.47905  Biso   1.000  C
  C941     1.0000 0.50274  0.71872  0.23824  Biso   1.000  C
  C942     1.0000 0.76124  0.98030  0.76878  Biso   1.000  C
  C943     1.0000 0.77554  0.74444  0.00214  Biso   1.000  C
  C944     1.0000 0.52973  0.21671  0.25856  Biso   1.000  C
  C945     1.0000 0.25358  0.47612  0.73668  Biso   1.000  C
  C946     1.0000 0.26996  0.74305  0.50821  Biso   1.000  C
  C947     1.0000 0.99699  0.20918  0.23589  Biso   1.000  C
  C948     1.0000 0.75414  0.47546  0.75318  Biso   1.000  C
  C949     1.0000 0.27431  0.71660  0.02223  Biso   1.000  C
  C950     1.0000 0.04304  0.23295  0.73413  Biso   1.000  C
  C951     1.0000 0.76736  0.96318  0.26980  Biso   1.000  C
  C952     1.0000 0.77015  0.70168  0.51232  Biso   1.000  C
  C953     1.0000 0.51125  0.24029  0.75507  Biso   1.000  C
  C954     1.0000 0.26428  0.99062  0.22249  Biso   1.000  C
  C955     1.0000 0.25631  0.21815  0.99498  Biso   1.000  C
  C956     1.0000 0.50378  0.73250  0.73338  Biso   1.000  C
  C957     1.0000 0.77360  0.50404  0.25502  Biso   1.000  C
  C958     1.0000 0.76120  0.20357  0.50526  Biso   1.000  C
  C959     1.0000 0.01773  0.73674  0.75316  Biso   1.000  C
  C960     1.0000 0.27849  0.44597  0.24147  Biso   1.000  C
  Cu1      1.0000 0.01408  0.47436  0.64965  Biso   1.000  Cu
  Cu2      1.0000 0.67594  0.96832  0.50304  Biso   1.000  Cu
  Cu3      1.0000 0.51305  0.62708  0.99913  Biso   1.000  Cu
  Cu4      1.0000 0.51742  0.47440  0.84185  Biso   1.000  Cu
  Cu5      1.0000 0.16703  0.97676  0.98389  Biso   1.000  Cu
  Cu6      1.0000 0.01083  0.62669  0.48998  Biso   1.000  Cu
  Cu7      1.0000 0.50465  0.97792  0.64850  Biso   1.000  Cu
  Cu8      1.0000 0.86301  0.46401  0.49217  Biso   1.000  Cu
  Cu9      1.0000 0.02148  0.12974  0.99711  Biso   1.000  Cu
  Cu10     1.0000 0.00805  0.97634  0.83706  Biso   1.000  Cu
  Cu11     1.0000 0.35661  0.47896  0.00225  Biso   1.000  Cu
  Cu12     1.0000 0.51828  0.12572  0.49648  Biso   1.000  Cu
  Cu13     1.0000 0.01284  0.47411  0.34126  Biso   1.000  Cu
  Cu14     1.0000 0.35704  0.98013  0.48954  Biso   1.000  Cu
  Cu15     1.0000 0.51542  0.32739  0.99571  Biso   1.000  Cu
  Cu16     1.0000 0.50866  0.47971  0.15243  Biso   1.000  Cu
  Cu17     1.0000 0.86017  0.98078  0.00797  Biso   1.000  Cu
  Cu18     1.0000 0.01970  0.32049  0.49586  Biso   1.000  Cu
  Cu19     1.0000 0.52857  0.97653  0.34310  Biso   1.000  Cu
  Cu20     1.0000 0.16964  0.48480  0.49325  Biso   1.000  Cu
  Cu21     1.0000 0.01105  0.83025  0.99128  Biso   1.000  Cu
  Cu22     1.0000 0.02483  0.97346  0.14704  Biso   1.000  Cu
  Cu23     1.0000 0.67011  0.48111  0.99219  Biso   1.000  Cu
  Cu24     1.0000 0.51363  0.82111  0.50109  Biso   1.000  Cu
  Cu25     1.0000 0.22161  0.97473  0.98442  Biso   1.000  Cu
  Cu26     1.0000 0.01970  0.18264  0.99718  Biso   1.000  Cu
  Cu27     1.0000 0.02910  0.97682  0.20260  Biso   1.000  Cu
  Cu28     1.0000 0.72843  0.96702  0.51034  Biso   1.000  Cu
  Cu29     1.0000 0.52073  0.18095  0.49350  Biso   1.000  Cu
  Cu30     1.0000 0.52771  0.97673  0.28951  Biso   1.000  Cu
  Cu31     1.0000 0.30153  0.47803  0.99915  Biso   1.000  Cu
  Cu32     1.0000 0.51369  0.68182  0.99853  Biso   1.000  Cu
  Cu33     1.0000 0.51424  0.47991  0.20418  Biso   1.000  Cu
  Cu34     1.0000 0.80981  0.46397  0.49338  Biso   1.000  Cu
  Cu35     1.0000 0.00742  0.68237  0.49090  Biso   1.000  Cu
  Cu36     1.0000 0.01240  0.47310  0.28681  Biso   1.000  Cu
  Cu37     1.0000 0.80490  0.98180  0.00864  Biso   1.000  Cu
  Cu38     1.0000 0.00733  0.77637  0.99327  Biso   1.000  Cu
  Cu39     1.0000 0.00249  0.97845  0.78108  Biso   1.000  Cu
  Cu40     1.0000 0.30498  0.98534  0.48712  Biso   1.000  Cu
  Cu41     1.0000 0.50966  0.76833  0.50506  Biso   1.000  Cu
  Cu42     1.0000 0.50264  0.97748  0.70310  Biso   1.000  Cu
  Cu43     1.0000 0.72462  0.47703  0.99184  Biso   1.000  Cu
  Cu44     1.0000 0.51460  0.27413  0.99786  Biso   1.000  Cu
  Cu45     1.0000 0.51527  0.47652  0.78672  Biso   1.000  Cu
  Cu46     1.0000 0.22220  0.48477  0.49598  Biso   1.000  Cu
  Cu47     1.0000 0.02283  0.26663  0.49317  Biso   1.000  Cu
  Cu48     1.0000 0.01583  0.47269  0.70487  Biso   1.000  Cu
  H1       1.0000 0.25464  0.76769  0.54469  Biso   1.000  H
  H2       1.0000 0.54673  0.26423  0.73503  Biso   1.000  H
  H3       1.0000 0.74903  0.52540  0.28933  Biso   1.000  H
  H4       1.0000 0.74543  0.77661  0.99103  Biso   1.000  H
  H5       1.0000 0.01987  0.20724  0.70296  Biso   1.000  H
  H6       1.0000 0.30751  0.46981  0.26937  Biso   1.000  H
  H7       1.0000 0.27636  0.26638  0.51768  Biso   1.000  H
  H8       1.0000 0.98769  0.76127  0.72747  Biso   1.000  H
  H9       1.0000 0.73844  0.99390  0.24884  Biso   1.000  H
  H10      1.0000 0.77840  0.26699  0.02084  Biso   1.000  H
  H11      1.0000 0.46718  0.75501  0.74778  Biso   1.000  H
  H12      1.0000 0.29194  0.01088  0.19088  Biso   1.000  H
  H13      1.0000 0.72885  0.23354  0.48496  Biso   1.000  H
  H14      1.0000 0.52269  0.74740  0.20558  Biso   1.000  H
  H15      1.0000 0.28256  0.45301  0.70743  Biso   1.000  H
  H16      1.0000 0.28674  0.18394  0.00850  Biso   1.000  H
  H17      1.0000 0.04867  0.74027  0.28527  Biso   1.000  H
  H18      1.0000 0.72366  0.44750  0.72991  Biso   1.000  H
  H19      1.0000 0.78789  0.72256  0.47602  Biso   1.000  H
  H20      1.0000 0.03153  0.18285  0.25878  Biso   1.000  H
  H21      1.0000 0.23898  0.00546  0.70131  Biso   1.000  H
  H22      1.0000 0.25460  0.68870  0.05405  Biso   1.000  H
  H23      1.0000 0.56616  0.19410  0.24380  Biso   1.000  H
  H24      1.0000 0.78661  0.94666  0.75024  Biso   1.000  H
  H25      1.0000 0.26426  0.99810  0.76913  Biso   1.000  H
  H26      1.0000 0.81098  0.24773  0.00110  Biso   1.000  H
  H27      1.0000 0.98174  0.73065  0.21431  Biso   1.000  H
  H28      1.0000 0.76458  0.94825  0.71848  Biso   1.000  H
  H29      1.0000 0.25168  0.19367  0.45737  Biso   1.000  H
  H30      1.0000 0.54161  0.75725  0.24244  Biso   1.000  H
  H31      1.0000 0.30690  0.49649  0.73482  Biso   1.000  H
  H32      1.0000 0.76867  0.70042  0.04101  Biso   1.000  H
  H33      1.0000 0.50353  0.26688  0.26166  Biso   1.000  H
  H34      1.0000 0.75387  0.49936  0.70278  Biso   1.000  H
  H35      1.0000 0.21613  0.75306  0.48684  Biso   1.000  H
  H36      1.0000 0.96755  0.21472  0.28409  Biso   1.000  H
  H37      1.0000 0.76638  0.93360  0.21715  Biso   1.000  H
  H38      1.0000 0.27350  0.76075  0.98226  Biso   1.000  H
  H39      1.0000 0.01912  0.24054  0.78517  Biso   1.000  H
  H40      1.0000 0.26326  0.95992  0.27555  Biso   1.000  H
  H41      1.0000 0.76887  0.75542  0.54273  Biso   1.000  H
  H42      1.0000 0.47902  0.18991  0.75425  Biso   1.000  H
  H43      1.0000 0.71931  0.47918  0.26195  Biso   1.000  H
  H44      1.0000 0.25785  0.26709  0.96574  Biso   1.000  H
  H45      1.0000 0.53217  0.67890  0.73391  Biso   1.000  H
  H46      1.0000 0.27607  0.41422  0.29571  Biso   1.000  H
  H47      1.0000 0.75717  0.25584  0.52677  Biso   1.000  H
  H48      1.0000 0.03431  0.68154  0.76244  Biso   1.000  H
  H49      1.0000 0.22555  0.47353  0.23657  Biso   1.000  H
  H50      1.0000 0.31242  0.24957  0.49961  Biso   1.000  H
  H51      1.0000 0.56390  0.21906  0.20684  Biso   1.000  H
  H52      1.0000 0.77588  0.52408  0.20134  Biso   1.000  H
  H53      1.0000 0.75155  0.18751  0.97035  Biso   1.000  H
  H54      1.0000 0.02894  0.25945  0.23244  Biso   1.000  H
  H55      1.0000 0.31259  0.01779  0.22551  Biso   1.000  H
  H56      1.0000 0.27063  0.69245  0.53471  Biso   1.000  H
  H57      1.0000 0.06773  0.75099  0.24999  Biso   1.000  H
  H58      1.0000 0.81796  0.98885  0.27385  Biso   1.000  H
  H59      1.0000 0.73190  0.73843  0.96320  Biso   1.000  H
  H60      1.0000 0.45856  0.73402  0.28049  Biso   1.000  H
  H61      1.0000 0.80247  0.44411  0.75805  Biso   1.000  H
  H62      1.0000 0.72357  0.70235  0.48008  Biso   1.000  H
  H63      1.0000 0.47792  0.73849  0.78628  Biso   1.000  H
  H64      1.0000 0.24809  0.45540  0.79311  Biso   1.000  H
  H65      1.0000 0.21997  0.71856  0.04738  Biso   1.000  H
  H66      1.0000 0.00798  0.74108  0.69455  Biso   1.000  H
  H67      1.0000 0.71181  0.00735  0.76650  Biso   1.000  H
  H68      1.0000 0.80846  0.19725  0.47811  Biso   1.000  H
  H69      1.0000 0.05842  0.17800  0.73171  Biso   1.000  H
  H70      1.0000 0.21023  0.94224  0.71740  Biso   1.000  H
  H71      1.0000 0.29843  0.21850  0.03500  Biso   1.000  H
  H72      1.0000 0.54186  0.23786  0.70504  Biso   1.000  H
  H73      1.0000 0.78047  0.50621  0.77745  Biso   1.000  H
  H74      1.0000 0.75465  0.67893  0.55086  Biso   1.000  H
  H75      1.0000 0.54345  0.71457  0.71613  Biso   1.000  H
  H76      1.0000 0.22024  0.49830  0.76173  Biso   1.000  H
  H77      1.0000 0.30382  0.74121  0.99413  Biso   1.000  H
  H78      1.0000 0.04630  0.71534  0.78433  Biso   1.000  H
  H79      1.0000 0.74359  0.01982  0.78685  Biso   1.000  H
  H80      1.0000 0.79155  0.17274  0.52281  Biso   1.000  H
  H81      1.0000 0.07201  0.25872  0.75787  Biso   1.000  H
  H82      1.0000 0.28551  0.93884  0.74238  Biso   1.000  H
  H83      1.0000 0.22058  0.24667  0.97799  Biso   1.000  H
  H84      1.0000 0.47641  0.22333  0.78072  Biso   1.000  H
  H85      1.0000 0.25392  0.42473  0.20968  Biso   1.000  H
  H86      1.0000 0.23580  0.23401  0.44085  Biso   1.000  H
  H87      1.0000 0.48724  0.23146  0.27222  Biso   1.000  H
  H88      1.0000 0.80441  0.48723  0.22481  Biso   1.000  H
  H89      1.0000 0.73119  0.22285  0.95159  Biso   1.000  H
  H90      1.0000 0.96193  0.23107  0.21017  Biso   1.000  H
  H91      1.0000 0.23277  0.96109  0.24383  Biso   1.000  H
  H92      1.0000 0.29307  0.72112  0.47209  Biso   1.000  H
  H93      1.0000 0.99483  0.68865  0.22934  Biso   1.000  H
  H94      1.0000 0.78891  0.92897  0.29128  Biso   1.000  H
  H95      1.0000 0.81071  0.71569  0.01628  Biso   1.000  H
  H96      1.0000 0.47909  0.68938  0.26193  Biso   1.000  H
  H97      1.0000 0.87658  0.98803  0.91282  Biso   1.000  H
  H98      1.0000 0.92398  0.84725  0.00227  Biso   1.000  H
  H99      1.0000 0.00288  0.88680  0.85506  Biso   1.000  H
  H100     1.0000 0.37505  0.98223  0.58267  Biso   1.000  H
  H101     1.0000 0.41818  0.84727  0.50012  Biso   1.000  H
  H102     1.0000 0.51991  0.88619  0.63255  Biso   1.000  H
  H103     1.0000 0.65299  0.48120  0.89841  Biso   1.000  H
  H104     1.0000 0.60379  0.34545  0.98794  Biso   1.000  H
  H105     1.0000 0.52359  0.38395  0.86188  Biso   1.000  H
  H106     1.0000 0.14580  0.49002  0.58849  Biso   1.000  H
  H107     1.0000 0.10658  0.34791  0.49129  Biso   1.000  H
  H108     1.0000 0.02162  0.38373  0.63077  Biso   1.000  H
  H109     1.0000 0.15014  0.99448  0.07671  Biso   1.000  H
  H110     1.0000 0.11147  0.10921  0.00463  Biso   1.000  H
  H111     1.0000 0.01186  0.06461  0.12555  Biso   1.000  H
  H112     1.0000 0.66205  0.95803  0.41466  Biso   1.000  H
  H113     1.0000 0.61134  0.10156  0.49706  Biso   1.000  H
  H114     1.0000 0.52955  0.06464  0.36149  Biso   1.000  H
  H115     1.0000 0.37569  0.47665  0.08754  Biso   1.000  H
  H116     1.0000 0.42094  0.60750  0.01145  Biso   1.000  H
  H117     1.0000 0.51602  0.56936  0.13342  Biso   1.000  H
  H118     1.0000 0.87912  0.46747  0.39989  Biso   1.000  H
  H119     1.0000 0.92217  0.60017  0.49257  Biso   1.000  H
  H120     1.0000 0.01687  0.56431  0.35755  Biso   1.000  H
  H121     1.0000 0.09545  0.97252  0.85360  Biso   1.000  H
  H122     1.0000 0.88202  0.06937  0.99067  Biso   1.000  H
  H123     1.0000 0.02264  0.85205  0.08647  Biso   1.000  H
  H124     1.0000 0.59904  0.98191  0.62902  Biso   1.000  H
  H125     1.0000 0.38190  0.07285  0.49979  Biso   1.000  H
  H126     1.0000 0.52143  0.84310  0.40708  Biso   1.000  H
  H127     1.0000 0.42499  0.47177  0.86946  Biso   1.000  H
  H128     1.0000 0.65231  0.56989  0.99461  Biso   1.000  H
  H129     1.0000 0.51665  0.34867  0.09131  Biso   1.000  H
  H130     1.0000 0.92489  0.46462  0.62693  Biso   1.000  H
  H131     1.0000 0.14753  0.57088  0.48408  Biso   1.000  H
  H132     1.0000 0.00190  0.34012  0.40501  Biso   1.000  H
  H133     1.0000 0.93173  0.97954  0.13668  Biso   1.000  H
  H134     1.0000 0.14426  0.88569  0.99753  Biso   1.000  H
  H135     1.0000 0.01739  0.10467  0.90476  Biso   1.000  H
  H136     1.0000 0.43275  0.98345  0.36171  Biso   1.000  H
  H137     1.0000 0.65328  0.87926  0.50835  Biso   1.000  H
  H138     1.0000 0.50978  0.10605  0.58761  Biso   1.000  H
  H139     1.0000 0.60339  0.49387  0.12288  Biso   1.000  H
  H140     1.0000 0.38092  0.39217  0.00730  Biso   1.000  H
  H141     1.0000 0.50157  0.60676  0.90726  Biso   1.000  H
  H142     1.0000 0.10344  0.46162  0.36468  Biso   1.000  H
  H143     1.0000 0.88600  0.37371  0.50072  Biso   1.000  H
  H144     1.0000 0.01669  0.60312  0.58427  Biso   1.000  H
  H145     1.0000 0.60860  0.48942  0.85534  Biso   1.000  H
  H146     1.0000 0.88000  0.55932  0.48699  Biso   1.000  H
  H147     1.0000 0.52515  0.84236  0.59025  Biso   1.000  H
  H148     1.0000 0.10737  0.47722  0.62934  Biso   1.000  H
  H149     1.0000 0.37652  0.56518  0.00806  Biso   1.000  H
  H150     1.0000 0.00827  0.84809  0.89659  Biso   1.000  H
  H151     1.0000 0.91450  0.98892  0.87031  Biso   1.000  H
  H152     1.0000 0.65491  0.05611  0.49096  Biso   1.000  H
  H153     1.0000 0.03117  0.34173  0.58670  Biso   1.000  H
  H154     1.0000 0.41082  0.97382  0.62105  Biso   1.000  H
  H155     1.0000 0.15131  0.06778  0.99515  Biso   1.000  H
  H156     1.0000 0.51529  0.34800  0.90046  Biso   1.000  H
  H157     1.0000 0.41675  0.48084  0.13387  Biso   1.000  H
  H158     1.0000 0.14981  0.39571  0.50282  Biso   1.000  H
  H159     1.0000 0.52468  0.10637  0.40475  Biso   1.000  H
  H160     1.0000 0.92081  0.48471  0.35899  Biso   1.000  H
  H161     1.0000 0.64823  0.38942  0.99214  Biso   1.000  H
  H162     1.0000 0.01094  0.10816  0.08415  Biso   1.000  H
  H163     1.0000 0.10939  0.99150  0.12103  Biso   1.000  H
  H164     1.0000 0.37837  0.89087  0.49409  Biso   1.000  H
  H165     1.0000 0.01552  0.60645  0.40213  Biso   1.000  H
  H166     1.0000 0.62074  0.96481  0.36932  Biso   1.000  H
  H167     1.0000 0.87874  0.89160  0.01399  Biso   1.000  H
  H168     1.0000 0.51834  0.61116  0.09358  Biso   1.000  H
  H169     1.0000 0.01117  0.06468  0.86084  Biso   1.000  H
  H170     1.0000 0.88700  0.98272  0.09694  Biso   1.000  H
  H171     1.0000 0.10224  0.84414  0.99817  Biso   1.000  H
  H172     1.0000 0.50700  0.06708  0.63282  Biso   1.000  H
  H173     1.0000 0.38821  0.97986  0.40229  Biso   1.000  H
  H174     1.0000 0.60799  0.84110  0.50361  Biso   1.000  H
  H175     1.0000 0.50172  0.56220  0.86529  Biso   1.000  H
  H176     1.0000 0.64524  0.49250  0.08236  Biso   1.000  H
  H177     1.0000 0.42294  0.34900  0.01018  Biso   1.000  H
  H178     1.0000 0.00478  0.56020  0.62973  Biso   1.000  H
  H179     1.0000 0.15090  0.46263  0.40779  Biso   1.000  H
  H180     1.0000 0.92947  0.33286  0.48683  Biso   1.000  H
  H181     1.0000 0.03605  0.88639  0.13093  Biso   1.000  H
  H182     1.0000 0.14632  0.97427  0.89747  Biso   1.000  H
  H183     1.0000 0.92613  0.10740  0.99027  Biso   1.000  H
  H184     1.0000 0.52083  0.88757  0.36480  Biso   1.000  H
  H185     1.0000 0.64414  0.98371  0.59244  Biso   1.000  H
  H186     1.0000 0.42178  0.11172  0.49667  Biso   1.000  H
  H187     1.0000 0.51209  0.38931  0.13101  Biso   1.000  H
  H188     1.0000 0.37847  0.47786  0.91150  Biso   1.000  H
  H189     1.0000 0.60731  0.61009  0.99118  Biso   1.000  H
  H190     1.0000 0.00000  0.37943  0.36260  Biso   1.000  H
  H191     1.0000 0.88223  0.47085  0.58551  Biso   1.000  H
  H192     1.0000 0.10258  0.61167  0.48687  Biso   1.000  H
  H193     1.0000 0.27921  0.84019  0.49663  Biso   1.000  H
  H194     1.0000 0.50711  0.24920  0.85745  Biso   1.000  H
  H195     1.0000 0.86979  0.49480  0.26301  Biso   1.000  H
  H196     1.0000 0.78367  0.83606  0.02810  Biso   1.000  H
  H197     1.0000 0.04754  0.24727  0.63992  Biso   1.000  H
  H198     1.0000 0.36967  0.46166  0.22955  Biso   1.000  H
  H199     1.0000 0.24699  0.34280  0.49834  Biso   1.000  H
  H200     1.0000 0.01393  0.74846  0.84667  Biso   1.000  H
  H201     1.0000 0.67762  0.95886  0.27547  Biso   1.000  H
  H202     1.0000 0.74476  0.33340  0.98909  Biso   1.000  H
  H203     1.0000 0.51959  0.74614  0.64654  Biso   1.000  H
  H204     1.0000 0.17228  0.01360  0.21025  Biso   1.000  H
  H205     1.0000 0.74889  0.11019  0.48776  Biso   1.000  H
  H206     1.0000 0.49428  0.70533  0.14366  Biso   1.000  H
  H207     1.0000 0.16076  0.47134  0.72715  Biso   1.000  H
  H208     1.0000 0.24812  0.11733  0.98372  Biso   1.000  H
  H209     1.0000 0.01360  0.70207  0.34565  Biso   1.000  H
  H210     1.0000 0.65892  0.49407  0.76057  Biso   1.000  H
  H211     1.0000 0.77822  0.60452  0.50793  Biso   1.000  H
  H212     1.0000 0.00282  0.20237  0.14099  Biso   1.000  H
  H213     1.0000 0.36027  0.97300  0.72105  Biso   1.000  H
  H214     1.0000 0.28381  0.62375  0.01044  Biso   1.000  H
  H215     1.0000 0.51690  0.20260  0.34683  Biso   1.000  H
  H216     1.0000 0.85638  0.98419  0.77579  Biso   1.000  H
  H217     1.0000 0.24200  0.46288  0.34929  Biso   1.000  H
  H218     1.0000 0.37826  0.21017  0.47256  Biso   1.000  H
  H219     1.0000 0.53003  0.33799  0.22753  Biso   1.000  H
  H220     1.0000 0.74218  0.49065  0.13767  Biso   1.000  H
  H221     1.0000 0.87665  0.20629  0.98006  Biso   1.000  H
  H222     1.0000 0.99429  0.33425  0.26336  Biso   1.000  H
  H223     1.0000 0.29591  0.99102  0.34015  Biso   1.000  H
  H224     1.0000 0.14961  0.71081  0.49345  Biso   1.000  H
  H225     1.0000 0.04491  0.83057  0.22507  Biso   1.000  H
  H226     1.0000 0.79436  0.97390  0.15184  Biso   1.000  H
  H227     1.0000 0.65742  0.70830  0.00872  Biso   1.000  H
  H228     1.0000 0.51519  0.82885  0.27118  Biso   1.000  H
  H229     1.0000 0.78479  0.46233  0.63684  Biso   1.000  H
  H230     1.0000 0.65719  0.74066  0.49963  Biso   1.000  H
  H231     1.0000 0.49294  0.62048  0.76994  Biso   1.000  H
  H232     1.0000 0.28396  0.48000  0.85187  Biso   1.000  H
  H233     1.0000 0.15080  0.74704  0.00934  Biso   1.000  H
  H234     1.0000 0.00700  0.61180  0.72526  Biso   1.000  H
  H235     1.0000 0.73615  0.97959  0.65274  Biso   1.000  H
  H236     1.0000 0.87534  0.23782  0.50982  Biso   1.000  H
  H237     1.0000 0.01605  0.12067  0.76555  Biso   1.000  H
  H238     1.0000 0.23727  0.95677  0.83993  Biso   1.000  H
  H239     1.0000 0.36800  0.25224  0.00425  Biso   1.000  H
  H240     1.0000 0.50565  0.11892  0.72970  Biso   1.000  H
  H241     1.0000 0.75033  0.48669  0.84673  Biso   1.000  H
  H242     1.0000 0.86019  0.69491  0.50351  Biso   1.000  H
  H243     1.0000 0.50139  0.83613  0.72966  Biso   1.000  H
  H244     1.0000 0.24825  0.48593  0.64018  Biso   1.000  H
  H245     1.0000 0.37276  0.70614  0.02151  Biso   1.000  H
  H246     1.0000 0.01480  0.83654  0.75969  Biso   1.000  H
  H247     1.0000 0.77795  0.99547  0.86497  Biso   1.000  H
  H248     1.0000 0.66775  0.19524  0.51361  Biso   1.000  H
  H249     1.0000 0.03593  0.32855  0.72716  Biso   1.000  H
  H250     1.0000 0.27453  0.98650  0.62996  Biso   1.000  H
  H251     1.0000 0.16327  0.20645  0.00674  Biso   1.000  H
  H252     1.0000 0.52584  0.33304  0.76431  Biso   1.000  H
  H253     1.0000 0.28221  0.45623  0.14499  Biso   1.000  H
  H254     1.0000 0.16371  0.25422  0.47724  Biso   1.000  H
  H255     1.0000 0.53580  0.11680  0.26554  Biso   1.000  H
  H256     1.0000 0.78174  0.47747  0.35067  Biso   1.000  H
  H257     1.0000 0.66111  0.25034  0.98430  Biso   1.000  H
  H258     1.0000 0.99531  0.11035  0.22463  Biso   1.000  H
  H259     1.0000 0.24967  0.98687  0.12776  Biso   1.000  H
  H260     1.0000 0.36259  0.75374  0.49852  Biso   1.000  H
  H261     1.0000 0.03678  0.61725  0.26351  Biso   1.000  H
  H262     1.0000 0.75985  0.96030  0.36293  Biso   1.000  H
  H263     1.0000 0.86363  0.75804  0.98403  Biso   1.000  H
  H264     1.0000 0.50928  0.61756  0.23386  Biso   1.000  H
  H265     1.0000 0.04384  0.19830  0.85349  Biso   1.000  H
  H266     1.0000 0.88749  0.96454  0.23236  Biso   1.000  H
  H267     1.0000 0.23987  0.82800  0.99598  Biso   1.000  H
  H268     1.0000 0.50909  0.20460  0.63869  Biso   1.000  H
  H269     1.0000 0.38535  0.98389  0.26114  Biso   1.000  H
  H270     1.0000 0.74634  0.81983  0.50666  Biso   1.000  H
  H271     1.0000 0.50102  0.70546  0.85543  Biso   1.000  H
  H272     1.0000 0.65441  0.50773  0.22007  Biso   1.000  H
  H273     1.0000 0.28524  0.33566  0.00867  Biso   1.000  H
  H274     1.0000 0.03066  0.69778  0.63340  Biso   1.000  H
  H275     1.0000 0.15807  0.44724  0.26921  Biso   1.000  H
  H276     1.0000 0.79104  0.31878  0.49752  Biso   1.000  H
  H277     1.0000 0.01337  0.75344  0.13957  Biso   1.000  H
  H278     1.0000 0.14218  0.96447  0.75481  Biso   1.000  H
  H279     1.0000 0.79164  0.12835  0.00657  Biso   1.000  H
  H280     1.0000 0.50095  0.74807  0.35797  Biso   1.000  H
  H281     1.0000 0.64369  0.98357  0.72970  Biso   1.000  H
  H282     1.0000 0.28791  0.12733  0.48478  Biso   1.000  H
  H283     1.0000 0.53082  0.25116  0.13839  Biso   1.000  H
  H284     1.0000 0.36679  0.46086  0.77167  Biso   1.000  H
  H285     1.0000 0.74643  0.62457  0.99983  Biso   1.000  H
  H286     1.0000 0.01272  0.24657  0.34946  Biso   1.000  H
  H287     1.0000 0.86962  0.46117  0.72530  Biso   1.000  H
  H288     1.0000 0.24007  0.62928  0.49352  Biso   1.000  H
  H289     1.0000 0.11252  0.20507  0.01562  Biso   1.000  H
  H290     1.0000 0.00997  0.06031  0.22081  Biso   1.000  H
  H291     1.0000 0.24642  0.97878  0.07302  Biso   1.000  H
  H292     1.0000 0.61092  0.19414  0.51217  Biso   1.000  H
  H293     1.0000 0.53494  0.06497  0.26360  Biso   1.000  H
  H294     1.0000 0.75685  0.96002  0.42048  Biso   1.000  H
  H295     1.0000 0.42605  0.70369  0.02097  Biso   1.000  H
  H296     1.0000 0.52198  0.56488  0.22604  Biso   1.000  H
  H297     1.0000 0.27873  0.46469  0.09112  Biso   1.000  H
  H298     1.0000 0.91667  0.69395  0.50417  Biso   1.000  H
  H299     1.0000 0.04344  0.56419  0.26707  Biso   1.000  H
  H300     1.0000 0.78505  0.47013  0.40330  Biso   1.000  H
  H301     1.0000 0.91395  0.76007  0.97067  Biso   1.000  H
  H302     1.0000 0.00368  0.88836  0.76006  Biso   1.000  H
  H303     1.0000 0.78202  0.99588  0.91882  Biso   1.000  H
  H304     1.0000 0.41798  0.75032  0.49304  Biso   1.000  H
  H305     1.0000 0.50070  0.88817  0.72664  Biso   1.000  H
  H306     1.0000 0.27823  0.99300  0.57746  Biso   1.000  H
  H307     1.0000 0.60701  0.25286  0.98547  Biso   1.000  H
  H308     1.0000 0.52973  0.38613  0.76633  Biso   1.000  H
  H309     1.0000 0.74616  0.47713  0.90183  Biso   1.000  H
  H310     1.0000 0.10944  0.25180  0.47440  Biso   1.000  H
  H311     1.0000 0.02506  0.38367  0.72521  Biso   1.000  H
  H312     1.0000 0.24014  0.49704  0.59000  Biso   1.000  H
  H313     1.0000 0.23952  0.96601  0.89191  Biso   1.000  H
  H314     1.0000 0.93274  0.20422  0.98281  Biso   1.000  H
  H315     1.0000 0.04757  0.88268  0.22651  Biso   1.000  H
  H316     1.0000 0.73908  0.98096  0.60013  Biso   1.000  H
  H317     1.0000 0.43228  0.20305  0.47262  Biso   1.000  H
  H318     1.0000 0.51753  0.88295  0.26735  Biso   1.000  H
  H319     1.0000 0.28380  0.48050  0.90755  Biso   1.000  H
  H320     1.0000 0.60343  0.70333  0.01068  Biso   1.000  H
  H321     1.0000 0.52363  0.39476  0.22174  Biso   1.000  H
  H322     1.0000 0.78769  0.46249  0.57901  Biso   1.000  H
  H323     1.0000 0.09526  0.70628  0.48555  Biso   1.000  H
  H324     1.0000 0.99463  0.38737  0.26662  Biso   1.000  H
  H325     1.0000 0.79036  0.98485  0.09961  Biso   1.000  H
  H326     1.0000 0.09689  0.74967  0.00579  Biso   1.000  H
  H327     1.0000 0.01432  0.06932  0.76414  Biso   1.000  H
  H328     1.0000 0.28945  0.98664  0.38962  Biso   1.000  H
  H329     1.0000 0.59978  0.74540  0.49524  Biso   1.000  H
  H330     1.0000 0.49412  0.06719  0.72730  Biso   1.000  H
  H331     1.0000 0.74170  0.48352  0.08318  Biso   1.000  H
  H332     1.0000 0.42620  0.25219  0.00751  Biso   1.000  H
  H333     1.0000 0.49152  0.56812  0.76876  Biso   1.000  H
  H334     1.0000 0.24449  0.46826  0.40627  Biso   1.000  H
  H335     1.0000 0.93099  0.23907  0.50976  Biso   1.000  H
  H336     1.0000 0.00214  0.56231  0.72393  Biso   1.000  H
  H337     1.0000 0.03927  0.19669  0.90970  Biso   1.000  H
  H338     1.0000 0.94059  0.97283  0.23134  Biso   1.000  H
  H339     1.0000 0.24113  0.88116  0.98843  Biso   1.000  H
  H340     1.0000 0.51412  0.20122  0.58344  Biso   1.000  H
  H341     1.0000 0.43796  0.98210  0.26488  Biso   1.000  H
  H342     1.0000 0.75086  0.87255  0.51600  Biso   1.000  H
  H343     1.0000 0.49895  0.70201  0.90792  Biso   1.000  H
  H344     1.0000 0.60011  0.50910  0.21501  Biso   1.000  H
  H345     1.0000 0.28408  0.38940  0.00416  Biso   1.000  H
  H346     1.0000 0.03306  0.69474  0.58163  Biso   1.000  H
  H347     1.0000 0.10504  0.44723  0.26852  Biso   1.000  H
  H348     1.0000 0.79047  0.37106  0.49945  Biso   1.000  H
  H349     1.0000 0.00836  0.75655  0.08449  Biso   1.000  H
  H350     1.0000 0.09021  0.96436  0.76084  Biso   1.000  H
  H351     1.0000 0.78978  0.07424  0.01274  Biso   1.000  H
  H352     1.0000 0.49905  0.75040  0.41414  Biso   1.000  H
  H353     1.0000 0.58896  0.97540  0.72255  Biso   1.000  H
  H354     1.0000 0.28875  0.07490  0.49064  Biso   1.000  H
  H355     1.0000 0.53019  0.25357  0.08568  Biso   1.000  H
  H356     1.0000 0.42453  0.45342  0.77436  Biso   1.000  H
  H357     1.0000 0.74681  0.56931  0.99748  Biso   1.000  H
  H358     1.0000 0.01952  0.24832  0.40382  Biso   1.000  H
  H359     1.0000 0.92526  0.45502  0.72515  Biso   1.000  H
  H360     1.0000 0.24550  0.57481  0.49456  Biso   1.000  H
  H361     1.0000 0.99896  0.70306  0.39974  Biso   1.000  H
  H362     1.0000 0.41278  0.96335  0.72027  Biso   1.000  H
  H363     1.0000 0.74645  0.38759  0.98711  Biso   1.000  H
  H364     1.0000 0.50035  0.70465  0.08559  Biso   1.000  H
  H365     1.0000 0.90957  0.97876  0.77309  Biso   1.000  H
  H366     1.0000 0.24544  0.39624  0.50345  Biso   1.000  H
  H367     1.0000 0.51503  0.20183  0.40317  Biso   1.000  H
  H368     1.0000 0.10531  0.47339  0.72454  Biso   1.000  H
  H369     1.0000 0.78511  0.89297  0.03233  Biso   1.000  H
  H370     1.0000 0.01403  0.20337  0.08987  Biso   1.000  H
  H371     1.0000 0.60737  0.49092  0.75961  Biso   1.000  H
  H372     1.0000 0.28113  0.89615  0.49393  Biso   1.000  H
  H373     1.0000 0.03968  0.24615  0.58773  Biso   1.000  H
  H374     1.0000 0.62153  0.96121  0.27127  Biso   1.000  H
  H375     1.0000 0.28417  0.56796  0.00475  Biso   1.000  H
  H376     1.0000 0.50760  0.25160  0.90780  Biso   1.000  H
  H377     1.0000 0.11708  0.00477  0.21547  Biso   1.000  H
  H378     1.0000 0.78312  0.55095  0.50203  Biso   1.000  H
  H379     1.0000 0.52582  0.74797  0.59281  Biso   1.000  H
  H380     1.0000 0.92228  0.50030  0.26685  Biso   1.000  H
  H381     1.0000 0.24395  0.06183  0.98084  Biso   1.000  H
  H382     1.0000 0.01199  0.75183  0.90002  Biso   1.000  H
  H383     1.0000 0.42641  0.46579  0.22940  Biso   1.000  H
  H384     1.0000 0.74923  0.05567  0.48409  Biso   1.000  H
  H385     1.0000 0.23724  0.41942  0.32823  Biso   1.000  H
  H386     1.0000 0.28715  0.15396  0.45403  Biso   1.000  H
  H387     1.0000 0.49966  0.30482  0.22557  Biso   1.000  H
  H388     1.0000 0.68413  0.47129  0.22422  Biso   1.000  H
  H389     1.0000 0.84886  0.21141  0.00887  Biso   1.000  H
  H390     1.0000 0.97129  0.24986  0.32311  Biso   1.000  H
  H391     1.0000 0.29886  0.95940  0.31470  Biso   1.000  H
  H392     1.0000 0.18196  0.71604  0.47289  Biso   1.000  H
  H393     1.0000 0.98607  0.77007  0.17754  Biso   1.000  H
  H394     1.0000 0.80452  0.94139  0.18212  Biso   1.000  H
  H395     1.0000 0.73914  0.65951  0.03769  Biso   1.000  H
  H396     1.0000 0.55148  0.79069  0.28321  Biso   1.000  H
  H397     1.0000 0.79202  0.50011  0.66614  Biso   1.000  H
  H398     1.0000 0.73516  0.78991  0.54148  Biso   1.000  H
  H399     1.0000 0.53462  0.64602  0.77696  Biso   1.000  H
  H400     1.0000 0.34554  0.49664  0.77194  Biso   1.000  H
  H401     1.0000 0.23263  0.78943  0.96870  Biso   1.000  H
  H402     1.0000 0.03462  0.64095  0.72876  Biso   1.000  H
  H403     1.0000 0.73230  0.94647  0.67775  Biso   1.000  H
  H404     1.0000 0.79669  0.29032  0.53201  Biso   1.000  H
  H405     1.0000 0.01258  0.20696  0.82573  Biso   1.000  H
  H406     1.0000 0.22737  0.99786  0.80770  Biso   1.000  H
  H407     1.0000 0.29516  0.30591  0.96855  Biso   1.000  H
  H408     1.0000 0.47466  0.15588  0.71694  Biso   1.000  H
  H409     1.0000 0.29109  0.42857  0.17175  Biso   1.000  H
  H410     1.0000 0.19493  0.26982  0.44459  Biso   1.000  H
  H411     1.0000 0.48162  0.19388  0.31209  Biso   1.000  H
  H412     1.0000 0.83869  0.47089  0.26216  Biso   1.000  H
  H413     1.0000 0.69246  0.25921  0.95500  Biso   1.000  H
  H414     1.0000 0.96279  0.19489  0.17269  Biso   1.000  H
  H415     1.0000 0.19312  0.97285  0.21251  Biso   1.000  H
  H416     1.0000 0.32776  0.75624  0.46507  Biso   1.000  H
  H417     1.0000 0.99546  0.65028  0.26461  Biso   1.000  H
  H418     1.0000 0.75293  0.92050  0.32886  Biso   1.000  H
  H419     1.0000 0.84445  0.75166  0.02035  Biso   1.000  H
  H420     1.0000 0.48061  0.65076  0.22470  Biso   1.000  H
  H421     1.0000 0.74512  0.51285  0.81415  Biso   1.000  H
  H422     1.0000 0.78746  0.63586  0.54096  Biso   1.000  H
  H423     1.0000 0.55229  0.75092  0.68116  Biso   1.000  H
  H424     1.0000 0.18762  0.50263  0.72567  Biso   1.000  H
  H425     1.0000 0.33969  0.70797  0.98815  Biso   1.000  H
  H426     1.0000 0.04501  0.75409  0.81825  Biso   1.000  H
  H427     1.0000 0.78029  0.02188  0.82890  Biso   1.000  H
  H428     1.0000 0.75344  0.13597  0.52280  Biso   1.000  H
  H429     1.0000 0.07536  0.29842  0.72194  Biso   1.000  H
  H430     1.0000 0.32921  0.94946  0.71048  Biso   1.000  H
  H431     1.0000 0.18757  0.20648  0.97186  Biso   1.000  H
  H432     1.0000 0.48237  0.25528  0.82096  Biso   1.000  H
  H433     1.0000 0.27657  0.01237  0.66258  Biso   1.000  H
  H434     1.0000 0.73427  0.30200  0.02662  Biso   1.000  H
  H435     1.0000 0.05256  0.70214  0.32065  Biso   1.000  H
  H436     1.0000 0.82558  0.94731  0.78827  Biso   1.000  H
  H437     1.0000 0.23889  0.30341  0.52240  Biso   1.000  H
  H438     1.0000 0.53313  0.70760  0.17184  Biso   1.000  H
  H439     1.0000 0.24661  0.45088  0.66904  Biso   1.000  H
  H440     1.0000 0.78042  0.81653  0.98674  Biso   1.000  H
  H441     1.0000 0.56349  0.15373  0.27790  Biso   1.000  H
  H442     1.0000 0.68713  0.45373  0.76777  Biso   1.000  H
  H443     1.0000 0.29047  0.80824  0.53740  Biso   1.000  H
  H444     1.0000 0.03181  0.14531  0.22120  Biso   1.000  H
  H445     1.0000 0.70631  0.99828  0.29054  Biso   1.000  H
  H446     1.0000 0.29100  0.64991  0.04974  Biso   1.000  H
  H447     1.0000 0.01570  0.24503  0.66555  Biso   1.000  H
  H448     1.0000 0.25320  0.01881  0.15430  Biso   1.000  H
  H449     1.0000 0.82745  0.68415  0.47182  Biso   1.000  H
  H450     1.0000 0.54905  0.30009  0.77096  Biso   1.000  H
  H451     1.0000 0.78664  0.51468  0.32646  Biso   1.000  H
  H452     1.0000 0.25113  0.14757  0.01665  Biso   1.000  H
  H453     1.0000 0.47136  0.79532  0.71489  Biso   1.000  H
  H454     1.0000 0.33832  0.48626  0.23078  Biso   1.000  H
  H455     1.0000 0.69314  0.19821  0.47543  Biso   1.000  H
  H456     1.0000 0.98528  0.80156  0.76007  Biso   1.000  H
  H457     1.0000 0.68862  0.74348  0.47032  Biso   1.000  H
  H458     1.0000 0.47555  0.70570  0.82516  Biso   1.000  H
  H459     1.0000 0.83656  0.43250  0.71866  Biso   1.000  H
  H460     1.0000 0.18613  0.75873  0.04291  Biso   1.000  H
  H461     1.0000 0.00199  0.70446  0.66085  Biso   1.000  H
  H462     1.0000 0.28547  0.44491  0.82380  Biso   1.000  H
  H463     1.0000 0.84892  0.23704  0.47568  Biso   1.000  H
  H464     1.0000 0.05129  0.13914  0.77182  Biso   1.000  H
  H465     1.0000 0.67583  0.01189  0.72568  Biso   1.000  H
  H466     1.0000 0.33902  0.25389  0.03982  Biso   1.000  H
  H467     1.0000 0.54439  0.20071  0.67172  Biso   1.000  H
  H468     1.0000 0.17637  0.93958  0.75649  Biso   1.000  H
  H469     1.0000 0.34936  0.21199  0.49983  Biso   1.000  H
  H470     1.0000 0.56362  0.25814  0.17325  Biso   1.000  H
  H471     1.0000 0.18916  0.48031  0.27165  Biso   1.000  H
  H472     1.0000 0.79084  0.15193  0.96532  Biso   1.000  H
  H473     1.0000 0.03168  0.29802  0.26735  Biso   1.000  H
  H474     1.0000 0.73496  0.52249  0.16348  Biso   1.000  H
  H475     1.0000 0.23175  0.65483  0.53161  Biso   1.000  H
  H476     1.0000 0.07298  0.78936  0.21321  Biso   1.000  H
  H477     1.0000 0.34968  0.01694  0.25588  Biso   1.000  H
  H478     1.0000 0.69156  0.70339  0.96598  Biso   1.000  H
  H479     1.0000 0.46736  0.76689  0.31955  Biso   1.000  H
  H480     1.0000 0.85501  0.99369  0.24015  Biso   1.000  H
  N1       1.0000 0.69808  0.14286  0.49662  Biso   1.000  N
  N2       1.0000 0.50865  0.65401  0.17750  Biso   1.000  N
  N3       1.0000 0.19256  0.47514  0.67201  Biso   1.000  N
  N4       1.0000 0.19618  0.15208  0.99407  Biso   1.000  N
  N5       1.0000 0.02411  0.65103  0.31740  Biso   1.000  N
  N6       1.0000 0.69288  0.48651  0.81330  Biso   1.000  N
  N7       1.0000 0.83205  0.63919  0.50344  Biso   1.000  N
  N8       1.0000 0.99949  0.14845  0.17205  Biso   1.000  N
  N9       1.0000 0.32739  0.98022  0.66532  Biso   1.000  N
  N10      1.0000 0.33799  0.65366  0.01706  Biso   1.000  N
  N11      1.0000 0.52250  0.14979  0.31761  Biso   1.000  N
  N12      1.0000 0.82729  0.98774  0.83107  Biso   1.000  N
  N13      1.0000 0.33309  0.80712  0.49801  Biso   1.000  N
  N14      1.0000 0.51730  0.30130  0.81810  Biso   1.000  N
  N15      1.0000 0.83543  0.48666  0.31750  Biso   1.000  N
  N16      1.0000 0.83441  0.80928  0.00443  Biso   1.000  N
  N17      1.0000 0.04031  0.29745  0.67202  Biso   1.000  N
  N18      1.0000 0.33737  0.46068  0.17623  Biso   1.000  N
  N19      1.0000 0.19469  0.30976  0.48809  Biso   1.000  N
  N20      1.0000 0.01471  0.80227  0.81377  Biso   1.000  N
  N21      1.0000 0.70674  0.95828  0.33161  Biso   1.000  N
  N22      1.0000 0.69177  0.30375  0.99032  Biso   1.000  N
  N23      1.0000 0.51573  0.79977  0.67697  Biso   1.000  N
  N24      1.0000 0.20019  0.99769  0.16121  Biso   1.000  N
  N25      1.0000 0.83948  0.46390  0.66980  Biso   1.000  N
  N26      1.0000 0.68969  0.79181  0.50441  Biso   1.000  N
  N27      1.0000 0.50229  0.65152  0.82266  Biso   1.000  N
  N28      1.0000 0.33958  0.46919  0.82332  Biso   1.000  N
  N29      1.0000 0.18713  0.79800  0.00392  Biso   1.000  N
  N30      1.0000 0.01895  0.64751  0.66957  Biso   1.000  N
  N31      1.0000 0.68018  0.98011  0.68011  Biso   1.000  N
  N32      1.0000 0.84554  0.28767  0.50092  Biso   1.000  N
  N33      1.0000 0.02764  0.14997  0.82027  Biso   1.000  N
  N34      1.0000 0.18112  0.96564  0.80829  Biso   1.000  N
  N35      1.0000 0.33956  0.30340  0.00873  Biso   1.000  N
  N36      1.0000 0.51125  0.15249  0.67306  Biso   1.000  N
  N37      1.0000 0.19031  0.45584  0.32146  Biso   1.000  N
  N38      1.0000 0.34173  0.15977  0.47815  Biso   1.000  N
  N39      1.0000 0.53016  0.30556  0.17524  Biso   1.000  N
  N40      1.0000 0.68875  0.49712  0.16691  Biso   1.000  N
  N41      1.0000 0.84371  0.15755  0.98862  Biso   1.000  N
  N42      1.0000 0.00357  0.29881  0.31691  Biso   1.000  N
  N43      1.0000 0.35014  0.98635  0.31270  Biso   1.000  N
  N44      1.0000 0.18588  0.65869  0.49516  Biso   1.000  N
  N45      1.0000 0.03340  0.80007  0.16953  Biso   1.000  N
  N46      1.0000 0.85044  0.97273  0.18418  Biso   1.000  N
  N47      1.0000 0.69092  0.65621  0.99952  Biso   1.000  N
  N48      1.0000 0.51321  0.79920  0.32454  Biso   1.000  N
  O1       1.0000 0.35704  0.52134  0.00161  Biso   1.000  O
  O2       1.0000 0.02631  0.31789  0.53731  Biso   1.000  O
  O3       1.0000 0.57181  0.97212  0.34200  Biso   1.000  O
  O4       1.0000 0.86002  0.50629  0.49058  Biso   1.000  O
  O5       1.0000 0.50936  0.32450  0.95345  Biso   1.000  O
  O6       1.0000 0.06467  0.98375  0.14832  Biso   1.000  O
  O7       1.0000 0.17291  0.01722  0.98268  Biso   1.000  O
  O8       1.0000 0.51535  0.82046  0.54272  Biso   1.000  O
  O9       1.0000 0.97164  0.48459  0.33828  Biso   1.000  O
  O10      1.0000 0.67886  0.00934  0.49942  Biso   1.000  O
  O11      1.0000 0.01251  0.82424  0.94885  Biso   1.000  O
  O12      1.0000 0.46761  0.48050  0.15455  Biso   1.000  O
  O13      1.0000 0.67271  0.43676  0.99189  Biso   1.000  O
  O14      1.0000 0.00523  0.63138  0.44909  Biso   1.000  O
  O15      1.0000 0.46419  0.97502  0.64891  Biso   1.000  O
  O16      1.0000 0.17055  0.44189  0.50384  Biso   1.000  O
  O17      1.0000 0.50929  0.63283  0.04057  Biso   1.000  O
  O18      1.0000 0.96599  0.98265  0.83763  Biso   1.000  O
  O19      1.0000 0.85334  0.94063  0.01014  Biso   1.000  O
  O20      1.0000 0.51945  0.12780  0.45243  Biso   1.000  O
  O21      1.0000 0.05773  0.48075  0.65158  Biso   1.000  O
  O22      1.0000 0.35448  0.93949  0.49241  Biso   1.000  O
  O23      1.0000 0.01266  0.13393  0.03778  Biso   1.000  O
  O24      1.0000 0.55914  0.48399  0.83827  Biso   1.000  O
  O25      1.0000 0.98290  0.96734  0.15425  Biso   1.000  O
  O26      1.0000 0.16819  0.93365  0.99001  Biso   1.000  O
  O27      1.0000 0.02551  0.12833  0.95495  Biso   1.000  O
  O28      1.0000 0.48464  0.97644  0.34014  Biso   1.000  O
  O29      1.0000 0.67782  0.92720  0.50713  Biso   1.000  O
  O30      1.0000 0.51946  0.12974  0.53858  Biso   1.000  O
  O31      1.0000 0.55110  0.48044  0.15243  Biso   1.000  O
  O32      1.0000 0.35603  0.43608  0.00515  Biso   1.000  O
  O33      1.0000 0.51058  0.62966  0.95485  Biso   1.000  O
  O34      1.0000 0.05386  0.46073  0.34010  Biso   1.000  O
  O35      1.0000 0.86168  0.42318  0.49458  Biso   1.000  O
  O36      1.0000 0.01447  0.62529  0.53313  Biso   1.000  O
  O37      1.0000 0.04792  0.97206  0.83453  Biso   1.000  O
  O38      1.0000 0.85896  0.02309  0.00662  Biso   1.000  O
  O39      1.0000 0.00833  0.82926  0.03529  Biso   1.000  O
  O40      1.0000 0.54450  0.98077  0.65251  Biso   1.000  O
  O41      1.0000 0.35760  0.02233  0.48693  Biso   1.000  O
  O42      1.0000 0.50787  0.82092  0.46028  Biso   1.000  O
  O43      1.0000 0.47582  0.46766  0.84251  Biso   1.000  O
  O44      1.0000 0.67309  0.52253  0.98952  Biso   1.000  O
  O45      1.0000 0.52012  0.32616  0.03951  Biso   1.000  O
  O46      1.0000 0.97362  0.46537  0.65254  Biso   1.000  O
  O47      1.0000 0.17402  0.52665  0.48510  Biso   1.000  O
  O48      1.0000 0.01111  0.31444  0.45423  Biso   1.000  O
  O49      1.0000 0.03134  0.93250  0.15465  Biso   1.000  O
  O50      1.0000 0.16992  0.97582  0.94196  Biso   1.000  O
  O51      1.0000 0.97743  0.13134  0.98889  Biso   1.000  O
  O52      1.0000 0.52531  0.93406  0.34100  Biso   1.000  O
  O53      1.0000 0.67368  0.97497  0.54530  Biso   1.000  O
  O54      1.0000 0.47615  0.13238  0.49519  Biso   1.000  O
  O55      1.0000 0.51199  0.43891  0.15193  Biso   1.000  O
  O56      1.0000 0.35452  0.47525  0.95968  Biso   1.000  O
  O57      1.0000 0.55662  0.63181  0.00097  Biso   1.000  O
  O58      1.0000 0.00148  0.43383  0.33801  Biso   1.000  O
  O59      1.0000 0.85982  0.46774  0.53463  Biso   1.000  O
  O60      1.0000 0.05288  0.63101  0.48932  Biso   1.000  O
  O61      1.0000 0.01125  0.01587  0.83416  Biso   1.000  O
  O62      1.0000 0.86032  0.98413  0.05119  Biso   1.000  O
  O63      1.0000 0.05345  0.82274  0.99407  Biso   1.000  O
  O64      1.0000 0.50270  0.01789  0.65549  Biso   1.000  O
  O65      1.0000 0.35815  0.97620  0.44768  Biso   1.000  O
  O66      1.0000 0.55690  0.81763  0.49992  Biso   1.000  O
  O67      1.0000 0.50893  0.51693  0.83869  Biso   1.000  O
  O68      1.0000 0.66858  0.47771  0.03369  Biso   1.000  O
  O69      1.0000 0.47273  0.32508  0.99967  Biso   1.000  O
  O70      1.0000 0.01005  0.51452  0.65157  Biso   1.000  O
  O71      1.0000 0.17408  0.47316  0.45277  Biso   1.000  O
  O72      1.0000 0.97608  0.31380  0.50656  Biso   1.000  O
  O73      1.0000 0.02074  0.43335  0.65338  Biso   1.000  O
  O74      1.0000 0.68356  0.96274  0.46388  Biso   1.000  O
  O75      1.0000 0.47164  0.63233  0.99991  Biso   1.000  O
  O76      1.0000 0.52854  0.43373  0.83815  Biso   1.000  O
  O77      1.0000 0.17120  0.97928  0.02616  Biso   1.000  O
  O78      1.0000 0.96845  0.62662  0.49125  Biso   1.000  O
  O79      1.0000 0.51006  0.93592  0.65423  Biso   1.000  O
  O80      1.0000 0.85798  0.46515  0.45154  Biso   1.000  O
  O81      1.0000 0.06200  0.13274  0.00460  Biso   1.000  O
  O82      1.0000 0.00502  0.93605  0.83302  Biso   1.000  O
  O83      1.0000 0.35119  0.47845  0.04283  Biso   1.000  O
  O84      1.0000 0.55975  0.12645  0.49656  Biso   1.000  O
  O85      1.0000 0.02305  0.51528  0.33809  Biso   1.000  O
  O86      1.0000 0.35367  0.98245  0.53048  Biso   1.000  O
  O87      1.0000 0.55763  0.32342  0.99323  Biso   1.000  O
  O88      1.0000 0.50848  0.52103  0.15769  Biso   1.000  O
  O89      1.0000 0.85513  0.97970  0.96555  Biso   1.000  O
  O90      1.0000 0.05940  0.32009  0.48879  Biso   1.000  O
  O91      1.0000 0.52835  0.01751  0.33821  Biso   1.000  O
  O92      1.0000 0.17125  0.48890  0.53450  Biso   1.000  O
  O93      1.0000 0.96764  0.82712  0.98847  Biso   1.000  O
  O94      1.0000 0.02209  0.01641  0.14707  Biso   1.000  O
  O95      1.0000 0.67618  0.48073  0.94864  Biso   1.000  O
  O96      1.0000 0.47247  0.82292  0.50286  Biso   1.000  O
  O97      1.0000 0.47826  0.18179  0.48945  Biso   1.000  O
  O98      1.0000 0.52248  0.43930  0.19975  Biso   1.000  O
  O99      1.0000 0.22275  0.47870  0.45427  Biso   1.000  O
  O100     1.0000 0.97795  0.17903  0.98826  Biso   1.000  O
  O101     1.0000 0.00287  0.43397  0.28881  Biso   1.000  O
  O102     1.0000 0.71741  0.47931  0.03372  Biso   1.000  O
  O103     1.0000 0.04894  0.67886  0.48551  Biso   1.000  O
  O104     1.0000 0.03830  0.93507  0.20289  Biso   1.000  O
  O105     1.0000 0.30986  0.98315  0.44439  Biso   1.000  O
  O106     1.0000 0.55493  0.68174  0.00089  Biso   1.000  O
  O107     1.0000 0.52565  0.93443  0.29224  Biso   1.000  O
  O108     1.0000 0.81077  0.97876  0.04946  Biso   1.000  O
  O109     1.0000 0.55453  0.76962  0.50855  Biso   1.000  O
  O110     1.0000 0.50952  0.51890  0.79080  Biso   1.000  O
  O111     1.0000 0.81015  0.46615  0.53493  Biso   1.000  O
  O112     1.0000 0.04990  0.77446  0.00092  Biso   1.000  O
  O113     1.0000 0.01467  0.51405  0.69937  Biso   1.000  O
  O114     1.0000 0.30598  0.47785  0.95718  Biso   1.000  O
  O115     1.0000 0.98076  0.26539  0.50282  Biso   1.000  O
  O116     1.0000 0.00768  0.01876  0.78517  Biso   1.000  O
  O117     1.0000 0.72273  0.97480  0.55137  Biso   1.000  O
  O118     1.0000 0.47403  0.27757  0.00020  Biso   1.000  O
  O119     1.0000 0.49683  0.01669  0.70414  Biso   1.000  O
  O120     1.0000 0.21811  0.97254  0.94166  Biso   1.000  O
  O121     1.0000 0.05900  0.47145  0.70041  Biso   1.000  O
  O122     1.0000 0.72773  0.01085  0.50350  Biso   1.000  O
  O123     1.0000 0.51306  0.68115  0.04054  Biso   1.000  O
  O124     1.0000 0.55454  0.48553  0.78889  Biso   1.000  O
  O125     1.0000 0.21940  0.01742  0.97995  Biso   1.000  O
  O126     1.0000 0.00264  0.68049  0.44815  Biso   1.000  O
  O127     1.0000 0.46365  0.97212  0.69714  Biso   1.000  O
  O128     1.0000 0.81070  0.50515  0.48818  Biso   1.000  O
  O129     1.0000 0.01113  0.18154  0.03744  Biso   1.000  O
  O130     1.0000 0.95897  0.97784  0.79122  Biso   1.000  O
  O131     1.0000 0.30823  0.51945  0.00004  Biso   1.000  O
  O132     1.0000 0.52212  0.17783  0.45252  Biso   1.000  O
  O133     1.0000 0.97206  0.48528  0.29003  Biso   1.000  O
  O134     1.0000 0.30565  0.94075  0.48975  Biso   1.000  O
  O135     1.0000 0.51109  0.27599  0.95452  Biso   1.000  O
  O136     1.0000 0.47340  0.47361  0.20258  Biso   1.000  O
  O137     1.0000 0.80506  0.93855  0.00741  Biso   1.000  O
  O138     1.0000 0.02836  0.26846  0.53669  Biso   1.000  O
  O139     1.0000 0.57022  0.97301  0.29410  Biso   1.000  O
  O140     1.0000 0.22029  0.44287  0.50315  Biso   1.000  O
  O141     1.0000 0.01294  0.77617  0.95010  Biso   1.000  O
  O142     1.0000 0.07105  0.98194  0.19697  Biso   1.000  O
  O143     1.0000 0.72261  0.43632  0.99352  Biso   1.000  O
  O144     1.0000 0.50341  0.77336  0.54627  Biso   1.000  O
  O145     1.0000 0.55526  0.48688  0.20060  Biso   1.000  O
  O146     1.0000 0.22150  0.52545  0.49168  Biso   1.000  O
  O147     1.0000 0.51995  0.17668  0.53582  Biso   1.000  O
  O148     1.0000 0.05426  0.45771  0.29134  Biso   1.000  O
  O149     1.0000 0.72160  0.51971  0.99174  Biso   1.000  O
  O150     1.0000 0.02366  0.17706  0.95372  Biso   1.000  O
  O151     1.0000 0.98913  0.97494  0.20461  Biso   1.000  O
  O152     1.0000 0.30881  0.02614  0.48685  Biso   1.000  O
  O153     1.0000 0.01520  0.67540  0.53387  Biso   1.000  O
  O154     1.0000 0.48622  0.98003  0.29197  Biso   1.000  O
  O155     1.0000 0.80953  0.02512  0.00906  Biso   1.000  O
  O156     1.0000 0.51698  0.67816  0.95539  Biso   1.000  O
  O157     1.0000 0.47356  0.46747  0.79316  Biso   1.000  O
  O158     1.0000 0.81442  0.42438  0.50214  Biso   1.000  O
  O159     1.0000 0.51181  0.77215  0.46175  Biso   1.000  O
  O160     1.0000 0.97274  0.46789  0.70215  Biso   1.000  O
  O161     1.0000 0.30774  0.43710  0.00019  Biso   1.000  O
  O162     1.0000 0.00631  0.78090  0.03613  Biso   1.000  O
  O163     1.0000 0.04452  0.97290  0.78543  Biso   1.000  O
  O164     1.0000 0.72659  0.92540  0.51633  Biso   1.000  O
  O165     1.0000 0.01491  0.26547  0.45141  Biso   1.000  O
  O166     1.0000 0.54443  0.98323  0.70160  Biso   1.000  O
  O167     1.0000 0.21718  0.93222  0.98487  Biso   1.000  O
  O168     1.0000 0.51629  0.27805  0.03986  Biso   1.000  O
  O169     1.0000 0.02147  0.01751  0.19580  Biso   1.000  O
  O170     1.0000 0.21961  0.97763  0.02620  Biso   1.000  O
  O171     1.0000 0.06047  0.18107  0.00876  Biso   1.000  O
  O172     1.0000 0.53094  0.01709  0.29003  Biso   1.000  O
  O173     1.0000 0.72980  0.95831  0.46999  Biso   1.000  O
  O174     1.0000 0.56320  0.17530  0.49502  Biso   1.000  O
  O175     1.0000 0.50855  0.52148  0.20594  Biso   1.000  O
  O176     1.0000 0.30175  0.47595  0.04270  Biso   1.000  O
  O177     1.0000 0.47149  0.68006  0.99755  Biso   1.000  O
  O178     1.0000 0.02087  0.51473  0.28982  Biso   1.000  O
  O179     1.0000 0.80945  0.45965  0.44901  Biso   1.000  O
  O180     1.0000 0.96671  0.67362  0.49499  Biso   1.000  O
  O181     1.0000 0.99597  0.93633  0.78439  Biso   1.000  O
  O182     1.0000 0.80755  0.98592  0.96643  Biso   1.000  O
  O183     1.0000 0.96693  0.77847  0.99002  Biso   1.000  O
  O184     1.0000 0.50723  0.93656  0.70134  Biso   1.000  O
  O185     1.0000 0.30601  0.99021  0.52832  Biso   1.000  O
  O186     1.0000 0.46714  0.77441  0.49978  Biso   1.000  O
  O187     1.0000 0.51919  0.43467  0.78966  Biso   1.000  O
  O188     1.0000 0.72501  0.47923  0.95047  Biso   1.000  O
  O189     1.0000 0.55813  0.27547  0.99896  Biso   1.000  O
  O190     1.0000 0.01619  0.43175  0.70180  Biso   1.000  O
  O191     1.0000 0.21892  0.48691  0.53829  Biso   1.000  O
  O192     1.0000 0.06321  0.27243  0.48383  Biso   1.000  O
