data_image0
_cell_length_a       47.868
_cell_length_b       46.6292
_cell_length_c       46.5968
_cell_angle_alpha    90
_cell_angle_beta     90
_cell_angle_gamma    90

_symmetry_space_group_name_H-M    "P 1"
_symmetry_int_tables_number       1

loop_
  _symmetry_equiv_pos_as_xyz
  'x, y, z'

loop_
  _atom_site_label
  _atom_site_occupancy
  _atom_site_fract_x
  _atom_site_fract_y
  _atom_site_fract_z
  _atom_site_thermal_displace_type
  _atom_site_B_iso_or_equiv
  _atom_site_type_symbol
  C1       1.0000 0.57341  0.97378  0.34867  Biso   1.000  C
  C2       1.0000 0.33559  0.53225  0.03370  Biso   1.000  C
  C3       1.0000 0.01575  0.29447  0.58876  Biso   1.000  C
  C4       1.0000 0.06813  0.98245  0.20916  Biso   1.000  C
  C5       1.0000 0.82984  0.53851  0.52110  Biso   1.000  C
  C6       1.0000 0.51697  0.29233  0.97649  Biso   1.000  C
  C7       1.0000 0.97073  0.48379  0.34814  Biso   1.000  C
  C8       1.0000 0.19547  0.03370  0.02635  Biso   1.000  C
  C9       1.0000 0.52250  0.78949  0.57778  Biso   1.000  C
  C10      1.0000 0.47491  0.48221  0.21200  Biso   1.000  C
  C11      1.0000 0.69402  0.03385  0.53476  Biso   1.000  C
  C12      1.0000 0.01526  0.79669  0.97343  Biso   1.000  C
  C13      1.0000 0.45465  0.97302  0.70720  Biso   1.000  C
  C14      1.0000 0.69299  0.41844  0.01478  Biso   1.000  C
  C15      1.0000 0.01972  0.65853  0.47321  Biso   1.000  C
  C16      1.0000 0.95796  0.97693  0.83913  Biso   1.000  C
  C17      1.0000 0.19459  0.42096  0.53876  Biso   1.000  C
  C18      1.0000 0.51808  0.65634  0.08036  Biso   1.000  C
  C19      1.0000 0.05474  0.47122  0.71171  Biso   1.000  C
  C20      1.0000 0.83580  0.92405  0.02744  Biso   1.000  C
  C21      1.0000 0.51150  0.15392  0.47252  Biso   1.000  C
  C22      1.0000 0.55231  0.47041  0.84656  Biso   1.000  C
  C23      1.0000 0.33702  0.92071  0.52705  Biso   1.000  C
  C24      1.0000 0.01588  0.16162  0.08085  Biso   1.000  C
  C25      1.0000 0.33512  0.02854  0.52743  Biso   1.000  C
  C26      1.0000 0.50928  0.29595  0.08634  Biso   1.000  C
  C27      1.0000 0.07859  0.47694  0.35466  Biso   1.000  C
  C28      1.0000 0.82933  0.03351  0.02513  Biso   1.000  C
  C29      1.0000 0.00811  0.30188  0.47695  Biso   1.000  C
  C30      1.0000 0.58275  0.47790  0.20981  Biso   1.000  C
  C31      1.0000 0.19033  0.52911  0.54488  Biso   1.000  C
  C32      1.0000 0.01786  0.79270  0.07993  Biso   1.000  C
  C33      1.0000 0.46314  0.97448  0.34582  Biso   1.000  C
  C34      1.0000 0.68812  0.52804  0.02058  Biso   1.000  C
  C35      1.0000 0.51303  0.79330  0.47079  Biso   1.000  C
  C36      1.0000 0.96003  0.97068  0.20403  Biso   1.000  C
  C37      1.0000 0.69505  0.92590  0.52116  Biso   1.000  C
  C38      1.0000 0.50906  0.65487  0.97096  Biso   1.000  C
  C39      1.0000 0.94641  0.48287  0.70086  Biso   1.000  C
  C40      1.0000 0.19611  0.92554  0.02639  Biso   1.000  C
  C41      1.0000 0.02150  0.65953  0.58190  Biso   1.000  C
  C42      1.0000 0.44344  0.47159  0.84655  Biso   1.000  C
  C43      1.0000 0.82878  0.42814  0.51416  Biso   1.000  C
  C44      1.0000 0.01501  0.15572  0.97323  Biso   1.000  C
  C45      1.0000 0.56330  0.96709  0.71118  Biso   1.000  C
  C46      1.0000 0.33308  0.42332  0.04267  Biso   1.000  C
  C47      1.0000 0.51469  0.15188  0.58119  Biso   1.000  C
  C48      1.0000 0.06668  0.97680  0.84581  Biso   1.000  C
  C49      1.0000 0.01442  0.03060  0.84624  Biso   1.000  C
  C50      1.0000 0.83263  0.97486  0.08225  Biso   1.000  C
  C51      1.0000 0.06911  0.79382  0.02135  Biso   1.000  C
  C52      1.0000 0.51267  0.02494  0.70991  Biso   1.000  C
  C53      1.0000 0.33291  0.97681  0.47142  Biso   1.000  C
  C54      1.0000 0.57398  0.79332  0.52259  Biso   1.000  C
  C55      1.0000 0.49922  0.52477  0.84879  Biso   1.000  C
  C56      1.0000 0.69991  0.47165  0.07288  Biso   1.000  C
  C57      1.0000 0.45760  0.29917  0.02666  Biso   1.000  C
  C58      1.0000 0.00696  0.53094  0.70506  Biso   1.000  C
  C59      1.0000 0.19804  0.47944  0.48670  Biso   1.000  C
  C60      1.0000 0.95636  0.29724  0.53347  Biso   1.000  C
  C61      1.0000 0.02202  0.92368  0.20698  Biso   1.000  C
  C62      1.0000 0.19160  0.97751  0.97323  Biso   1.000  C
  C63      1.0000 0.96139  0.15664  0.02444  Biso   1.000  C
  C64      1.0000 0.51699  0.92113  0.34558  Biso   1.000  C
  C65      1.0000 0.69490  0.97059  0.58398  Biso   1.000  C
  C66      1.0000 0.45729  0.15869  0.52987  Biso   1.000  C
  C67      1.0000 0.52973  0.42335  0.21200  Biso   1.000  C
  C68      1.0000 0.33065  0.47007  0.98542  Biso   1.000  C
  C69      1.0000 0.56710  0.65838  0.01704  Biso   1.000  C
  C70      1.0000 0.01733  0.42674  0.35385  Biso   1.000  C
  C71      1.0000 0.82449  0.47770  0.57082  Biso   1.000  C
  C72      1.0000 0.07447  0.66150  0.52689  Biso   1.000  C
  C73      1.0000 0.02874  0.53544  0.34754  Biso   1.000  C
  C74      1.0000 0.33232  0.97451  0.58150  Biso   1.000  C
  C75      1.0000 0.56582  0.29290  0.03459  Biso   1.000  C
  C76      1.0000 0.53467  0.53235  0.21145  Biso   1.000  C
  C77      1.0000 0.83444  0.97723  0.97139  Biso   1.000  C
  C78      1.0000 0.06682  0.29471  0.53047  Biso   1.000  C
  C79      1.0000 0.51607  0.02787  0.34448  Biso   1.000  C
  C80      1.0000 0.18777  0.46993  0.59647  Biso   1.000  C
  C81      1.0000 0.96162  0.79464  0.02633  Biso   1.000  C
  C82      1.0000 0.01124  0.03169  0.20778  Biso   1.000  C
  C83      1.0000 0.68455  0.47444  0.96431  Biso   1.000  C
  C84      1.0000 0.46351  0.79817  0.52972  Biso   1.000  C
  C85      1.0000 0.99226  0.42446  0.70907  Biso   1.000  C
  C86      1.0000 0.69439  0.98245  0.47547  Biso   1.000  C
  C87      1.0000 0.45936  0.65814  0.02906  Biso   1.000  C
  C88      1.0000 0.49737  0.41587  0.84461  Biso   1.000  C
  C89      1.0000 0.19257  0.98035  0.08223  Biso   1.000  C
  C90      1.0000 0.96558  0.65660  0.52977  Biso   1.000  C
  C91      1.0000 0.50722  0.91651  0.70708  Biso   1.000  C
  C92      1.0000 0.83322  0.48831  0.46278  Biso   1.000  C
  C93      1.0000 0.06998  0.16199  0.02693  Biso   1.000  C
  C94      1.0000 0.00847  0.92334  0.84858  Biso   1.000  C
  C95      1.0000 0.33989  0.48554  0.09397  Biso   1.000  C
  C96      1.0000 0.56636  0.15310  0.52477  Biso   1.000  C
  C97      1.0000 0.69407  0.06570  0.53337  Biso   1.000  C
  C98      1.0000 0.52000  0.65612  0.11302  Biso   1.000  C
  C99      1.0000 0.08765  0.47144  0.71451  Biso   1.000  C
  C100     1.0000 0.19439  0.06522  0.03141  Biso   1.000  C
  C101     1.0000 0.02021  0.65704  0.44103  Biso   1.000  C
  C102     1.0000 0.58450  0.47022  0.84213  Biso   1.000  C
  C103     1.0000 0.83237  0.57027  0.52004  Biso   1.000  C
  C104     1.0000 0.01952  0.16250  0.11243  Biso   1.000  C
  C105     1.0000 0.42266  0.97300  0.70811  Biso   1.000  C
  C106     1.0000 0.33344  0.56478  0.03407  Biso   1.000  C
  C107     1.0000 0.50859  0.15352  0.43919  Biso   1.000  C
  C108     1.0000 0.92691  0.97093  0.83794  Biso   1.000  C
  C109     1.0000 0.33510  0.88926  0.52860  Biso   1.000  C
  C110     1.0000 0.51759  0.29153  0.94428  Biso   1.000  C
  C111     1.0000 0.93958  0.48518  0.34413  Biso   1.000  C
  C112     1.0000 0.83576  0.89052  0.02401  Biso   1.000  C
  C113     1.0000 0.01619  0.29612  0.62089  Biso   1.000  C
  C114     1.0000 0.44320  0.48048  0.21344  Biso   1.000  C
  C115     1.0000 0.19539  0.38820  0.53702  Biso   1.000  C
  C116     1.0000 0.02209  0.79622  0.94151  Biso   1.000  C
  C117     1.0000 0.60602  0.97533  0.34781  Biso   1.000  C
  C118     1.0000 0.69449  0.38505  0.01752  Biso   1.000  C
  C119     1.0000 0.51761  0.78927  0.60982  Biso   1.000  C
  C120     1.0000 0.09943  0.97698  0.20943  Biso   1.000  C
  C121     1.0000 0.83320  0.96783  0.11372  Biso   1.000  C
  C122     1.0000 0.10115  0.79517  0.01627  Biso   1.000  C
  C123     1.0000 0.01451  0.06289  0.84521  Biso   1.000  C
  C124     1.0000 0.33381  0.97542  0.43744  Biso   1.000  C
  C125     1.0000 0.60646  0.79277  0.52121  Biso   1.000  C
  C126     1.0000 0.52040  0.05697  0.70792  Biso   1.000  C
  C127     1.0000 0.70377  0.47263  0.10546  Biso   1.000  C
  C128     1.0000 0.42626  0.30059  0.02755  Biso   1.000  C
  C129     1.0000 0.49754  0.55688  0.84771  Biso   1.000  C
  C130     1.0000 0.19955  0.48333  0.45500  Biso   1.000  C
  C131     1.0000 0.92430  0.29896  0.53569  Biso   1.000  C
  C132     1.0000 0.00924  0.56386  0.70620  Biso   1.000  C
  C133     1.0000 0.18965  0.97039  0.94187  Biso   1.000  C
  C134     1.0000 0.92917  0.15740  0.02726  Biso   1.000  C
  C135     1.0000 0.02884  0.89140  0.20700  Biso   1.000  C
  C136     1.0000 0.69308  0.96533  0.61724  Biso   1.000  C
  C137     1.0000 0.42672  0.15940  0.51970  Biso   1.000  C
  C138     1.0000 0.51966  0.88857  0.34497  Biso   1.000  C
  C139     1.0000 0.32878  0.46545  0.95357  Biso   1.000  C
  C140     1.0000 0.59980  0.65877  0.01449  Biso   1.000  C
  C141     1.0000 0.53290  0.39130  0.21256  Biso   1.000  C
  C142     1.0000 0.82224  0.47864  0.60364  Biso   1.000  C
  C143     1.0000 0.10531  0.65933  0.52862  Biso   1.000  C
  C144     1.0000 0.01478  0.39529  0.35385  Biso   1.000  C
  C145     1.0000 0.34176  0.48564  0.12579  Biso   1.000  C
  C146     1.0000 0.09930  0.29570  0.53022  Biso   1.000  C
  C147     1.0000 0.51741  0.05902  0.34362  Biso   1.000  C
  C148     1.0000 0.83650  0.49067  0.43188  Biso   1.000  C
  C149     1.0000 0.59770  0.29313  0.03310  Biso   1.000  C
  C150     1.0000 0.01378  0.06366  0.20813  Biso   1.000  C
  C151     1.0000 0.19400  0.97574  0.11393  Biso   1.000  C
  C152     1.0000 0.43144  0.79564  0.52963  Biso   1.000  C
  C153     1.0000 0.03515  0.56674  0.34556  Biso   1.000  C
  C154     1.0000 0.69708  0.97818  0.44371  Biso   1.000  C
  C155     1.0000 0.92991  0.79348  0.02186  Biso   1.000  C
  C156     1.0000 0.53951  0.56441  0.20784  Biso   1.000  C
  C157     1.0000 0.68339  0.47313  0.93203  Biso   1.000  C
  C158     1.0000 0.93384  0.65591  0.53443  Biso   1.000  C
  C159     1.0000 0.50915  0.88343  0.70656  Biso   1.000  C
  C160     1.0000 0.18874  0.47561  0.62790  Biso   1.000  C
  C161     1.0000 0.42825  0.65963  0.03510  Biso   1.000  C
  C162     1.0000 0.00522  0.89131  0.85009  Biso   1.000  C
  C163     1.0000 0.83431  0.97503  0.93746  Biso   1.000  C
  C164     1.0000 0.59790  0.15583  0.52670  Biso   1.000  C
  C165     1.0000 0.99672  0.39246  0.71099  Biso   1.000  C
  C166     1.0000 0.33181  0.97334  0.61333  Biso   1.000  C
  C167     1.0000 0.10175  0.16221  0.02501  Biso   1.000  C
  C168     1.0000 0.49649  0.38389  0.84661  Biso   1.000  C
  C169     1.0000 0.02019  0.79343  0.11202  Biso   1.000  C
  C170     1.0000 0.09878  0.98011  0.84564  Biso   1.000  C
  C171     1.0000 0.82960  0.06601  0.02910  Biso   1.000  C
  C172     1.0000 0.51167  0.79293  0.43904  Biso   1.000  C
  C173     1.0000 0.59618  0.96952  0.71084  Biso   1.000  C
  C174     1.0000 0.33533  0.06070  0.52678  Biso   1.000  C
  C175     1.0000 0.51453  0.29755  0.11688  Biso   1.000  C
  C176     1.0000 0.41132  0.46955  0.85126  Biso   1.000  C
  C177     1.0000 0.68943  0.56169  0.02290  Biso   1.000  C
  C178     1.0000 0.01124  0.29917  0.44427  Biso   1.000  C
  C179     1.0000 0.91423  0.48635  0.70019  Biso   1.000  C
  C180     1.0000 0.19109  0.56131  0.54990  Biso   1.000  C
  C181     1.0000 0.01002  0.15729  0.94294  Biso   1.000  C
  C182     1.0000 0.92783  0.96735  0.20325  Biso   1.000  C
  C183     1.0000 0.19458  0.89294  0.02315  Biso   1.000  C
  C184     1.0000 0.51502  0.15084  0.61450  Biso   1.000  C
  C185     1.0000 0.42980  0.97238  0.34577  Biso   1.000  C
  C186     1.0000 0.69564  0.89314  0.52035  Biso   1.000  C
  C187     1.0000 0.50477  0.65556  0.93947  Biso   1.000  C
  C188     1.0000 0.61399  0.47918  0.20694  Biso   1.000  C
  C189     1.0000 0.33220  0.39169  0.03974  Biso   1.000  C
  C190     1.0000 0.02103  0.65950  0.61336  Biso   1.000  C
  C191     1.0000 0.10932  0.47410  0.35678  Biso   1.000  C
  C192     1.0000 0.83012  0.39577  0.51463  Biso   1.000  C
  C193     1.0000 0.86019  0.97483  0.91950  Biso   1.000  C
  C194     1.0000 0.91478  0.82175  0.02152  Biso   1.000  C
  C195     1.0000 0.01008  0.87594  0.87768  Biso   1.000  C
  C196     1.0000 0.35784  0.97515  0.62970  Biso   1.000  C
  C197     1.0000 0.41374  0.82102  0.53192  Biso   1.000  C
  C198     1.0000 0.51141  0.86757  0.67853  Biso   1.000  C
  C199     1.0000 0.65613  0.47518  0.91607  Biso   1.000  C
  C200     1.0000 0.61509  0.32038  0.03124  Biso   1.000  C
  C201     1.0000 0.49922  0.36784  0.87391  Biso   1.000  C
  C202     1.0000 0.16184  0.47903  0.64428  Biso   1.000  C
  C203     1.0000 0.11492  0.32270  0.53190  Biso   1.000  C
  C204     1.0000 0.00313  0.37766  0.68387  Biso   1.000  C
  C205     1.0000 0.16889  0.97681  0.13219  Biso   1.000  C
  C206     1.0000 0.11672  0.13488  0.02795  Biso   1.000  C
  C207     1.0000 0.01552  0.08093  0.18040  Biso   1.000  C
  C208     1.0000 0.67109  0.97634  0.42721  Biso   1.000  C
  C209     1.0000 0.61484  0.13026  0.53078  Biso   1.000  C
  C210     1.0000 0.51837  0.07543  0.37062  Biso   1.000  C
  C211     1.0000 0.36955  0.48456  0.13932  Biso   1.000  C
  C212     1.0000 0.41128  0.63169  0.03627  Biso   1.000  C
  C213     1.0000 0.53704  0.57789  0.17947  Biso   1.000  C
  C214     1.0000 0.86390  0.49071  0.41791  Biso   1.000  C
  C215     1.0000 0.91557  0.63027  0.52921  Biso   1.000  C
  C216     1.0000 0.03606  0.58327  0.37313  Biso   1.000  C
  C217     1.0000 0.11220  0.97675  0.87306  Biso   1.000  C
  C218     1.0000 0.85770  0.08096  0.02798  Biso   1.000  C
  C219     1.0000 0.02218  0.82122  0.12742  Biso   1.000  C
  C220     1.0000 0.61240  0.96915  0.68389  Biso   1.000  C
  C221     1.0000 0.36299  0.07503  0.52184  Biso   1.000  C
  C222     1.0000 0.51213  0.82013  0.42298  Biso   1.000  C
  C223     1.0000 0.39770  0.46519  0.87959  Biso   1.000  C
  C224     1.0000 0.66329  0.57843  0.02107  Biso   1.000  C
  C225     1.0000 0.51825  0.32444  0.13416  Biso   1.000  C
  C226     1.0000 0.89948  0.48462  0.67238  Biso   1.000  C
  C227     1.0000 0.16528  0.57781  0.54767  Biso   1.000  C
  C228     1.0000 0.01436  0.32717  0.43054  Biso   1.000  C
  C229     1.0000 0.91222  0.97000  0.17697  Biso   1.000  C
  C230     1.0000 0.16714  0.87504  0.01835  Biso   1.000  C
  C231     1.0000 0.01067  0.12910  0.92681  Biso   1.000  C
  C232     1.0000 0.41453  0.97172  0.37339  Biso   1.000  C
  C233     1.0000 0.67080  0.87380  0.51938  Biso   1.000  C
  C234     1.0000 0.51433  0.12407  0.62983  Biso   1.000  C
  C235     1.0000 0.62868  0.47595  0.17843  Biso   1.000  C
  C236     1.0000 0.35953  0.37670  0.03403  Biso   1.000  C
  C237     1.0000 0.50522  0.62816  0.92342  Biso   1.000  C
  C238     1.0000 0.12523  0.47511  0.38452  Biso   1.000  C
  C239     1.0000 0.85709  0.37906  0.52012  Biso   1.000  C
  C240     1.0000 0.02079  0.63338  0.62930  Biso   1.000  C
  C241     1.0000 0.60281  0.46891  0.86858  Biso   1.000  C
  C242     1.0000 0.85979  0.58406  0.52387  Biso   1.000  C
  C243     1.0000 0.51492  0.81649  0.62650  Biso   1.000  C
  C244     1.0000 0.10702  0.47255  0.68978  Biso   1.000  C
  C245     1.0000 0.35996  0.58117  0.03502  Biso   1.000  C
  C246     1.0000 0.01788  0.82243  0.92596  Biso   1.000  C
  C247     1.0000 0.91158  0.96980  0.86643  Biso   1.000  C
  C248     1.0000 0.66646  0.08085  0.53341  Biso   1.000  C
  C249     1.0000 0.01221  0.32376  0.63513  Biso   1.000  C
  C250     1.0000 0.40855  0.97227  0.68141  Biso   1.000  C
  C251     1.0000 0.16739  0.08167  0.03054  Biso   1.000  C
  C252     1.0000 0.51094  0.31770  0.92779  Biso   1.000  C
  C253     1.0000 0.42547  0.48427  0.18782  Biso   1.000  C
  C254     1.0000 0.16869  0.37247  0.53963  Biso   1.000  C
  C255     1.0000 0.51217  0.12608  0.42238  Biso   1.000  C
  C256     1.0000 0.92075  0.48675  0.36949  Biso   1.000  C
  C257     1.0000 0.66684  0.36965  0.02219  Biso   1.000  C
  C258     1.0000 0.02133  0.13565  0.12866  Biso   1.000  C
  C259     1.0000 0.11688  0.97763  0.18317  Biso   1.000  C
  C260     1.0000 0.36076  0.87240  0.52765  Biso   1.000  C
  C261     1.0000 0.02703  0.63197  0.42351  Biso   1.000  C
  C262     1.0000 0.62250  0.97694  0.37435  Biso   1.000  C
  C263     1.0000 0.86258  0.87334  0.02194  Biso   1.000  C
  C264     1.0000 0.52538  0.62907  0.12803  Biso   1.000  C
  C265     1.0000 0.01126  0.07853  0.87310  Biso   1.000  C
  C266     1.0000 0.86086  0.96592  0.12858  Biso   1.000  C
  C267     1.0000 0.11714  0.82194  0.01914  Biso   1.000  C
  C268     1.0000 0.51906  0.07198  0.67991  Biso   1.000  C
  C269     1.0000 0.36126  0.97447  0.42230  Biso   1.000  C
  C270     1.0000 0.62113  0.82082  0.51802  Biso   1.000  C
  C271     1.0000 0.50034  0.57368  0.87313  Biso   1.000  C
  C272     1.0000 0.67800  0.47545  0.12428  Biso   1.000  C
  C273     1.0000 0.41009  0.32726  0.02862  Biso   1.000  C
  C274     1.0000 0.01438  0.58000  0.67863  Biso   1.000  C
  C275     1.0000 0.17358  0.48108  0.43854  Biso   1.000  C
  C276     1.0000 0.90992  0.32671  0.53095  Biso   1.000  C
  C277     1.0000 0.02690  0.87424  0.17960  Biso   1.000  C
  C278     1.0000 0.16237  0.97518  0.92627  Biso   1.000  C
  C279     1.0000 0.91236  0.13000  0.02621  Biso   1.000  C
  C280     1.0000 0.51462  0.87272  0.37253  Biso   1.000  C
  C281     1.0000 0.66462  0.96450  0.63158  Biso   1.000  C
  C282     1.0000 0.41217  0.13118  0.52001  Biso   1.000  C
  C283     1.0000 0.52536  0.37480  0.18735  Biso   1.000  C
  C284     1.0000 0.35301  0.47003  0.93521  Biso   1.000  C
  C285     1.0000 0.61574  0.63204  0.01629  Biso   1.000  C
  C286     1.0000 0.01416  0.37893  0.37979  Biso   1.000  C
  C287     1.0000 0.84838  0.48540  0.62046  Biso   1.000  C
  C288     1.0000 0.11834  0.63144  0.53251  Biso   1.000  C
  C289     1.0000 0.36123  0.84111  0.52996  Biso   1.000  C
  C290     1.0000 0.51146  0.31655  0.89668  Biso   1.000  C
  C291     1.0000 0.88941  0.48854  0.36572  Biso   1.000  C
  C292     1.0000 0.86210  0.84236  0.01762  Biso   1.000  C
  C293     1.0000 0.01014  0.32368  0.66569  Biso   1.000  C
  C294     1.0000 0.39406  0.48472  0.19087  Biso   1.000  C
  C295     1.0000 0.16894  0.34185  0.53556  Biso   1.000  C
  C296     1.0000 0.01758  0.82164  0.89436  Biso   1.000  C
  C297     1.0000 0.65332  0.97215  0.37418  Biso   1.000  C
  C298     1.0000 0.66819  0.33858  0.02904  Biso   1.000  C
  C299     1.0000 0.51376  0.81611  0.65732  Biso   1.000  C
  C300     1.0000 0.14794  0.97847  0.18438  Biso   1.000  C
  C301     1.0000 0.66820  0.11260  0.53346  Biso   1.000  C
  C302     1.0000 0.52763  0.63012  0.15900  Biso   1.000  C
  C303     1.0000 0.13775  0.47120  0.69391  Biso   1.000  C
  C304     1.0000 0.16867  0.11210  0.03297  Biso   1.000  C
  C305     1.0000 0.02856  0.63471  0.39183  Biso   1.000  C
  C306     1.0000 0.63412  0.46686  0.86534  Biso   1.000  C
  C307     1.0000 0.86273  0.61530  0.52588  Biso   1.000  C
  C308     1.0000 0.01753  0.13468  0.16038  Biso   1.000  C
  C309     1.0000 0.37686  0.97013  0.68166  Biso   1.000  C
  C310     1.0000 0.35826  0.61228  0.03897  Biso   1.000  C
  C311     1.0000 0.51401  0.12867  0.39159  Biso   1.000  C
  C312     1.0000 0.88042  0.96636  0.86675  Biso   1.000  C
  C313     1.0000 0.17677  0.47642  0.40710  Biso   1.000  C
  C314     1.0000 0.38008  0.13011  0.52007  Biso   1.000  C
  C315     1.0000 0.52539  0.34404  0.18769  Biso   1.000  C
  C316     1.0000 0.68003  0.47659  0.15409  Biso   1.000  C
  C317     1.0000 0.88169  0.13350  0.02789  Biso   1.000  C
  C318     1.0000 0.01212  0.34785  0.37810  Biso   1.000  C
  C319     1.0000 0.36052  0.97173  0.39112  Biso   1.000  C
  C320     1.0000 0.14904  0.62987  0.53674  Biso   1.000  C
  C321     1.0000 0.02442  0.84317  0.18054  Biso   1.000  C
  C322     1.0000 0.85915  0.96799  0.15874  Biso   1.000  C
  C323     1.0000 0.64717  0.63309  0.01527  Biso   1.000  C
  C324     1.0000 0.51882  0.84215  0.37046  Biso   1.000  C
  C325     1.0000 0.84609  0.48459  0.65215  Biso   1.000  C
  C326     1.0000 0.65273  0.82069  0.51883  Biso   1.000  C
  C327     1.0000 0.50117  0.60512  0.87103  Biso   1.000  C
  C328     1.0000 0.34704  0.46755  0.90404  Biso   1.000  C
  C329     1.0000 0.14826  0.82217  0.01819  Biso   1.000  C
  C330     1.0000 0.01430  0.61140  0.68143  Biso   1.000  C
  C331     1.0000 0.66613  0.96565  0.66350  Biso   1.000  C
  C332     1.0000 0.87753  0.32798  0.52969  Biso   1.000  C
  C333     1.0000 0.00760  0.10865  0.87306  Biso   1.000  C
  C334     1.0000 0.16331  0.97070  0.89568  Biso   1.000  C
  C335     1.0000 0.37883  0.32487  0.03226  Biso   1.000  C
  C336     1.0000 0.52163  0.10470  0.68122  Biso   1.000  C
  C337     1.0000 0.65722  0.46922  0.88567  Biso   1.000  C
  C338     1.0000 0.88549  0.63439  0.52971  Biso   1.000  C
  C339     1.0000 0.51458  0.83695  0.67961  Biso   1.000  C
  C340     1.0000 0.16062  0.47311  0.67409  Biso   1.000  C
  C341     1.0000 0.38041  0.63386  0.03878  Biso   1.000  C
  C342     1.0000 0.01288  0.84472  0.87479  Biso   1.000  C
  C343     1.0000 0.85935  0.96936  0.88848  Biso   1.000  C
  C344     1.0000 0.64628  0.13268  0.53190  Biso   1.000  C
  C345     1.0000 0.00678  0.34692  0.68588  Biso   1.000  C
  C346     1.0000 0.35636  0.97120  0.66089  Biso   1.000  C
  C347     1.0000 0.14751  0.13493  0.03170  Biso   1.000  C
  C348     1.0000 0.50397  0.33738  0.87483  Biso   1.000  C
  C349     1.0000 0.37088  0.48512  0.17099  Biso   1.000  C
  C350     1.0000 0.14608  0.32205  0.53157  Biso   1.000  C
  C351     1.0000 0.51675  0.10680  0.37026  Biso   1.000  C
  C352     1.0000 0.86545  0.49015  0.38605  Biso   1.000  C
  C353     1.0000 0.64625  0.31799  0.03274  Biso   1.000  C
  C354     1.0000 0.01563  0.11286  0.18164  Biso   1.000  C
  C355     1.0000 0.16910  0.97672  0.16356  Biso   1.000  C
  C356     1.0000 0.38360  0.82019  0.53004  Biso   1.000  C
  C357     1.0000 0.03197  0.61360  0.37017  Biso   1.000  C
  C358     1.0000 0.67362  0.97218  0.39677  Biso   1.000  C
  C359     1.0000 0.88328  0.81988  0.01721  Biso   1.000  C
  C360     1.0000 0.53241  0.60895  0.17989  Biso   1.000  C
  C361     1.0000 0.00801  0.13057  0.89429  Biso   1.000  C
  C362     1.0000 0.88119  0.96945  0.18023  Biso   1.000  C
  C363     1.0000 0.16892  0.84440  0.01915  Biso   1.000  C
  C364     1.0000 0.51914  0.12553  0.66073  Biso   1.000  C
  C365     1.0000 0.38323  0.97075  0.37106  Biso   1.000  C
  C366     1.0000 0.67341  0.84318  0.51905  Biso   1.000  C
  C367     1.0000 0.50283  0.62770  0.89234  Biso   1.000  C
  C368     1.0000 0.65998  0.47891  0.17754  Biso   1.000  C
  C369     1.0000 0.35745  0.34570  0.03243  Biso   1.000  C
  C370     1.0000 0.01606  0.63407  0.66050  Biso   1.000  C
  C371     1.0000 0.15646  0.47557  0.38497  Biso   1.000  C
  C372     1.0000 0.85585  0.34830  0.52424  Biso   1.000  C
  C373     1.0000 0.02259  0.82068  0.15902  Biso   1.000  C
  C374     1.0000 0.14335  0.97366  0.87381  Biso   1.000  C
  C375     1.0000 0.85974  0.11182  0.02831  Biso   1.000  C
  C376     1.0000 0.51632  0.82010  0.39092  Biso   1.000  C
  C377     1.0000 0.64340  0.96659  0.68497  Biso   1.000  C
  C378     1.0000 0.36039  0.10630  0.52177  Biso   1.000  C
  C379     1.0000 0.52176  0.32286  0.16491  Biso   1.000  C
  C380     1.0000 0.36653  0.46603  0.88172  Biso   1.000  C
  C381     1.0000 0.66692  0.61064  0.01839  Biso   1.000  C
  C382     1.0000 0.01234  0.32623  0.39908  Biso   1.000  C
  C383     1.0000 0.86827  0.48450  0.67370  Biso   1.000  C
  C384     1.0000 0.16806  0.60855  0.54536  Biso   1.000  C
  C385     1.0000 0.19438  0.12825  0.03678  Biso   1.000  C
  C386     1.0000 0.01406  0.16199  0.17647  Biso   1.000  C
  C387     1.0000 0.16328  0.97869  0.21175  Biso   1.000  C
  C388     1.0000 0.69404  0.12868  0.53344  Biso   1.000  C
  C389     1.0000 0.51495  0.15535  0.37584  Biso   1.000  C
  C390     1.0000 0.66912  0.96898  0.34799  Biso   1.000  C
  C391     1.0000 0.33103  0.62825  0.04003  Biso   1.000  C
  C392     1.0000 0.52260  0.65740  0.17497  Biso   1.000  C
  C393     1.0000 0.37988  0.48029  0.21877  Biso   1.000  C
  C394     1.0000 0.83624  0.63211  0.52402  Biso   1.000  C
  C395     1.0000 0.02352  0.66055  0.37660  Biso   1.000  C
  C396     1.0000 0.87709  0.48694  0.33860  Biso   1.000  C
  C397     1.0000 0.83474  0.82773  0.01507  Biso   1.000  C
  C398     1.0000 0.02075  0.79523  0.87908  Biso   1.000  C
  C399     1.0000 0.86569  0.96145  0.83995  Biso   1.000  C
  C400     1.0000 0.33417  0.82477  0.53133  Biso   1.000  C
  C401     1.0000 0.51501  0.78898  0.67219  Biso   1.000  C
  C402     1.0000 0.35963  0.96739  0.70817  Biso   1.000  C
  C403     1.0000 0.69383  0.32278  0.03150  Biso   1.000  C
  C404     1.0000 0.51599  0.28953  0.88210  Biso   1.000  C
  C405     1.0000 0.64797  0.46603  0.83739  Biso   1.000  C
  C406     1.0000 0.19551  0.32567  0.53345  Biso   1.000  C
  C407     1.0000 0.01217  0.29711  0.68182  Biso   1.000  C
  C408     1.0000 0.15110  0.47014  0.72132  Biso   1.000  C
  C409     1.0000 0.15879  0.97041  0.84703  Biso   1.000  C
  C410     1.0000 0.83301  0.12827  0.02722  Biso   1.000  C
  C411     1.0000 0.02097  0.79384  0.17481  Biso   1.000  C
  C412     1.0000 0.65835  0.96563  0.71300  Biso   1.000  C
  C413     1.0000 0.33324  0.12135  0.52629  Biso   1.000  C
  C414     1.0000 0.51820  0.79327  0.37529  Biso   1.000  C
  C415     1.0000 0.35017  0.46718  0.85593  Biso   1.000  C
  C416     1.0000 0.69486  0.62285  0.01368  Biso   1.000  C
  C417     1.0000 0.52194  0.29572  0.18028  Biso   1.000  C
  C418     1.0000 0.85147  0.48277  0.70039  Biso   1.000  C
  C419     1.0000 0.19511  0.62247  0.54861  Biso   1.000  C
  C420     1.0000 0.00942  0.30072  0.38266  Biso   1.000  C
  C421     1.0000 0.86629  0.96693  0.20793  Biso   1.000  C
  C422     1.0000 0.19524  0.82950  0.01749  Biso   1.000  C
  C423     1.0000 0.00625  0.15822  0.88048  Biso   1.000  C
  C424     1.0000 0.36690  0.97095  0.34449  Biso   1.000  C
  C425     1.0000 0.70052  0.82972  0.52035  Biso   1.000  C
  C426     1.0000 0.52052  0.15338  0.67675  Biso   1.000  C
  C427     1.0000 0.67714  0.48107  0.20406  Biso   1.000  C
  C428     1.0000 0.33105  0.33051  0.03550  Biso   1.000  C
  C429     1.0000 0.50252  0.65366  0.87582  Biso   1.000  C
  C430     1.0000 0.17389  0.47385  0.35950  Biso   1.000  C
  C431     1.0000 0.82954  0.33165  0.52342  Biso   1.000  C
  C432     1.0000 0.01607  0.66119  0.67543  Biso   1.000  C
  C433     1.0000 0.00525  0.12480  0.84678  Biso   1.000  C
  C434     1.0000 0.83179  0.96917  0.17559  Biso   1.000  C
  C435     1.0000 0.16248  0.79582  0.01505  Biso   1.000  C
  C436     1.0000 0.52429  0.11953  0.70826  Biso   1.000  C
  C437     1.0000 0.33360  0.97250  0.37606  Biso   1.000  C
  C438     1.0000 0.66924  0.79492  0.52091  Biso   1.000  C
  C439     1.0000 0.49849  0.61914  0.84332  Biso   1.000  C
  C440     1.0000 0.70679  0.47902  0.16846  Biso   1.000  C
  C441     1.0000 0.36341  0.29763  0.03584  Biso   1.000  C
  C442     1.0000 0.01229  0.62735  0.70769  Biso   1.000  C
  C443     1.0000 0.20479  0.47521  0.39262  Biso   1.000  C
  C444     1.0000 0.86142  0.30011  0.53389  Biso   1.000  C
  C445     1.0000 0.02399  0.82819  0.20768  Biso   1.000  C
  C446     1.0000 0.18986  0.96314  0.88049  Biso   1.000  C
  C447     1.0000 0.86824  0.16060  0.02991  Biso   1.000  C
  C448     1.0000 0.52474  0.82685  0.34419  Biso   1.000  C
  C449     1.0000 0.69232  0.96573  0.68025  Biso   1.000  C
  C450     1.0000 0.36258  0.15538  0.52168  Biso   1.000  C
  C451     1.0000 0.52828  0.32759  0.21339  Biso   1.000  C
  C452     1.0000 0.31901  0.46487  0.89106  Biso   1.000  C
  C453     1.0000 0.66317  0.65902  0.01236  Biso   1.000  C
  C454     1.0000 0.01209  0.33264  0.35061  Biso   1.000  C
  C455     1.0000 0.81900  0.48161  0.66774  Biso   1.000  C
  C456     1.0000 0.16567  0.65581  0.53590  Biso   1.000  C
  C457     1.0000 0.02988  0.62920  0.34266  Biso   1.000  C
  C458     1.0000 0.32869  0.96796  0.67537  Biso   1.000  C
  C459     1.0000 0.66099  0.29139  0.03491  Biso   1.000  C
  C460     1.0000 0.53299  0.62467  0.20711  Biso   1.000  C
  C461     1.0000 0.83228  0.96670  0.87369  Biso   1.000  C
  C462     1.0000 0.16182  0.29460  0.53003  Biso   1.000  C
  C463     1.0000 0.51943  0.12226  0.34212  Biso   1.000  C
  C464     1.0000 0.18711  0.46899  0.68982  Biso   1.000  C
  C465     1.0000 0.86785  0.79385  0.01438  Biso   1.000  C
  C466     1.0000 0.01335  0.12863  0.20869  Biso   1.000  C
  C467     1.0000 0.68217  0.46625  0.86770  Biso   1.000  C
  C468     1.0000 0.36876  0.79239  0.53051  Biso   1.000  C
  C469     1.0000 0.00576  0.33112  0.71321  Biso   1.000  C
  C470     1.0000 0.70088  0.96797  0.38034  Biso   1.000  C
  C471     1.0000 0.36560  0.66146  0.04018  Biso   1.000  C
  C472     1.0000 0.50567  0.32083  0.84810  Biso   1.000  C
  C473     1.0000 0.19583  0.97437  0.17823  Biso   1.000  C
  C474     1.0000 0.87140  0.66187  0.53158  Biso   1.000  C
  C475     1.0000 0.51558  0.82198  0.70593  Biso   1.000  C
  C476     1.0000 0.83941  0.48929  0.36927  Biso   1.000  C
  C477     1.0000 0.16297  0.16242  0.03263  Biso   1.000  C
  C478     1.0000 0.01158  0.82939  0.84821  Biso   1.000  C
  C479     1.0000 0.34507  0.48356  0.18981  Biso   1.000  C
  C480     1.0000 0.66064  0.16000  0.53098  Biso   1.000  C
  C481     1.0000 0.38644  0.76668  0.52661  Biso   1.000  C
  C482     1.0000 0.49936  0.33389  0.82060  Biso   1.000  C
  C483     1.0000 0.81085  0.48676  0.38338  Biso   1.000  C
  C484     1.0000 0.88237  0.76535  0.01284  Biso   1.000  C
  C485     1.0000 0.99982  0.34744  0.73983  Biso   1.000  C
  C486     1.0000 0.31773  0.48485  0.17480  Biso   1.000  C
  C487     1.0000 0.14603  0.26734  0.52663  Biso   1.000  C
  C488     1.0000 0.00504  0.84385  0.82176  Biso   1.000  C
  C489     1.0000 0.72711  0.96899  0.39707  Biso   1.000  C
  C490     1.0000 0.64267  0.26361  0.03580  Biso   1.000  C
  C491     1.0000 0.51202  0.83724  0.73339  Biso   1.000  C
  C492     1.0000 0.22127  0.97203  0.15974  Biso   1.000  C
  C493     1.0000 0.64389  0.18654  0.52923  Biso   1.000  C
  C494     1.0000 0.54133  0.61187  0.23462  Biso   1.000  C
  C495     1.0000 0.21479  0.46820  0.67387  Biso   1.000  C
  C496     1.0000 0.14887  0.18971  0.03018  Biso   1.000  C
  C497     1.0000 0.03350  0.61224  0.31722  Biso   1.000  C
  C498     1.0000 0.71135  0.46477  0.88375  Biso   1.000  C
  C499     1.0000 0.88816  0.68703  0.53885  Biso   1.000  C
  C500     1.0000 0.01252  0.11069  0.23530  Biso   1.000  C
  C501     1.0000 0.30259  0.96673  0.65953  Biso   1.000  C
  C502     1.0000 0.38094  0.68816  0.04229  Biso   1.000  C
  C503     1.0000 0.52210  0.10594  0.31454  Biso   1.000  C
  C504     1.0000 0.80526  0.97022  0.89085  Biso   1.000  C
  C505     1.0000 0.62962  0.46835  0.81104  Biso   1.000  C
  C506     1.0000 0.80777  0.61866  0.51912  Biso   1.000  C
  C507     1.0000 0.51844  0.76209  0.65667  Biso   1.000  C
  C508     1.0000 0.13090  0.46892  0.74618  Biso   1.000  C
  C509     1.0000 0.30380  0.61176  0.03743  Biso   1.000  C
  C510     1.0000 0.02587  0.76763  0.89412  Biso   1.000  C
  C511     1.0000 0.88253  0.95918  0.81176  Biso   1.000  C
  C512     1.0000 0.72130  0.11352  0.53338  Biso   1.000  C
  C513     1.0000 0.01743  0.26990  0.66795  Biso   1.000  C
  C514     1.0000 0.37433  0.96740  0.73610  Biso   1.000  C
  C515     1.0000 0.22129  0.11231  0.04220  Biso   1.000  C
  C516     1.0000 0.52289  0.26411  0.89831  Biso   1.000  C
  C517     1.0000 0.39585  0.47392  0.24422  Biso   1.000  C
  C518     1.0000 0.22197  0.34120  0.53129  Biso   1.000  C
  C519     1.0000 0.51049  0.18174  0.39111  Biso   1.000  C
  C520     1.0000 0.89499  0.48566  0.31263  Biso   1.000  C
  C521     1.0000 0.72121  0.33810  0.02525  Biso   1.000  C
  C522     1.0000 0.01259  0.18973  0.15998  Biso   1.000  C
  C523     1.0000 0.14542  0.97605  0.23715  Biso   1.000  C
  C524     1.0000 0.30645  0.84199  0.53421  Biso   1.000  C
  C525     1.0000 0.01636  0.68573  0.39454  Biso   1.000  C
  C526     1.0000 0.65355  0.96704  0.32073  Biso   1.000  C
  C527     1.0000 0.80836  0.84566  0.01339  Biso   1.000  C
  C528     1.0000 0.51494  0.68322  0.15981  Biso   1.000  C
  C529     1.0000 0.80415  0.11540  0.02887  Biso   1.000  C
  C530     1.0000 0.01700  0.76721  0.15965  Biso   1.000  C
  C531     1.0000 0.14671  0.97158  0.81878  Biso   1.000  C
  C532     1.0000 0.30610  0.10571  0.53287  Biso   1.000  C
  C533     1.0000 0.51505  0.76548  0.39121  Biso   1.000  C
  C534     1.0000 0.64196  0.96559  0.74009  Biso   1.000  C
  C535     1.0000 0.71994  0.60457  0.01286  Biso   1.000  C
  C536     1.0000 0.51684  0.26886  0.16616  Biso   1.000  C
  C537     1.0000 0.36360  0.46954  0.82797  Biso   1.000  C
  C538     1.0000 0.22133  0.60584  0.55398  Biso   1.000  C
  C539     1.0000 0.00607  0.27359  0.39699  Biso   1.000  C
  C540     1.0000 0.86635  0.48212  0.72764  Biso   1.000  C
  C541     1.0000 0.22160  0.84578  0.01792  Biso   1.000  C
  C542     1.0000 0.00764  0.18581  0.89597  Biso   1.000  C
  C543     1.0000 0.88312  0.96159  0.23428  Biso   1.000  C
  C544     1.0000 0.72633  0.84790  0.51959  Biso   1.000  C
  C545     1.0000 0.51669  0.18091  0.66241  Biso   1.000  C
  C546     1.0000 0.38443  0.97070  0.31731  Biso   1.000  C
  C547     1.0000 0.30158  0.34594  0.04134  Biso   1.000  C
  C548     1.0000 0.50262  0.68251  0.89091  Biso   1.000  C
  C549     1.0000 0.66093  0.48553  0.23125  Biso   1.000  C
  C550     1.0000 0.80305  0.34754  0.51771  Biso   1.000  C
  C551     1.0000 0.01843  0.68820  0.66020  Biso   1.000  C
  C552     1.0000 0.16026  0.47001  0.33086  Biso   1.000  C
  C553     1.0000 0.00907  0.11063  0.81820  Biso   1.000  C
  C554     1.0000 0.80460  0.97180  0.16139  Biso   1.000  C
  C555     1.0000 0.14758  0.76846  0.01077  Biso   1.000  C
  C556     1.0000 0.52501  0.10331  0.73596  Biso   1.000  C
  C557     1.0000 0.30706  0.97812  0.39122  Biso   1.000  C
  C558     1.0000 0.65369  0.76709  0.52353  Biso   1.000  C
  C559     1.0000 0.49338  0.60277  0.81818  Biso   1.000  C
  C560     1.0000 0.73275  0.47553  0.15105  Biso   1.000  C
  C561     1.0000 0.37927  0.27078  0.02956  Biso   1.000  C
  C562     1.0000 0.00468  0.61062  0.73420  Biso   1.000  C
  C563     1.0000 0.23014  0.47825  0.40927  Biso   1.000  C
  C564     1.0000 0.87676  0.27283  0.54118  Biso   1.000  C
  C565     1.0000 0.02718  0.84406  0.23494  Biso   1.000  C
  C566     1.0000 0.21546  0.95410  0.89659  Biso   1.000  C
  C567     1.0000 0.88470  0.18744  0.02795  Biso   1.000  C
  C568     1.0000 0.53094  0.84307  0.31772  Biso   1.000  C
  C569     1.0000 0.71855  0.96457  0.66400  Biso   1.000  C
  C570     1.0000 0.37735  0.18350  0.52032  Biso   1.000  C
  C571     1.0000 0.53536  0.34366  0.23941  Biso   1.000  C
  C572     1.0000 0.29482  0.46345  0.91018  Biso   1.000  C
  C573     1.0000 0.64748  0.68635  0.01176  Biso   1.000  C
  C574     1.0000 0.01290  0.34931  0.32388  Biso   1.000  C
  C575     1.0000 0.79316  0.47848  0.65023  Biso   1.000  C
  C576     1.0000 0.15316  0.68448  0.52897  Biso   1.000  C
  C577     1.0000 0.31645  0.48681  0.14400  Biso   1.000  C
  C578     1.0000 0.11437  0.26826  0.52638  Biso   1.000  C
  C579     1.0000 0.51972  0.07505  0.31641  Biso   1.000  C
  C580     1.0000 0.81077  0.48921  0.41450  Biso   1.000  C
  C581     1.0000 0.61189  0.26437  0.03374  Biso   1.000  C
  C582     1.0000 0.01405  0.07914  0.23522  Biso   1.000  C
  C583     1.0000 0.22189  0.97366  0.12777  Biso   1.000  C
  C584     1.0000 0.41745  0.76788  0.52701  Biso   1.000  C
  C585     1.0000 0.03346  0.58010  0.31762  Biso   1.000  C
  C586     1.0000 0.72535  0.97628  0.42886  Biso   1.000  C
  C587     1.0000 0.91389  0.76548  0.01924  Biso   1.000  C
  C588     1.0000 0.54422  0.58005  0.23363  Biso   1.000  C
  C589     1.0000 0.71032  0.46962  0.91593  Biso   1.000  C
  C590     1.0000 0.91903  0.68392  0.53899  Biso   1.000  C
  C591     1.0000 0.50886  0.86813  0.73338  Biso   1.000  C
  C592     1.0000 0.21494  0.47003  0.64281  Biso   1.000  C
  C593     1.0000 0.41314  0.68744  0.03897  Biso   1.000  C
  C594     1.0000 0.00036  0.87510  0.82275  Biso   1.000  C
  C595     1.0000 0.80688  0.97450  0.92266  Biso   1.000  C
  C596     1.0000 0.61321  0.18342  0.52665  Biso   1.000  C
  C597     1.0000 0.99553  0.37739  0.73928  Biso   1.000  C
  C598     1.0000 0.30393  0.96972  0.62929  Biso   1.000  C
  C599     1.0000 0.11761  0.18860  0.02352  Biso   1.000  C
  C600     1.0000 0.49385  0.36519  0.81982  Biso   1.000  C
  C601     1.0000 0.21561  0.95953  0.92747  Biso   1.000  C
  C602     1.0000 0.91555  0.18528  0.02662  Biso   1.000  C
  C603     1.0000 0.02888  0.87617  0.23489  Biso   1.000  C
  C604     1.0000 0.71950  0.96391  0.63309  Biso   1.000  C
  C605     1.0000 0.40900  0.18467  0.51929  Biso   1.000  C
  C606     1.0000 0.52849  0.87413  0.31856  Biso   1.000  C
  C607     1.0000 0.29890  0.46297  0.94105  Biso   1.000  C
  C608     1.0000 0.61697  0.68697  0.01370  Biso   1.000  C
  C609     1.0000 0.53932  0.37444  0.23786  Biso   1.000  C
  C610     1.0000 0.79367  0.47875  0.61868  Biso   1.000  C
  C611     1.0000 0.12246  0.68609  0.52639  Biso   1.000  C
  C612     1.0000 0.01386  0.38123  0.32580  Biso   1.000  C
  C613     1.0000 0.80513  0.97068  0.13049  Biso   1.000  C
  C614     1.0000 0.11665  0.76873  0.01039  Biso   1.000  C
  C615     1.0000 0.01357  0.07845  0.81771  Biso   1.000  C
  C616     1.0000 0.30698  0.97786  0.42303  Biso   1.000  C
  C617     1.0000 0.62240  0.76668  0.52400  Biso   1.000  C
  C618     1.0000 0.52334  0.07175  0.73541  Biso   1.000  C
  C619     1.0000 0.73171  0.47360  0.11922  Biso   1.000  C
  C620     1.0000 0.41051  0.27231  0.02816  Biso   1.000  C
  C621     1.0000 0.49273  0.57117  0.82058  Biso   1.000  C
  C622     1.0000 0.22707  0.48193  0.44137  Biso   1.000  C
  C623     1.0000 0.90815  0.27393  0.54131  Biso   1.000  C
  C624     1.0000 0.00537  0.57927  0.73358  Biso   1.000  C
  C625     1.0000 0.00762  0.18451  0.92720  Biso   1.000  C
  C626     1.0000 0.91445  0.96305  0.23184  Biso   1.000  C
  C627     1.0000 0.22215  0.87733  0.02256  Biso   1.000  C
  C628     1.0000 0.51502  0.17852  0.63130  Biso   1.000  C
  C629     1.0000 0.41556  0.97182  0.31828  Biso   1.000  C
  C630     1.0000 0.72417  0.87928  0.51963  Biso   1.000  C
  C631     1.0000 0.50416  0.68147  0.92323  Biso   1.000  C
  C632     1.0000 0.63049  0.48386  0.23249  Biso   1.000  C
  C633     1.0000 0.30383  0.37690  0.04276  Biso   1.000  C
  C634     1.0000 0.01936  0.68761  0.62885  Biso   1.000  C
  C635     1.0000 0.12717  0.47129  0.32978  Biso   1.000  C
  C636     1.0000 0.80269  0.37924  0.51346  Biso   1.000  C
  C637     1.0000 0.01651  0.76747  0.12896  Biso   1.000  C
  C638     1.0000 0.11592  0.97818  0.81864  Biso   1.000  C
  C639     1.0000 0.80421  0.08357  0.02901  Biso   1.000  C
  C640     1.0000 0.51385  0.76661  0.42308  Biso   1.000  C
  C641     1.0000 0.61066  0.96869  0.73913  Biso   1.000  C
  C642     1.0000 0.30785  0.07410  0.53021  Biso   1.000  C
  C643     1.0000 0.51187  0.27038  0.13400  Biso   1.000  C
  C644     1.0000 0.39359  0.47547  0.82627  Biso   1.000  C
  C645     1.0000 0.71836  0.57498  0.01857  Biso   1.000  C
  C646     1.0000 0.00654  0.27284  0.42876  Biso   1.000  C
  C647     1.0000 0.89757  0.48442  0.72683  Biso   1.000  C
  C648     1.0000 0.21879  0.57547  0.55500  Biso   1.000  C
  C649     1.0000 0.01747  0.68430  0.42625  Biso   1.000  C
  C650     1.0000 0.40582  0.97104  0.73555  Biso   1.000  C
  C651     1.0000 0.72104  0.37003  0.01780  Biso   1.000  C
  C652     1.0000 0.51428  0.68239  0.12832  Biso   1.000  C
  C653     1.0000 0.91438  0.96212  0.81131  Biso   1.000  C
  C654     1.0000 0.22277  0.37260  0.53303  Biso   1.000  C
  C655     1.0000 0.50456  0.18053  0.42303  Biso   1.000  C
  C656     1.0000 0.09989  0.47033  0.74351  Biso   1.000  C
  C657     1.0000 0.80768  0.87615  0.01948  Biso   1.000  C
  C658     1.0000 0.01520  0.18972  0.12904  Biso   1.000  C
  C659     1.0000 0.59837  0.46648  0.81362  Biso   1.000  C
  C660     1.0000 0.30662  0.87374  0.53359  Biso   1.000  C
  C661     1.0000 0.02174  0.26919  0.63730  Biso   1.000  C
  C662     1.0000 0.62241  0.96983  0.31993  Biso   1.000  C
  C663     1.0000 0.30559  0.58048  0.03354  Biso   1.000  C
  C664     1.0000 0.52288  0.26497  0.92918  Biso   1.000  C
  C665     1.0000 0.11430  0.97645  0.23677  Biso   1.000  C
  C666     1.0000 0.80766  0.58776  0.51675  Biso   1.000  C
  C667     1.0000 0.51805  0.76231  0.62604  Biso   1.000  C
  C668     1.0000 0.92552  0.48417  0.31597  Biso   1.000  C
  C669     1.0000 0.22115  0.08075  0.03814  Biso   1.000  C
  C670     1.0000 0.02747  0.76845  0.92553  Biso   1.000  C
  C671     1.0000 0.42682  0.47472  0.24093  Biso   1.000  C
  C672     1.0000 0.72144  0.08186  0.53208  Biso   1.000  C
  C673     1.0000 0.20425  0.95908  0.83320  Biso   1.000  C
  C674     1.0000 0.82168  0.17504  0.02402  Biso   1.000  C
  C675     1.0000 0.01798  0.78184  0.22205  Biso   1.000  C
  C676     1.0000 0.70551  0.96603  0.72667  Biso   1.000  C
  C677     1.0000 0.31398  0.16715  0.52537  Biso   1.000  C
  C678     1.0000 0.52252  0.78039  0.32826  Biso   1.000  C
  C679     1.0000 0.30239  0.46405  0.84439  Biso   1.000  C
  C680     1.0000 0.71062  0.67062  0.00988  Biso   1.000  C
  C681     1.0000 0.52767  0.28146  0.22785  Biso   1.000  C
  C682     1.0000 0.80255  0.47875  0.71486  Biso   1.000  C
  C683     1.0000 0.21242  0.66749  0.54021  Biso   1.000  C
  C684     1.0000 0.00704  0.28507  0.33522  Biso   1.000  C
  C685     1.0000 0.82197  0.96412  0.22434  Biso   1.000  C
  C686     1.0000 0.20741  0.78089  0.01747  Biso   1.000  C
  C687     1.0000 0.00523  0.17176  0.83325  Biso   1.000  C
  C688     1.0000 0.31886  0.97254  0.33124  Biso   1.000  C
  C689     1.0000 0.71694  0.78418  0.52280  Biso   1.000  C
  C690     1.0000 0.52426  0.16523  0.72309  Biso   1.000  C
  C691     1.0000 0.72409  0.48385  0.21457  Biso   1.000  C
  C692     1.0000 0.31676  0.28359  0.03767  Biso   1.000  C
  C693     1.0000 0.50468  0.66644  0.82967  Biso   1.000  C
  C694     1.0000 0.22332  0.47114  0.34650  Biso   1.000  C
  C695     1.0000 0.81610  0.28471  0.53066  Biso   1.000  C
  C696     1.0000 0.01562  0.67310  0.72400  Biso   1.000  C
  C697     1.0000 0.71599  0.96196  0.33510  Biso   1.000  C
  C698     1.0000 0.31746  0.67504  0.04015  Biso   1.000  C
  C699     1.0000 0.00590  0.28395  0.72842  Biso   1.000  C
  C700     1.0000 0.21118  0.97574  0.22427  Biso   1.000  C
  C701     1.0000 0.82578  0.67886  0.53223  Biso   1.000  C
  C702     1.0000 0.51665  0.27357  0.83569  Biso   1.000  C
  C703     1.0000 0.83086  0.48730  0.32244  Biso   1.000  C
  C704     1.0000 0.21004  0.17389  0.04009  Biso   1.000  C
  C705     1.0000 0.51498  0.77573  0.71982  Biso   1.000  C
  C706     1.0000 0.33385  0.47898  0.23784  Biso   1.000  C
  C707     1.0000 0.70726  0.17446  0.53477  Biso   1.000  C
  C708     1.0000 0.01569  0.78294  0.83359  Biso   1.000  C
  C709     1.0000 0.31370  0.96345  0.72175  Biso   1.000  C
  C710     1.0000 0.70758  0.27554  0.03371  Biso   1.000  C
  C711     1.0000 0.01797  0.67565  0.33024  Biso   1.000  C
  C712     1.0000 0.81868  0.96185  0.82718  Biso   1.000  C
  C713     1.0000 0.20753  0.27954  0.52977  Biso   1.000  C
  C714     1.0000 0.52395  0.66977  0.22193  Biso   1.000  C
  C715     1.0000 0.19537  0.46369  0.73768  Biso   1.000  C
  C716     1.0000 0.82312  0.77970  0.01055  Biso   1.000  C
  C717     1.0000 0.51833  0.16757  0.32794  Biso   1.000  C
  C718     1.0000 0.69463  0.46529  0.82027  Biso   1.000  C
  C719     1.0000 0.32361  0.77580  0.53331  Biso   1.000  C
  C720     1.0000 0.01125  0.17678  0.22359  Biso   1.000  C
  C721     1.0000 0.50713  0.78438  0.30125  Biso   1.000  C
  C722     1.0000 0.30317  0.48195  0.81906  Biso   1.000  C
  C723     1.0000 0.78775  0.28852  0.54593  Biso   1.000  C
  C724     1.0000 0.03527  0.75543  0.21980  Biso   1.000  C
  C725     1.0000 0.77544  0.49206  0.70787  Biso   1.000  C
  C726     1.0000 0.28796  0.28858  0.02670  Biso   1.000  C
  C727     1.0000 0.98497  0.26222  0.33606  Biso   1.000  C
  C728     1.0000 0.23270  0.97267  0.83631  Biso   1.000  C
  C729     1.0000 0.74311  0.79042  0.53702  Biso   1.000  C
  C730     1.0000 0.51597  0.28509  0.25753  Biso   1.000  C
  C731     1.0000 0.73161  0.94812  0.71993  Biso   1.000  C
  C732     1.0000 0.23365  0.78084  0.00232  Biso   1.000  C
  C733     1.0000 0.50850  0.16189  0.75176  Biso   1.000  C
  C734     1.0000 0.72076  0.47049  0.24298  Biso   1.000  C
  C735     1.0000 0.21474  0.68923  0.51641  Biso   1.000  C
  C736     1.0000 0.02352  0.19787  0.83652  Biso   1.000  C
  C737     1.0000 0.25096  0.45799  0.35141  Biso   1.000  C
  C738     1.0000 0.73892  0.66477  0.02485  Biso   1.000  C
  C739     1.0000 0.02667  0.66569  0.75186  Biso   1.000  C
  C740     1.0000 0.79692  0.94394  0.22164  Biso   1.000  C
  C741     1.0000 0.28500  0.16416  0.51152  Biso   1.000  C
  C742     1.0000 0.48718  0.66510  0.80371  Biso   1.000  C
  C743     1.0000 0.29284  0.95430  0.33363  Biso   1.000  C
  C744     1.0000 0.82345  0.20091  0.04082  Biso   1.000  C
  C745     1.0000 0.02656  0.70574  0.33473  Biso   1.000  C
  C746     1.0000 0.28525  0.97391  0.71796  Biso   1.000  C
  C747     1.0000 0.73757  0.28178  0.04407  Biso   1.000  C
  C748     1.0000 0.53451  0.69981  0.21776  Biso   1.000  C
  C749     1.0000 0.78793  0.94927  0.83231  Biso   1.000  C
  C750     1.0000 0.23286  0.28012  0.54581  Biso   1.000  C
  C751     1.0000 0.54208  0.16542  0.30505  Biso   1.000  C
  C752     1.0000 0.22115  0.44679  0.73478  Biso   1.000  C
  C753     1.0000 0.79934  0.78151  0.99079  Biso   1.000  C
  C754     1.0000 0.02307  0.20477  0.21989  Biso   1.000  C
  C755     1.0000 0.68945  0.45186  0.79258  Biso   1.000  C
  C756     1.0000 0.32887  0.74835  0.54731  Biso   1.000  C
  C757     1.0000 0.98926  0.25760  0.72281  Biso   1.000  C
  C758     1.0000 0.71418  0.97791  0.30683  Biso   1.000  C
  C759     1.0000 0.28917  0.67090  0.05319  Biso   1.000  C
  C760     1.0000 0.52713  0.28111  0.80673  Biso   1.000  C
  C761     1.0000 0.23693  0.95921  0.21922  Biso   1.000  C
  C762     1.0000 0.83113  0.70772  0.52141  Biso   1.000  C
  C763     1.0000 0.50188  0.74701  0.71508  Biso   1.000  C
  C764     1.0000 0.80525  0.50423  0.32346  Biso   1.000  C
  C765     1.0000 0.23202  0.17397  0.06176  Biso   1.000  C
  C766     1.0000 0.99268  0.78097  0.81127  Biso   1.000  C
  C767     1.0000 0.33804  0.49265  0.26678  Biso   1.000  C
  C768     1.0000 0.70781  0.20061  0.51851  Biso   1.000  C
  C769     1.0000 0.52611  0.69003  0.83143  Biso   1.000  C
  C770     1.0000 0.80694  0.46243  0.74090  Biso   1.000  C
  C771     1.0000 0.71511  0.75430  0.51143  Biso   1.000  C
  C772     1.0000 0.00367  0.70279  0.71990  Biso   1.000  C
  C773     1.0000 0.27790  0.44517  0.84879  Biso   1.000  C
  C774     1.0000 0.20366  0.75477  0.03312  Biso   1.000  C
  C775     1.0000 0.98533  0.16912  0.80868  Biso   1.000  C
  C776     1.0000 0.70391  0.98059  0.75532  Biso   1.000  C
  C777     1.0000 0.82384  0.25531  0.52024  Biso   1.000  C
  C778     1.0000 0.54034  0.19182  0.71999  Biso   1.000  C
  C779     1.0000 0.20050  0.94300  0.80486  Biso   1.000  C
  C780     1.0000 0.32330  0.25541  0.05123  Biso   1.000  C
  C781     1.0000 0.54397  0.25526  0.22070  Biso   1.000  C
  C782     1.0000 0.21943  0.48595  0.31864  Biso   1.000  C
  C783     1.0000 0.31688  0.19279  0.54338  Biso   1.000  C
  C784     1.0000 0.02937  0.28493  0.31132  Biso   1.000  C
  C785     1.0000 0.75194  0.49924  0.20861  Biso   1.000  C
  C786     1.0000 0.79770  0.17087  0.00451  Biso   1.000  C
  C787     1.0000 0.99838  0.78825  0.24750  Biso   1.000  C
  C788     1.0000 0.32214  0.99032  0.30491  Biso   1.000  C
  C789     1.0000 0.23660  0.66779  0.55883  Biso   1.000  C
  C790     1.0000 0.53611  0.75277  0.33193  Biso   1.000  C
  C791     1.0000 0.82554  0.98072  0.25092  Biso   1.000  C
  C792     1.0000 0.70824  0.69647  0.99334  Biso   1.000  C
  C793     1.0000 0.50064  0.19323  0.32863  Biso   1.000  C
  C794     1.0000 0.30633  0.46206  0.23397  Biso   1.000  C
  C795     1.0000 0.20568  0.25621  0.50923  Biso   1.000  C
  C796     1.0000 0.99665  0.17206  0.25249  Biso   1.000  C
  C797     1.0000 0.83470  0.46611  0.29907  Biso   1.000  C
  C798     1.0000 0.70330  0.24727  0.01976  Biso   1.000  C
  C799     1.0000 0.00425  0.66896  0.30302  Biso   1.000  C
  C800     1.0000 0.20724  0.99281  0.25050  Biso   1.000  C
  C801     1.0000 0.29679  0.77910  0.51652  Biso   1.000  C
  C802     1.0000 0.50821  0.66347  0.24907  Biso   1.000  C
  C803     1.0000 0.74128  0.94356  0.33867  Biso   1.000  C
  C804     1.0000 0.82362  0.75389  0.02741  Biso   1.000  C
  C805     1.0000 0.52709  0.78030  0.74884  Biso   1.000  C
  C806     1.0000 0.72219  0.47946  0.82348  Biso   1.000  C
  C807     1.0000 0.79687  0.67394  0.54676  Biso   1.000  C
  C808     1.0000 0.03742  0.75957  0.83265  Biso   1.000  C
  C809     1.0000 0.19188  0.47660  0.76580  Biso   1.000  C
  C810     1.0000 0.32250  0.70131  0.02392  Biso   1.000  C
  C811     1.0000 0.01814  0.28775  0.75686  Biso   1.000  C
  C812     1.0000 0.82346  0.97431  0.79793  Biso   1.000  C
  C813     1.0000 0.73298  0.16895  0.55454  Biso   1.000  C
  C814     1.0000 0.50714  0.24331  0.84041  Biso   1.000  C
  C815     1.0000 0.31768  0.94477  0.74796  Biso   1.000  C
  C816     1.0000 0.21016  0.19558  0.01746  Biso   1.000  C
  C817     1.0000 0.02190  0.21970  0.81661  Biso   1.000  C
  C818     1.0000 0.77957  0.94226  0.24630  Biso   1.000  C
  C819     1.0000 0.25414  0.75911  0.00487  Biso   1.000  C
  C820     1.0000 0.50706  0.18327  0.77313  Biso   1.000  C
  C821     1.0000 0.27148  0.95451  0.31339  Biso   1.000  C
  C822     1.0000 0.76372  0.76919  0.54247  Biso   1.000  C
  C823     1.0000 0.48835  0.68679  0.78324  Biso   1.000  C
  C824     1.0000 0.74151  0.47257  0.26431  Biso   1.000  C
  C825     1.0000 0.26694  0.26665  0.02743  Biso   1.000  C
  C826     1.0000 0.02375  0.68530  0.77422  Biso   1.000  C
  C827     1.0000 0.27460  0.46156  0.33043  Biso   1.000  C
  C828     1.0000 0.76965  0.26438  0.54922  Biso   1.000  C
  C829     1.0000 0.03096  0.73482  0.24138  Biso   1.000  C
  C830     1.0000 0.25484  0.96896  0.81527  Biso   1.000  C
  C831     1.0000 0.79923  0.21887  0.04269  Biso   1.000  C
  C832     1.0000 0.50280  0.76062  0.28304  Biso   1.000  C
  C833     1.0000 0.75373  0.94993  0.73921  Biso   1.000  C
  C834     1.0000 0.26352  0.18432  0.51334  Biso   1.000  C
  C835     1.0000 0.51720  0.26259  0.27608  Biso   1.000  C
  C836     1.0000 0.28179  0.47955  0.79835  Biso   1.000  C
  C837     1.0000 0.76059  0.68628  0.02078  Biso   1.000  C
  C838     1.0000 0.98530  0.24173  0.31403  Biso   1.000  C
  C839     1.0000 0.75270  0.48988  0.72994  Biso   1.000  C
  C840     1.0000 0.23709  0.70949  0.51396  Biso   1.000  C
  C841     1.0000 0.22303  0.94216  0.78384  Biso   1.000  C
  C842     1.0000 0.77587  0.19091  0.00481  Biso   1.000  C
  C843     1.0000 0.99571  0.76740  0.26840  Biso   1.000  C
  C844     1.0000 0.72709  0.98025  0.77433  Biso   1.000  C
  C845     1.0000 0.29609  0.21457  0.54278  Biso   1.000  C
  C846     1.0000 0.53357  0.73132  0.31117  Biso   1.000  C
  C847     1.0000 0.25855  0.44253  0.82792  Biso   1.000  C
  C848     1.0000 0.73010  0.71827  0.99220  Biso   1.000  C
  C849     1.0000 0.54295  0.23355  0.24029  Biso   1.000  C
  C850     1.0000 0.78470  0.45738  0.75970  Biso   1.000  C
  C851     1.0000 0.25901  0.68878  0.55610  Biso   1.000  C
  C852     1.0000 0.03083  0.26197  0.29151  Biso   1.000  C
  C853     1.0000 0.80504  0.97965  0.27327  Biso   1.000  C
  C854     1.0000 0.22270  0.73091  0.03477  Biso   1.000  C
  C855     1.0000 0.98610  0.19184  0.78829  Biso   1.000  C
  C856     1.0000 0.29942  0.99055  0.28623  Biso   1.000  C
  C857     1.0000 0.73777  0.73511  0.51312  Biso   1.000  C
  C858     1.0000 0.53795  0.21356  0.74086  Biso   1.000  C
  C859     1.0000 0.77298  0.49939  0.22930  Biso   1.000  C
  C860     1.0000 0.30199  0.23440  0.05084  Biso   1.000  C
  C861     1.0000 0.52755  0.71008  0.80871  Biso   1.000  C
  C862     1.0000 0.24287  0.48762  0.29939  Biso   1.000  C
  C863     1.0000 0.80330  0.23368  0.52317  Biso   1.000  C
  C864     1.0000 0.00222  0.72111  0.74329  Biso   1.000  C
  C865     1.0000 0.71023  0.45479  0.77006  Biso   1.000  C
  C866     1.0000 0.80934  0.72736  0.52166  Biso   1.000  C
  C867     1.0000 0.50007  0.72428  0.73530  Biso   1.000  C
  C868     1.0000 0.24141  0.44437  0.75546  Biso   1.000  C
  C869     1.0000 0.26795  0.69094  0.04887  Biso   1.000  C
  C870     1.0000 0.99324  0.75857  0.79182  Biso   1.000  C
  C871     1.0000 0.76690  0.95031  0.81142  Biso   1.000  C
  C872     1.0000 0.73103  0.22033  0.51983  Biso   1.000  C
  C873     1.0000 0.98972  0.23530  0.74252  Biso   1.000  C
  C874     1.0000 0.26526  0.97331  0.74036  Biso   1.000  C
  C875     1.0000 0.25365  0.19547  0.05958  Biso   1.000  C
  C876     1.0000 0.53063  0.25915  0.78648  Biso   1.000  C
  C877     1.0000 0.31518  0.48865  0.28763  Biso   1.000  C
  C878     1.0000 0.25285  0.25769  0.54725  Biso   1.000  C
  C879     1.0000 0.54517  0.18809  0.28498  Biso   1.000  C
  C880     1.0000 0.78780  0.50321  0.30010  Biso   1.000  C
  C881     1.0000 0.75911  0.26193  0.03952  Biso   1.000  C
  C882     1.0000 0.02350  0.22470  0.24175  Biso   1.000  C
  C883     1.0000 0.25977  0.96001  0.23961  Biso   1.000  C
  C884     1.0000 0.30717  0.72641  0.54546  Biso   1.000  C
  C885     1.0000 0.02133  0.72592  0.31300  Biso   1.000  C
  C886     1.0000 0.73728  0.97852  0.28702  Biso   1.000  C
  C887     1.0000 0.77967  0.75888  0.98966  Biso   1.000  C
  C888     1.0000 0.53031  0.72061  0.24019  Biso   1.000  C
  C889     1.0000 0.76242  0.94336  0.31558  Biso   1.000  C
  C890     1.0000 0.30117  0.72071  0.01781  Biso   1.000  C
  C891     1.0000 0.01402  0.26555  0.77767  Biso   1.000  C
  C892     1.0000 0.22954  0.99124  0.27072  Biso   1.000  C
  C893     1.0000 0.77673  0.69457  0.54554  Biso   1.000  C
  C894     1.0000 0.51028  0.22282  0.81895  Biso   1.000  C
  C895     1.0000 0.81686  0.46664  0.27508  Biso   1.000  C
  C896     1.0000 0.23119  0.21672  0.01876  Biso   1.000  C
  C897     1.0000 0.52407  0.75857  0.76940  Biso   1.000  C
  C898     1.0000 0.28650  0.46025  0.25644  Biso   1.000  C
  C899     1.0000 0.75482  0.19012  0.55517  Biso   1.000  C
  C900     1.0000 0.03544  0.73630  0.81427  Biso   1.000  C
  C901     1.0000 0.29681  0.94384  0.76965  Biso   1.000  C
  C902     1.0000 0.72479  0.22741  0.01774  Biso   1.000  C
  C903     1.0000 0.00136  0.68999  0.28079  Biso   1.000  C
  C904     1.0000 0.80132  0.97365  0.77799  Biso   1.000  C
  C905     1.0000 0.22640  0.23336  0.50758  Biso   1.000  C
  C906     1.0000 0.50811  0.68457  0.27106  Biso   1.000  C
  C907     1.0000 0.21359  0.47371  0.78745  Biso   1.000  C
  C908     1.0000 0.80232  0.73346  0.02535  Biso   1.000  C
  C909     1.0000 0.50200  0.21309  0.30643  Biso   1.000  C
  C910     1.0000 0.74414  0.47836  0.80172  Biso   1.000  C
  C911     1.0000 0.27647  0.75613  0.51686  Biso   1.000  C
  C912     1.0000 0.99500  0.19366  0.27420  Biso   1.000  C
  C913     1.0000 0.75880  0.47244  0.75343  Biso   1.000  C
  C914     1.0000 0.76011  0.74249  0.53119  Biso   1.000  C
  C915     1.0000 0.50907  0.70962  0.78559  Biso   1.000  C
  C916     1.0000 0.26100  0.45843  0.80150  Biso   1.000  C
  C917     1.0000 0.24879  0.73413  0.02155  Biso   1.000  C
  C918     1.0000 0.01224  0.71316  0.77045  Biso   1.000  C
  C919     1.0000 0.75145  0.96520  0.76476  Biso   1.000  C
  C920     1.0000 0.77675  0.23778  0.53693  Biso   1.000  C
  C921     1.0000 0.00329  0.21635  0.79304  Biso   1.000  C
  C922     1.0000 0.24870  0.95630  0.78971  Biso   1.000  C
  C923     1.0000 0.27392  0.24036  0.04045  Biso   1.000  C
  C924     1.0000 0.52332  0.20920  0.76756  Biso   1.000  C
  C925     1.0000 0.26888  0.47503  0.30416  Biso   1.000  C
  C926     1.0000 0.27114  0.21049  0.52684  Biso   1.000  C
  C927     1.0000 0.52829  0.23648  0.26655  Biso   1.000  C
  C928     1.0000 0.76746  0.48538  0.25551  Biso   1.000  C
  C929     1.0000 0.77609  0.21283  0.02499  Biso   1.000  C
  C930     1.0000 0.00752  0.24147  0.29200  Biso   1.000  C
  C931     1.0000 0.27487  0.97402  0.28943  Biso   1.000  C
  C932     1.0000 0.26001  0.70829  0.53390  Biso   1.000  C
  C933     1.0000 0.01100  0.74085  0.26440  Biso   1.000  C
  C934     1.0000 0.78170  0.96065  0.27075  Biso   1.000  C
  C935     1.0000 0.75551  0.71287  0.00593  Biso   1.000  C
  C936     1.0000 0.51616  0.73545  0.28720  Biso   1.000  C
  C937     1.0000 0.75232  0.23491  0.02662  Biso   1.000  C
  C938     1.0000 0.00949  0.71789  0.28716  Biso   1.000  C
  C939     1.0000 0.27077  0.95729  0.76488  Biso   1.000  C
  C940     1.0000 0.25013  0.23462  0.52649  Biso   1.000  C
  C941     1.0000 0.51558  0.71298  0.26505  Biso   1.000  C
  C942     1.0000 0.77394  0.96323  0.78527  Biso   1.000  C
  C943     1.0000 0.77915  0.73569  0.00787  Biso   1.000  C
  C944     1.0000 0.52390  0.21095  0.28458  Biso   1.000  C
  C945     1.0000 0.23730  0.45758  0.78099  Biso   1.000  C
  C946     1.0000 0.28103  0.73068  0.53235  Biso   1.000  C
  C947     1.0000 0.01044  0.21953  0.26941  Biso   1.000  C
  C948     1.0000 0.73564  0.46966  0.77517  Biso   1.000  C
  C949     1.0000 0.27332  0.71548  0.03013  Biso   1.000  C
  C950     1.0000 0.00199  0.23903  0.77021  Biso   1.000  C
  C951     1.0000 0.76031  0.96199  0.29293  Biso   1.000  C
  C952     1.0000 0.78260  0.72168  0.53342  Biso   1.000  C
  C953     1.0000 0.52192  0.22999  0.79197  Biso   1.000  C
  C954     1.0000 0.25477  0.97668  0.26485  Biso   1.000  C
  C955     1.0000 0.25176  0.21817  0.04092  Biso   1.000  C
  C956     1.0000 0.51174  0.73107  0.76256  Biso   1.000  C
  C957     1.0000 0.79164  0.48417  0.27606  Biso   1.000  C
  C958     1.0000 0.75508  0.21443  0.53598  Biso   1.000  C
  C959     1.0000 0.01326  0.73548  0.79328  Biso   1.000  C
  C960     1.0000 0.29015  0.47392  0.28205  Biso   1.000  C
  Cu1      1.0000 0.00251  0.47590  0.67988  Biso   1.000  Cu
  Cu2      1.0000 0.66772  0.97951  0.53116  Biso   1.000  Cu
  Cu3      1.0000 0.51171  0.62844  0.02619  Biso   1.000  Cu
  Cu4      1.0000 0.49791  0.47098  0.87357  Biso   1.000  Cu
  Cu5      1.0000 0.16808  0.97860  0.02843  Biso   1.000  Cu
  Cu6      1.0000 0.02066  0.63315  0.52912  Biso   1.000  Cu
  Cu7      1.0000 0.51041  0.97139  0.68174  Biso   1.000  Cu
  Cu8      1.0000 0.85562  0.48131  0.51992  Biso   1.000  Cu
  Cu9      1.0000 0.01661  0.13206  0.02778  Biso   1.000  Cu
  Cu10     1.0000 0.00793  0.97788  0.87118  Biso   1.000  Cu
  Cu11     1.0000 0.36278  0.47638  0.03549  Biso   1.000  Cu
  Cu12     1.0000 0.51388  0.12670  0.52831  Biso   1.000  Cu
  Cu13     1.0000 0.02058  0.48237  0.37830  Biso   1.000  Cu
  Cu14     1.0000 0.35932  0.97458  0.52741  Biso   1.000  Cu
  Cu15     1.0000 0.51196  0.32270  0.02771  Biso   1.000  Cu
  Cu16     1.0000 0.52672  0.47751  0.18528  Biso   1.000  Cu
  Cu17     1.0000 0.85974  0.98000  0.02869  Biso   1.000  Cu
  Cu18     1.0000 0.01200  0.32452  0.53402  Biso   1.000  Cu
  Cu19     1.0000 0.51518  0.97521  0.37187  Biso   1.000  Cu
  Cu20     1.0000 0.16640  0.47455  0.54022  Biso   1.000  Cu
  Cu21     1.0000 0.01568  0.82105  0.02720  Biso   1.000  Cu
  Cu22     1.0000 0.01638  0.97909  0.18059  Biso   1.000  Cu
  Cu23     1.0000 0.66379  0.47101  0.02251  Biso   1.000  Cu
  Cu24     1.0000 0.52111  0.82135  0.52740  Biso   1.000  Cu
  Cu25     1.0000 0.22266  0.98002  0.02406  Biso   1.000  Cu
  Cu26     1.0000 0.01554  0.18549  0.02566  Biso   1.000  Cu
  Cu27     1.0000 0.01335  0.97668  0.23548  Biso   1.000  Cu
  Cu28     1.0000 0.72160  0.98049  0.52922  Biso   1.000  Cu
  Cu29     1.0000 0.51354  0.18145  0.52720  Biso   1.000  Cu
  Cu30     1.0000 0.51968  0.97397  0.31689  Biso   1.000  Cu
  Cu31     1.0000 0.30839  0.47831  0.04089  Biso   1.000  Cu
  Cu32     1.0000 0.51422  0.68330  0.02563  Biso   1.000  Cu
  Cu33     1.0000 0.53199  0.47702  0.24096  Biso   1.000  Cu
  Cu34     1.0000 0.80327  0.48493  0.51445  Biso   1.000  Cu
  Cu35     1.0000 0.02208  0.68594  0.52773  Biso   1.000  Cu
  Cu36     1.0000 0.02795  0.47949  0.32491  Biso   1.000  Cu
  Cu37     1.0000 0.80454  0.97611  0.02563  Biso   1.000  Cu
  Cu38     1.0000 0.01538  0.76671  0.02631  Biso   1.000  Cu
  Cu39     1.0000 0.01521  0.97637  0.81746  Biso   1.000  Cu
  Cu40     1.0000 0.30724  0.97365  0.52423  Biso   1.000  Cu
  Cu41     1.0000 0.51682  0.76827  0.52319  Biso   1.000  Cu
  Cu42     1.0000 0.50735  0.96992  0.73629  Biso   1.000  Cu
  Cu43     1.0000 0.71741  0.47663  0.01507  Biso   1.000  Cu
  Cu44     1.0000 0.50979  0.26727  0.03214  Biso   1.000  Cu
  Cu45     1.0000 0.49617  0.46959  0.81912  Biso   1.000  Cu
  Cu46     1.0000 0.21945  0.47193  0.54281  Biso   1.000  Cu
  Cu47     1.0000 0.01131  0.27150  0.53090  Biso   1.000  Cu
  Cu48     1.0000 0.99725  0.47803  0.73353  Biso   1.000  Cu
  H1       1.0000 0.31149  0.70578  0.55563  Biso   1.000  H
  H2       1.0000 0.53897  0.26594  0.76579  Biso   1.000  H
  H3       1.0000 0.77185  0.51999  0.29741  Biso   1.000  H
  H4       1.0000 0.76477  0.76052  0.97242  Biso   1.000  H
  H5       1.0000 0.98087  0.21478  0.73337  Biso   1.000  H
  H6       1.0000 0.31348  0.50019  0.30814  Biso   1.000  H
  H7       1.0000 0.27181  0.25966  0.56158  Biso   1.000  H
  H8       1.0000 0.97524  0.75614  0.77678  Biso   1.000  H
  H9       1.0000 0.73493  0.99445  0.26905  Biso   1.000  H
  H10      1.0000 0.78283  0.26964  0.04050  Biso   1.000  H
  H11      1.0000 0.48714  0.70439  0.73096  Biso   1.000  H
  H12      1.0000 0.27854  0.94652  0.23568  Biso   1.000  H
  H13      1.0000 0.73217  0.23881  0.50570  Biso   1.000  H
  H14      1.0000 0.54155  0.74106  0.23664  Biso   1.000  H
  H15      1.0000 0.26159  0.43284  0.75080  Biso   1.000  H
  H16      1.0000 0.27097  0.19448  0.07527  Biso   1.000  H
  H17      1.0000 0.02820  0.74926  0.31672  Biso   1.000  H
  H18      1.0000 0.70587  0.44705  0.74873  Biso   1.000  H
  H19      1.0000 0.81455  0.74966  0.51471  Biso   1.000  H
  H20      1.0000 0.03439  0.24492  0.23751  Biso   1.000  H
  H21      1.0000 0.24614  0.98600  0.73751  Biso   1.000  H
  H22      1.0000 0.24799  0.68750  0.06143  Biso   1.000  H
  H23      1.0000 0.56201  0.18501  0.26798  Biso   1.000  H
  H24      1.0000 0.74618  0.94130  0.81221  Biso   1.000  H
  H25      1.0000 0.27524  0.97913  0.81946  Biso   1.000  H
  H26      1.0000 0.79542  0.23384  0.06067  Biso   1.000  H
  H27      1.0000 0.04169  0.71420  0.23746  Biso   1.000  H
  H28      1.0000 0.77520  0.94073  0.73096  Biso   1.000  H
  H29      1.0000 0.24381  0.18210  0.50280  Biso   1.000  H
  H30      1.0000 0.48869  0.76374  0.26595  Biso   1.000  H
  H31      1.0000 0.28476  0.49147  0.77837  Biso   1.000  H
  H32      1.0000 0.78019  0.68133  0.03120  Biso   1.000  H
  H33      1.0000 0.51099  0.26658  0.29817  Biso   1.000  H
  H34      1.0000 0.73089  0.49929  0.72848  Biso   1.000  H
  H35      1.0000 0.23550  0.72317  0.49380  Biso   1.000  H
  H36      1.0000 0.96935  0.22540  0.31510  Biso   1.000  H
  H37      1.0000 0.76264  0.92635  0.24545  Biso   1.000  H
  H38      1.0000 0.27309  0.76403  0.98924  Biso   1.000  H
  H39      1.0000 0.03846  0.23855  0.81917  Biso   1.000  H
  H40      1.0000 0.25277  0.93906  0.31533  Biso   1.000  H
  H41      1.0000 0.78378  0.77517  0.55498  Biso   1.000  H
  H42      1.0000 0.49603  0.17700  0.79295  Biso   1.000  H
  H43      1.0000 0.73917  0.46361  0.28513  Biso   1.000  H
  H44      1.0000 0.24501  0.27116  0.02214  Biso   1.000  H
  H45      1.0000 0.47400  0.68449  0.76465  Biso   1.000  H
  H46      1.0000 0.29590  0.45205  0.33727  Biso   1.000  H
  H47      1.0000 0.74831  0.26811  0.56034  Biso   1.000  H
  H48      1.0000 0.03262  0.67785  0.79478  Biso   1.000  H
  H49      1.0000 0.23991  0.50167  0.28036  Biso   1.000  H
  H50      1.0000 0.29775  0.23401  0.55588  Biso   1.000  H
  H51      1.0000 0.55059  0.21252  0.23508  Biso   1.000  H
  H52      1.0000 0.79271  0.51024  0.22467  Biso   1.000  H
  H53      1.0000 0.75900  0.18897  0.98935  Biso   1.000  H
  H54      1.0000 0.04837  0.26254  0.27449  Biso   1.000  H
  H55      1.0000 0.30199  0.00556  0.26658  Biso   1.000  H
  H56      1.0000 0.27564  0.68944  0.57229  Biso   1.000  H
  H57      1.0000 0.98149  0.77305  0.28758  Biso   1.000  H
  H58      1.0000 0.80684  0.99192  0.29261  Biso   1.000  H
  H59      1.0000 0.72681  0.73642  0.97832  Biso   1.000  H
  H60      1.0000 0.54427  0.71086  0.31209  Biso   1.000  H
  H61      1.0000 0.78704  0.44528  0.77957  Biso   1.000  H
  H62      1.0000 0.73098  0.71296  0.50276  Biso   1.000  H
  H63      1.0000 0.54818  0.72421  0.80733  Biso   1.000  H
  H64      1.0000 0.23847  0.42930  0.83187  Biso   1.000  H
  H65      1.0000 0.21640  0.71297  0.04692  Biso   1.000  H
  H66      1.0000 0.99473  0.74252  0.73895  Biso   1.000  H
  H67      1.0000 0.72448  0.99408  0.79347  Biso   1.000  H
  H68      1.0000 0.80978  0.21260  0.51445  Biso   1.000  H
  H69      1.0000 0.97232  0.19110  0.77013  Biso   1.000  H
  H70      1.0000 0.22150  0.93189  0.76377  Biso   1.000  H
  H71      1.0000 0.30444  0.21288  0.05966  Biso   1.000  H
  H72      1.0000 0.54807  0.23341  0.73360  Biso   1.000  H
  H73      1.0000 0.76406  0.48677  0.80509  Biso   1.000  H
  H74      1.0000 0.75590  0.68929  0.55714  Biso   1.000  H
  H75      1.0000 0.53266  0.76206  0.79223  Biso   1.000  H
  H76      1.0000 0.21225  0.48730  0.80664  Biso   1.000  H
  H77      1.0000 0.30556  0.74161  0.00801  Biso   1.000  H
  H78      1.0000 0.05127  0.71890  0.81618  Biso   1.000  H
  H79      1.0000 0.80724  0.98148  0.75654  Biso   1.000  H
  H80      1.0000 0.77306  0.18809  0.56800  Biso   1.000  H
  H81      1.0000 0.02315  0.26969  0.79922  Biso   1.000  H
  H82      1.0000 0.30021  0.93358  0.79092  Biso   1.000  H
  H83      1.0000 0.23356  0.23280  0.00139  Biso   1.000  H
  H84      1.0000 0.50389  0.19906  0.82668  Biso   1.000  H
  H85      1.0000 0.26969  0.44470  0.25391  Biso   1.000  H
  H86      1.0000 0.22429  0.21452  0.49373  Biso   1.000  H
  H87      1.0000 0.48553  0.23037  0.30724  Biso   1.000  H
  H88      1.0000 0.81942  0.45304  0.25630  Biso   1.000  H
  H89      1.0000 0.72000  0.20672  0.00762  Biso   1.000  H
  H90      1.0000 0.98649  0.18945  0.29552  Biso   1.000  H
  H91      1.0000 0.22692  0.00318  0.29081  Biso   1.000  H
  H92      1.0000 0.25664  0.75884  0.50480  Biso   1.000  H
  H93      1.0000 0.99105  0.68426  0.26187  Biso   1.000  H
  H94      1.0000 0.77929  0.92654  0.31604  Biso   1.000  H
  H95      1.0000 0.80371  0.71590  0.03928  Biso   1.000  H
  H96      1.0000 0.50135  0.67936  0.29363  Biso   1.000  H
  H97      1.0000 0.88055  0.97921  0.92871  Biso   1.000  H
  H98      1.0000 0.92556  0.84171  0.02244  Biso   1.000  H
  H99      1.0000 0.01568  0.88714  0.89724  Biso   1.000  H
  H100     1.0000 0.37887  0.97841  0.61857  Biso   1.000  H
  H101     1.0000 0.42345  0.84296  0.53362  Biso   1.000  H
  H102     1.0000 0.51160  0.88061  0.65904  Biso   1.000  H
  H103     1.0000 0.63415  0.47811  0.92559  Biso   1.000  H
  H104     1.0000 0.60438  0.34088  0.02981  Biso   1.000  H
  H105     1.0000 0.50085  0.38162  0.89257  Biso   1.000  H
  H106     1.0000 0.14269  0.48122  0.63231  Biso   1.000  H
  H107     1.0000 0.10339  0.34370  0.53469  Biso   1.000  H
  H108     1.0000 0.00185  0.38789  0.66341  Biso   1.000  H
  H109     1.0000 0.14801  0.97529  0.12080  Biso   1.000  H
  H110     1.0000 0.10525  0.11466  0.02628  Biso   1.000  H
  H111     1.0000 0.01329  0.07170  0.15958  Biso   1.000  H
  H112     1.0000 0.65051  0.97882  0.43985  Biso   1.000  H
  H113     1.0000 0.60367  0.10965  0.53046  Biso   1.000  H
  H114     1.0000 0.51821  0.06444  0.39163  Biso   1.000  H
  H115     1.0000 0.39090  0.48360  0.12676  Biso   1.000  H
  H116     1.0000 0.42208  0.61089  0.03896  Biso   1.000  H
  H117     1.0000 0.53486  0.56442  0.16031  Biso   1.000  H
  H118     1.0000 0.88482  0.49174  0.42982  Biso   1.000  H
  H119     1.0000 0.92573  0.60904  0.52612  Biso   1.000  H
  H120     1.0000 0.03696  0.57379  0.39531  Biso   1.000  H
  H121     1.0000 0.09890  0.97867  0.89184  Biso   1.000  H
  H122     1.0000 0.87715  0.06694  0.02925  Biso   1.000  H
  H123     1.0000 0.02342  0.84169  0.11633  Biso   1.000  H
  H124     1.0000 0.60054  0.97160  0.66388  Biso   1.000  H
  H125     1.0000 0.38476  0.06485  0.52131  Biso   1.000  H
  H126     1.0000 0.51200  0.84114  0.43412  Biso   1.000  H
  H127     1.0000 0.40957  0.46228  0.89997  Biso   1.000  H
  H128     1.0000 0.64112  0.57119  0.02547  Biso   1.000  H
  H129     1.0000 0.51645  0.34659  0.12585  Biso   1.000  H
  H130     1.0000 0.90937  0.47944  0.65174  Biso   1.000  H
  H131     1.0000 0.14390  0.56713  0.54311  Biso   1.000  H
  H132     1.0000 0.01768  0.34898  0.44160  Biso   1.000  H
  H133     1.0000 0.92337  0.97440  0.15699  Biso   1.000  H
  H134     1.0000 0.14547  0.88431  0.01895  Biso   1.000  H
  H135     1.0000 0.01281  0.10844  0.93602  Biso   1.000  H
  H136     1.0000 0.42562  0.96906  0.39421  Biso   1.000  H
  H137     1.0000 0.64819  0.88092  0.52058  Biso   1.000  H
  H138     1.0000 0.50969  0.10326  0.61936  Biso   1.000  H
  H139     1.0000 0.61615  0.47213  0.15926  Biso   1.000  H
  H140     1.0000 0.37989  0.38742  0.02964  Biso   1.000  H
  H141     1.0000 0.50664  0.60924  0.93617  Biso   1.000  H
  H142     1.0000 0.11259  0.47605  0.40581  Biso   1.000  H
  H143     1.0000 0.87956  0.38985  0.51833  Biso   1.000  H
  H144     1.0000 0.01995  0.61277  0.61907  Biso   1.000  H
  H145     1.0000 0.59292  0.47126  0.88942  Biso   1.000  H
  H146     1.0000 0.88037  0.57336  0.52567  Biso   1.000  H
  H147     1.0000 0.51560  0.83644  0.61390  Biso   1.000  H
  H148     1.0000 0.09772  0.47177  0.66759  Biso   1.000  H
  H149     1.0000 0.38153  0.56919  0.03272  Biso   1.000  H
  H150     1.0000 0.01444  0.84335  0.93873  Biso   1.000  H
  H151     1.0000 0.92347  0.97190  0.88602  Biso   1.000  H
  H152     1.0000 0.64533  0.06870  0.53496  Biso   1.000  H
  H153     1.0000 0.00969  0.34356  0.62176  Biso   1.000  H
  H154     1.0000 0.42063  0.97472  0.66165  Biso   1.000  H
  H155     1.0000 0.14619  0.07085  0.02628  Biso   1.000  H
  H156     1.0000 0.50767  0.33805  0.94139  Biso   1.000  H
  H157     1.0000 0.43476  0.48687  0.16700  Biso   1.000  H
  H158     1.0000 0.14818  0.38371  0.54394  Biso   1.000  H
  H159     1.0000 0.51583  0.10460  0.43309  Biso   1.000  H
  H160     1.0000 0.92968  0.48676  0.39015  Biso   1.000  H
  H161     1.0000 0.64581  0.37942  0.01778  Biso   1.000  H
  H162     1.0000 0.02336  0.11500  0.11665  Biso   1.000  H
  H163     1.0000 0.10963  0.97439  0.16080  Biso   1.000  H
  H164     1.0000 0.38227  0.88223  0.52669  Biso   1.000  H
  H165     1.0000 0.03081  0.61010  0.43240  Biso   1.000  H
  H166     1.0000 0.61043  0.97793  0.39579  Biso   1.000  H
  H167     1.0000 0.88356  0.88394  0.02676  Biso   1.000  H
  H168     1.0000 0.52690  0.60727  0.11772  Biso   1.000  H
  H169     1.0000 0.01507  0.06610  0.89260  Biso   1.000  H
  H170     1.0000 0.88169  0.96339  0.11891  Biso   1.000  H
  H171     1.0000 0.10712  0.84251  0.02402  Biso   1.000  H
  H172     1.0000 0.51634  0.06083  0.65952  Biso   1.000  H
  H173     1.0000 0.38334  0.97752  0.43041  Biso   1.000  H
  H174     1.0000 0.60760  0.83995  0.51521  Biso   1.000  H
  H175     1.0000 0.50415  0.56352  0.89272  Biso   1.000  H
  H176     1.0000 0.65714  0.47560  0.11443  Biso   1.000  H
  H177     1.0000 0.42339  0.34769  0.02791  Biso   1.000  H
  H178     1.0000 0.01866  0.56929  0.65815  Biso   1.000  H
  H179     1.0000 0.15179  0.48001  0.44873  Biso   1.000  H
  H180     1.0000 0.92186  0.34656  0.52460  Biso   1.000  H
  H181     1.0000 0.02820  0.88302  0.15894  Biso   1.000  H
  H182     1.0000 0.14335  0.98089  0.93989  Biso   1.000  H
  H183     1.0000 0.92447  0.11119  0.02560  Biso   1.000  H
  H184     1.0000 0.51050  0.88278  0.39328  Biso   1.000  H
  H185     1.0000 0.64557  0.96996  0.61923  Biso   1.000  H
  H186     1.0000 0.42413  0.11036  0.51927  Biso   1.000  H
  H187     1.0000 0.52153  0.38606  0.16750  Biso   1.000  H
  H188     1.0000 0.37472  0.47220  0.94292  Biso   1.000  H
  H189     1.0000 0.60366  0.61120  0.02085  Biso   1.000  H
  H190     1.0000 0.01657  0.39086  0.40023  Biso   1.000  H
  H191     1.0000 0.86965  0.48903  0.61000  Biso   1.000  H
  H192     1.0000 0.10685  0.61065  0.53512  Biso   1.000  H
  H193     1.0000 0.28548  0.82914  0.53742  Biso   1.000  H
  H194     1.0000 0.52931  0.24354  0.88872  Biso   1.000  H
  H195     1.0000 0.88313  0.48852  0.29285  Biso   1.000  H
  H196     1.0000 0.78871  0.83418  0.00901  Biso   1.000  H
  H197     1.0000 0.02037  0.24835  0.67931  Biso   1.000  H
  H198     1.0000 0.38649  0.46735  0.26500  Biso   1.000  H
  H199     1.0000 0.24286  0.33056  0.52867  Biso   1.000  H
  H200     1.0000 0.02895  0.74689  0.88348  Biso   1.000  H
  H201     1.0000 0.66432  0.96609  0.30009  Biso   1.000  H
  H202     1.0000 0.74148  0.32817  0.02252  Biso   1.000  H
  H203     1.0000 0.52021  0.74251  0.66880  Biso   1.000  H
  H204     1.0000 0.15684  0.97453  0.25747  Biso   1.000  H
  H205     1.0000 0.74185  0.12390  0.53239  Biso   1.000  H
  H206     1.0000 0.51102  0.70384  0.17057  Biso   1.000  H
  H207     1.0000 0.14090  0.46646  0.76738  Biso   1.000  H
  H208     1.0000 0.24210  0.12270  0.04645  Biso   1.000  H
  H209     1.0000 0.01298  0.70841  0.38541  Biso   1.000  H
  H210     1.0000 0.64106  0.46851  0.78952  Biso   1.000  H
  H211     1.0000 0.79008  0.63389  0.51709  Biso   1.000  H
  H212     1.0000 0.00562  0.21064  0.16889  Biso   1.000  H
  H213     1.0000 0.36494  0.96770  0.75634  Biso   1.000  H
  H214     1.0000 0.28238  0.62012  0.03310  Biso   1.000  H
  H215     1.0000 0.51262  0.20163  0.37925  Biso   1.000  H
  H216     1.0000 0.86953  0.95539  0.79237  Biso   1.000  H
  H217     1.0000 0.25199  0.47909  0.39871  Biso   1.000  H
  H218     1.0000 0.36574  0.20390  0.52302  Biso   1.000  H
  H219     1.0000 0.54090  0.33195  0.25885  Biso   1.000  H
  H220     1.0000 0.75289  0.47730  0.16011  Biso   1.000  H
  H221     1.0000 0.87336  0.20837  0.02572  Biso   1.000  H
  H222     1.0000 0.00776  0.33903  0.30260  Biso   1.000  H
  H223     1.0000 0.28750  0.98130  0.37979  Biso   1.000  H
  H224     1.0000 0.16699  0.70454  0.52706  Biso   1.000  H
  H225     1.0000 0.02935  0.83222  0.25426  Biso   1.000  H
  H226     1.0000 0.78576  0.97194  0.17467  Biso   1.000  H
  H227     1.0000 0.65902  0.70672  0.00804  Biso   1.000  H
  H228     1.0000 0.53247  0.83371  0.29667  Biso   1.000  H
  H229     1.0000 0.77310  0.47319  0.66079  Biso   1.000  H
  H230     1.0000 0.66751  0.75010  0.52402  Biso   1.000  H
  H231     1.0000 0.49432  0.61007  0.79510  Biso   1.000  H
  H232     1.0000 0.27304  0.46433  0.90049  Biso   1.000  H
  H233     1.0000 0.16097  0.74951  0.00666  Biso   1.000  H
  H234     1.0000 0.99656  0.62024  0.75355  Biso   1.000  H
  H235     1.0000 0.73951  0.96481  0.67453  Biso   1.000  H
  H236     1.0000 0.86972  0.25023  0.54095  Biso   1.000  H
  H237     1.0000 0.01174  0.12376  0.79876  Biso   1.000  H
  H238     1.0000 0.23455  0.94674  0.88537  Biso   1.000  H
  H239     1.0000 0.36704  0.25005  0.03040  Biso   1.000  H
  H240     1.0000 0.52965  0.11524  0.75648  Biso   1.000  H
  H241     1.0000 0.73085  0.46400  0.87147  Biso   1.000  H
  H242     1.0000 0.87711  0.70756  0.54273  Biso   1.000  H
  H243     1.0000 0.50926  0.82474  0.75311  Biso   1.000  H
  H244     1.0000 0.23495  0.46652  0.68405  Biso   1.000  H
  H245     1.0000 0.36976  0.70766  0.04479  Biso   1.000  H
  H246     1.0000 0.00509  0.83090  0.79990  Biso   1.000  H
  H247     1.0000 0.78561  0.97149  0.87989  Biso   1.000  H
  H248     1.0000 0.65061  0.20828  0.52936  Biso   1.000  H
  H249     1.0000 0.99818  0.33533  0.75922  Biso   1.000  H
  H250     1.0000 0.28191  0.96013  0.66854  Biso   1.000  H
  H251     1.0000 0.16008  0.21201  0.02990  Biso   1.000  H
  H252     1.0000 0.49992  0.32412  0.79984  Biso   1.000  H
  H253     1.0000 0.29577  0.48611  0.18717  Biso   1.000  H
  H254     1.0000 0.15689  0.24696  0.52302  Biso   1.000  H
  H255     1.0000 0.52285  0.11775  0.29517  Biso   1.000  H
  H256     1.0000 0.79241  0.48070  0.37173  Biso   1.000  H
  H257     1.0000 0.65197  0.24190  0.03593  Biso   1.000  H
  H258     1.0000 0.01280  0.12111  0.25682  Biso   1.000  H
  H259     1.0000 0.24268  0.97033  0.16708  Biso   1.000  H
  H260     1.0000 0.37793  0.74510  0.52404  Biso   1.000  H
  H261     1.0000 0.03490  0.62137  0.29617  Biso   1.000  H
  H262     1.0000 0.74833  0.96637  0.38677  Biso   1.000  H
  H263     1.0000 0.87257  0.74495  0.00606  Biso   1.000  H
  H264     1.0000 0.54651  0.62494  0.25454  Biso   1.000  H
  H265     1.0000 0.00802  0.20729  0.88640  Biso   1.000  H
  H266     1.0000 0.87315  0.95556  0.25552  Biso   1.000  H
  H267     1.0000 0.24202  0.83407  0.01577  Biso   1.000  H
  H268     1.0000 0.51765  0.20236  0.67261  Biso   1.000  H
  H269     1.0000 0.37431  0.97127  0.29756  Biso   1.000  H
  H270     1.0000 0.74777  0.83710  0.51706  Biso   1.000  H
  H271     1.0000 0.50715  0.70423  0.88044  Biso   1.000  H
  H272     1.0000 0.67246  0.49015  0.25174  Biso   1.000  H
  H273     1.0000 0.28038  0.33664  0.04489  Biso   1.000  H
  H274     1.0000 0.02098  0.70931  0.66976  Biso   1.000  H
  H275     1.0000 0.17236  0.46506  0.31154  Biso   1.000  H
  H276     1.0000 0.78126  0.33752  0.51849  Biso   1.000  H
  H277     1.0000 0.01419  0.74584  0.16917  Biso   1.000  H
  H278     1.0000 0.15881  0.96922  0.79922  Biso   1.000  H
  H279     1.0000 0.78552  0.12920  0.02925  Biso   1.000  H
  H280     1.0000 0.51701  0.74513  0.38096  Biso   1.000  H
  H281     1.0000 0.65226  0.96185  0.76161  Biso   1.000  H
  H282     1.0000 0.28688  0.11834  0.53920  Biso   1.000  H
  H283     1.0000 0.51948  0.24828  0.17686  Biso   1.000  H
  H284     1.0000 0.35266  0.46703  0.80822  Biso   1.000  H
  H285     1.0000 0.74124  0.61348  0.01120  Biso   1.000  H
  H286     1.0000 0.00144  0.25267  0.38617  Biso   1.000  H
  H287     1.0000 0.85412  0.48296  0.74773  Biso   1.000  H
  H288     1.0000 0.24248  0.61739  0.55474  Biso   1.000  H
  H289     1.0000 0.10696  0.20799  0.01726  Biso   1.000  H
  H290     1.0000 0.01599  0.06898  0.25878  Biso   1.000  H
  H291     1.0000 0.24256  0.97056  0.11545  Biso   1.000  H
  H292     1.0000 0.60075  0.20369  0.52374  Biso   1.000  H
  H293     1.0000 0.51779  0.06190  0.29770  Biso   1.000  H
  H294     1.0000 0.74488  0.97506  0.44148  Biso   1.000  H
  H295     1.0000 0.42575  0.70729  0.03984  Biso   1.000  H
  H296     1.0000 0.55262  0.56648  0.25176  Biso   1.000  H
  H297     1.0000 0.29510  0.48771  0.13654  Biso   1.000  H
  H298     1.0000 0.93345  0.70196  0.54102  Biso   1.000  H
  H299     1.0000 0.03595  0.56911  0.29598  Biso   1.000  H
  H300     1.0000 0.78984  0.48984  0.42433  Biso   1.000  H
  H301     1.0000 0.92625  0.74620  0.01937  Biso   1.000  H
  H302     1.0000 0.99177  0.88549  0.80371  Biso   1.000  H
  H303     1.0000 0.78696  0.97563  0.93526  Biso   1.000  H
  H304     1.0000 0.42996  0.74693  0.52592  Biso   1.000  H
  H305     1.0000 0.50674  0.87919  0.75385  Biso   1.000  H
  H306     1.0000 0.28222  0.97146  0.61807  Biso   1.000  H
  H307     1.0000 0.60043  0.24352  0.03046  Biso   1.000  H
  H308     1.0000 0.48741  0.37442  0.79963  Biso   1.000  H
  H309     1.0000 0.73043  0.46946  0.92788  Biso   1.000  H
  H310     1.0000 0.10053  0.24906  0.52140  Biso   1.000  H
  H311     1.0000 0.99123  0.39123  0.75963  Biso   1.000  H
  H312     1.0000 0.23421  0.46875  0.62984  Biso   1.000  H
  H313     1.0000 0.23451  0.95559  0.93914  Biso   1.000  H
  H314     1.0000 0.92773  0.20508  0.02653  Biso   1.000  H
  H315     1.0000 0.03079  0.88995  0.25322  Biso   1.000  H
  H316     1.0000 0.73918  0.96214  0.61983  Biso   1.000  H
  H317     1.0000 0.42035  0.20562  0.51894  Biso   1.000  H
  H318     1.0000 0.52959  0.88558  0.29884  Biso   1.000  H
  H319     1.0000 0.27961  0.46393  0.95694  Biso   1.000  H
  H320     1.0000 0.60593  0.70790  0.01657  Biso   1.000  H
  H321     1.0000 0.54829  0.38484  0.25847  Biso   1.000  H
  H322     1.0000 0.77406  0.47740  0.60460  Biso   1.000  H
  H323     1.0000 0.11502  0.70852  0.52181  Biso   1.000  H
  H324     1.0000 0.01383  0.39419  0.30634  Biso   1.000  H
  H325     1.0000 0.78276  0.97290  0.12052  Biso   1.000  H
  H326     1.0000 0.10464  0.74864  0.00777  Biso   1.000  H
  H327     1.0000 0.01780  0.06789  0.79637  Biso   1.000  H
  H328     1.0000 0.28660  0.97536  0.43432  Biso   1.000  H
  H329     1.0000 0.60875  0.74708  0.52441  Biso   1.000  H
  H330     1.0000 0.52656  0.05818  0.75630  Biso   1.000  H
  H331     1.0000 0.75145  0.47213  0.10691  Biso   1.000  H
  H332     1.0000 0.42365  0.25270  0.02439  Biso   1.000  H
  H333     1.0000 0.49070  0.55650  0.80135  Biso   1.000  H
  H334     1.0000 0.24671  0.47942  0.45250  Biso   1.000  H
  H335     1.0000 0.92012  0.25417  0.54342  Biso   1.000  H
  H336     1.0000 0.00110  0.56664  0.75305  Biso   1.000  H
  H337     1.0000 0.00846  0.20391  0.94012  Biso   1.000  H
  H338     1.0000 0.92545  0.95769  0.25131  Biso   1.000  H
  H339     1.0000 0.24329  0.88662  0.02573  Biso   1.000  H
  H340     1.0000 0.51247  0.19711  0.61832  Biso   1.000  H
  H341     1.0000 0.42746  0.97149  0.29842  Biso   1.000  H
  H342     1.0000 0.74525  0.89125  0.51807  Biso   1.000  H
  H343     1.0000 0.50640  0.70161  0.93436  Biso   1.000  H
  H344     1.0000 0.61746  0.48272  0.25354  Biso   1.000  H
  H345     1.0000 0.28483  0.39090  0.04752  Biso   1.000  H
  H346     1.0000 0.02193  0.70967  0.62034  Biso   1.000  H
  H347     1.0000 0.11950  0.46929  0.30789  Biso   1.000  H
  H348     1.0000 0.78273  0.39040  0.50889  Biso   1.000  H
  H349     1.0000 0.01490  0.74589  0.11828  Biso   1.000  H
  H350     1.0000 0.10635  0.97941  0.79687  Biso   1.000  H
  H351     1.0000 0.78255  0.07345  0.02886  Biso   1.000  H
  H352     1.0000 0.51699  0.74658  0.43340  Biso   1.000  H
  H353     1.0000 0.59805  0.96820  0.75928  Biso   1.000  H
  H354     1.0000 0.28775  0.06215  0.53307  Biso   1.000  H
  H355     1.0000 0.50819  0.25031  0.12338  Biso   1.000  H
  H356     1.0000 0.40367  0.48297  0.80561  Biso   1.000  H
  H357     1.0000 0.73711  0.56174  0.01849  Biso   1.000  H
  H358     1.0000 0.00594  0.25114  0.43859  Biso   1.000  H
  H359     1.0000 0.90625  0.48561  0.74725  Biso   1.000  H
  H360     1.0000 0.23889  0.56276  0.55508  Biso   1.000  H
  H361     1.0000 0.01535  0.70431  0.43847  Biso   1.000  H
  H362     1.0000 0.41533  0.97447  0.75643  Biso   1.000  H
  H363     1.0000 0.74160  0.38030  0.01075  Biso   1.000  H
  H364     1.0000 0.50744  0.70191  0.11802  Biso   1.000  H
  H365     1.0000 0.92620  0.95975  0.79151  Biso   1.000  H
  H366     1.0000 0.24395  0.38518  0.53312  Biso   1.000  H
  H367     1.0000 0.49912  0.19940  0.43632  Biso   1.000  H
  H368     1.0000 0.08553  0.46750  0.76307  Biso   1.000  H
  H369     1.0000 0.78749  0.88947  0.01995  Biso   1.000  H
  H370     1.0000 0.01573  0.20854  0.11546  Biso   1.000  H
  H371     1.0000 0.58424  0.46511  0.79576  Biso   1.000  H
  H372     1.0000 0.28787  0.88535  0.53697  Biso   1.000  H
  H373     1.0000 0.03025  0.25039  0.62723  Biso   1.000  H
  H374     1.0000 0.61163  0.96966  0.29977  Biso   1.000  H
  H375     1.0000 0.28516  0.56876  0.02934  Biso   1.000  H
  H376     1.0000 0.52498  0.24582  0.94168  Biso   1.000  H
  H377     1.0000 0.10460  0.97318  0.25682  Biso   1.000  H
  H378     1.0000 0.78621  0.57930  0.51535  Biso   1.000  H
  H379     1.0000 0.51777  0.74334  0.61293  Biso   1.000  H
  H380     1.0000 0.93965  0.48278  0.29606  Biso   1.000  H
  H381     1.0000 0.24126  0.06955  0.04233  Biso   1.000  H
  H382     1.0000 0.03026  0.74960  0.93750  Biso   1.000  H
  H383     1.0000 0.43763  0.47036  0.26178  Biso   1.000  H
  H384     1.0000 0.74027  0.06766  0.53306  Biso   1.000  H
  H385     1.0000 0.25423  0.44703  0.37088  Biso   1.000  H
  H386     1.0000 0.27883  0.14487  0.50025  Biso   1.000  H
  H387     1.0000 0.50570  0.30523  0.26580  Biso   1.000  H
  H388     1.0000 0.70271  0.45648  0.24826  Biso   1.000  H
  H389     1.0000 0.84032  0.20484  0.05685  Biso   1.000  H
  H390     1.0000 0.96738  0.26222  0.35120  Biso   1.000  H
  H391     1.0000 0.29252  0.93656  0.35070  Biso   1.000  H
  H392     1.0000 0.19760  0.68913  0.50029  Biso   1.000  H
  H393     1.0000 0.04920  0.75427  0.20072  Biso   1.000  H
  H394     1.0000 0.79124  0.93080  0.20334  Biso   1.000  H
  H395     1.0000 0.74207  0.64526  0.03580  Biso   1.000  H
  H396     1.0000 0.49621  0.80640  0.29831  Biso   1.000  H
  H397     1.0000 0.77263  0.50416  0.68851  Biso   1.000  H
  H398     1.0000 0.74587  0.81128  0.54752  Biso   1.000  H
  H399     1.0000 0.46890  0.65072  0.80395  Biso   1.000  H
  H400     1.0000 0.32046  0.49829  0.81557  Biso   1.000  H
  H401     1.0000 0.23964  0.79828  0.98856  Biso   1.000  H
  H402     1.0000 0.03832  0.64555  0.75484  Biso   1.000  H
  H403     1.0000 0.73478  0.93460  0.70092  Biso   1.000  H
  H404     1.0000 0.78101  0.30965  0.55417  Biso   1.000  H
  H405     1.0000 0.04162  0.19994  0.85161  Biso   1.000  H
  H406     1.0000 0.23766  0.98309  0.85616  Biso   1.000  H
  H407     1.0000 0.28471  0.30874  0.01605  Biso   1.000  H
  H408     1.0000 0.49457  0.14255  0.75762  Biso   1.000  H
  H409     1.0000 0.30146  0.45041  0.21383  Biso   1.000  H
  H410     1.0000 0.18965  0.25294  0.49323  Biso   1.000  H
  H411     1.0000 0.48369  0.19810  0.34545  Biso   1.000  H
  H412     1.0000 0.85332  0.45077  0.29772  Biso   1.000  H
  H413     1.0000 0.68315  0.24174  0.00974  Biso   1.000  H
  H414     1.0000 0.98590  0.15229  0.25683  Biso   1.000  H
  H415     1.0000 0.18838  0.00710  0.25477  Biso   1.000  H
  H416     1.0000 0.29625  0.79718  0.50197  Biso   1.000  H
  H417     1.0000 0.99604  0.64757  0.30252  Biso   1.000  H
  H418     1.0000 0.74231  0.93060  0.35931  Biso   1.000  H
  H419     1.0000 0.83807  0.75077  0.04502  Biso   1.000  H
  H420     1.0000 0.49800  0.64212  0.25319  Biso   1.000  H
  H421     1.0000 0.72534  0.49138  0.84254  Biso   1.000  H
  H422     1.0000 0.79162  0.65452  0.55858  Biso   1.000  H
  H423     1.0000 0.54037  0.79814  0.75517  Biso   1.000  H
  H424     1.0000 0.17269  0.49016  0.77072  Biso   1.000  H
  H425     1.0000 0.34313  0.70528  0.01112  Biso   1.000  H
  H426     1.0000 0.05496  0.75841  0.84849  Biso   1.000  H
  H427     1.0000 0.84497  0.98624  0.79478  Biso   1.000  H
  H428     1.0000 0.73444  0.14896  0.56838  Biso   1.000  H
  H429     1.0000 0.03030  0.30694  0.76101  Biso   1.000  H
  H430     1.0000 0.33782  0.93298  0.75042  Biso   1.000  H
  H431     1.0000 0.19464  0.19505  0.00043  Biso   1.000  H
  H432     1.0000 0.49558  0.23734  0.85951  Biso   1.000  H
  H433     1.0000 0.27694  0.98649  0.69986  Biso   1.000  H
  H434     1.0000 0.74280  0.30235  0.05291  Biso   1.000  H
  H435     1.0000 0.03810  0.71199  0.35448  Biso   1.000  H
  H436     1.0000 0.78201  0.94163  0.85374  Biso   1.000  H
  H437     1.0000 0.23821  0.29967  0.55723  Biso   1.000  H
  H438     1.0000 0.54609  0.70787  0.19981  Biso   1.000  H
  H439     1.0000 0.22605  0.43621  0.71490  Biso   1.000  H
  H440     1.0000 0.79737  0.79936  0.97576  Biso   1.000  H
  H441     1.0000 0.55892  0.14905  0.30373  Biso   1.000  H
  H442     1.0000 0.66962  0.43801  0.78985  Biso   1.000  H
  H443     1.0000 0.34857  0.74655  0.55844  Biso   1.000  H
  H444     1.0000 0.03615  0.20947  0.19950  Biso   1.000  H
  H445     1.0000 0.69479  0.99115  0.30124  Biso   1.000  H
  H446     1.0000 0.28419  0.65109  0.06539  Biso   1.000  H
  H447     1.0000 0.97793  0.25542  0.70264  Biso   1.000  H
  H448     1.0000 0.24158  0.94576  0.20000  Biso   1.000  H
  H449     1.0000 0.85174  0.71271  0.50893  Biso   1.000  H
  H450     1.0000 0.53702  0.30105  0.80187  Biso   1.000  H
  H451     1.0000 0.80302  0.52090  0.34115  Biso   1.000  H
  H452     1.0000 0.23397  0.15801  0.07828  Biso   1.000  H
  H453     1.0000 0.48998  0.74363  0.69599  Biso   1.000  H
  H454     1.0000 0.35716  0.50631  0.26995  Biso   1.000  H
  H455     1.0000 0.69066  0.20678  0.50365  Biso   1.000  H
  H456     1.0000 0.97515  0.79786  0.81028  Biso   1.000  H
  H457     1.0000 0.69699  0.74750  0.49902  Biso   1.000  H
  H458     1.0000 0.54056  0.69058  0.84881  Biso   1.000  H
  H459     1.0000 0.82618  0.45276  0.74663  Biso   1.000  H
  H460     1.0000 0.18409  0.75458  0.04765  Biso   1.000  H
  H461     1.0000 0.99348  0.71006  0.69991  Biso   1.000  H
  H462     1.0000 0.27732  0.42893  0.86672  Biso   1.000  H
  H463     1.0000 0.84505  0.25071  0.50930  Biso   1.000  H
  H464     1.0000 0.97285  0.15071  0.80322  Biso   1.000  H
  H465     1.0000 0.68602  0.99277  0.76347  Biso   1.000  H
  H466     1.0000 0.34327  0.25099  0.06237  Biso   1.000  H
  H467     1.0000 0.55229  0.19493  0.69929  Biso   1.000  H
  H468     1.0000 0.17913  0.93252  0.80013  Biso   1.000  H
  H469     1.0000 0.33388  0.19889  0.55787  Biso   1.000  H
  H470     1.0000 0.55423  0.25024  0.19882  Biso   1.000  H
  H471     1.0000 0.20028  0.49890  0.31380  Biso   1.000  H
  H472     1.0000 0.79839  0.15265  0.99078  Biso   1.000  H
  H473     1.0000 0.04497  0.30242  0.30994  Biso   1.000  H
  H474     1.0000 0.75585  0.51226  0.18935  Biso   1.000  H
  H475     1.0000 0.23896  0.65210  0.57617  Biso   1.000  H
  H476     1.0000 0.98808  0.80841  0.25101  Biso   1.000  H
  H477     1.0000 0.34184  0.00351  0.30097  Biso   1.000  H
  H478     1.0000 0.68985  0.70089  0.97994  Biso   1.000  H
  H479     1.0000 0.54867  0.74979  0.35004  Biso   1.000  H
  H480     1.0000 0.84430  0.99464  0.25196  Biso   1.000  H
  N1       1.0000 0.68811  0.15587  0.53252  Biso   1.000  N
  N2       1.0000 0.52633  0.65138  0.20193  Biso   1.000  N
  N3       1.0000 0.17876  0.46741  0.71641  Biso   1.000  N
  N4       1.0000 0.19004  0.15513  0.03710  Biso   1.000  N
  N5       1.0000 0.02392  0.65714  0.34864  Biso   1.000  N
  N6       1.0000 0.67588  0.46636  0.84071  Biso   1.000  N
  N7       1.0000 0.84378  0.65909  0.52862  Biso   1.000  N
  N8       1.0000 0.01280  0.15646  0.20403  Biso   1.000  N
  N9       1.0000 0.33263  0.96628  0.70239  Biso   1.000  N
  N10      1.0000 0.33750  0.65599  0.04180  Biso   1.000  N
  N11      1.0000 0.51794  0.14899  0.34797  Biso   1.000  N
  N12      1.0000 0.83805  0.96390  0.84618  Biso   1.000  N
  N13      1.0000 0.34141  0.79685  0.53166  Biso   1.000  N
  N14      1.0000 0.51366  0.29395  0.85383  Biso   1.000  N
  N15      1.0000 0.84847  0.48822  0.34213  Biso   1.000  N
  N16      1.0000 0.84115  0.79958  0.01351  Biso   1.000  N
  N17      1.0000 0.00794  0.30317  0.70890  Biso   1.000  N
  N18      1.0000 0.35207  0.48089  0.21724  Biso   1.000  N
  N19      1.0000 0.18896  0.29994  0.53106  Biso   1.000  N
  N20      1.0000 0.01539  0.80246  0.85281  Biso   1.000  N
  N21      1.0000 0.69600  0.96581  0.35348  Biso   1.000  N
  N22      1.0000 0.68796  0.29544  0.03465  Biso   1.000  N
  N23      1.0000 0.51465  0.79470  0.70049  Biso   1.000  N
  N24      1.0000 0.19113  0.97580  0.20549  Biso   1.000  N
  N25      1.0000 0.82303  0.47974  0.69555  Biso   1.000  N
  N26      1.0000 0.69674  0.80159  0.52051  Biso   1.000  N
  N27      1.0000 0.50169  0.64656  0.84920  Biso   1.000  N
  N28      1.0000 0.32241  0.46524  0.86295  Biso   1.000  N
  N29      1.0000 0.18942  0.80182  0.01744  Biso   1.000  N
  N30      1.0000 0.01416  0.65456  0.70232  Biso   1.000  N
  N31      1.0000 0.68507  0.96613  0.70849  Biso   1.000  N
  N32      1.0000 0.83515  0.30434  0.52875  Biso   1.000  N
  N33      1.0000 0.00614  0.15203  0.85251  Biso   1.000  N
  N34      1.0000 0.18493  0.96279  0.85347  Biso   1.000  N
  N35      1.0000 0.33649  0.30308  0.03649  Biso   1.000  N
  N36      1.0000 0.52351  0.14669  0.70294  Biso   1.000  N
  N37      1.0000 0.20193  0.47253  0.36492  Biso   1.000  N
  N38      1.0000 0.33552  0.14897  0.52540  Biso   1.000  N
  N39      1.0000 0.52545  0.30010  0.20799  Biso   1.000  N
  N40      1.0000 0.70391  0.48121  0.19636  Biso   1.000  N
  N41      1.0000 0.84152  0.15603  0.02631  Biso   1.000  N
  N42      1.0000 0.00868  0.30535  0.35493  Biso   1.000  N
  N43      1.0000 0.33920  0.97084  0.34890  Biso   1.000  N
  N44      1.0000 0.19225  0.64908  0.54117  Biso   1.000  N
  N45      1.0000 0.02056  0.80106  0.20219  Biso   1.000  N
  N46      1.0000 0.83913  0.96648  0.20218  Biso   1.000  N
  N47      1.0000 0.69114  0.65098  0.01310  Biso   1.000  N
  N48      1.0000 0.52272  0.79936  0.34829  Biso   1.000  N
  O1       1.0000 0.35978  0.51923  0.03116  Biso   1.000  O
  O2       1.0000 0.01554  0.31904  0.57846  Biso   1.000  O
  O3       1.0000 0.55947  0.97249  0.37255  Biso   1.000  O
  O4       1.0000 0.85352  0.52478  0.52644  Biso   1.000  O
  O5       1.0000 0.51632  0.31802  0.98880  Biso   1.000  O
  O6       1.0000 0.05729  0.98594  0.18488  Biso   1.000  O
  O7       1.0000 0.17128  0.02060  0.02602  Biso   1.000  O
  O8       1.0000 0.52713  0.81468  0.56750  Biso   1.000  O
  O9       1.0000 0.98023  0.48350  0.37340  Biso   1.000  O
  O10      1.0000 0.66937  0.02095  0.53529  Biso   1.000  O
  O11      1.0000 0.01507  0.82098  0.98520  Biso   1.000  O
  O12      1.0000 0.48636  0.48340  0.18742  Biso   1.000  O
  O13      1.0000 0.66808  0.42918  0.01707  Biso   1.000  O
  O14      1.0000 0.02058  0.63530  0.48681  Biso   1.000  O
  O15      1.0000 0.46778  0.97402  0.68358  Biso   1.000  O
  O16      1.0000 0.16997  0.43398  0.54109  Biso   1.000  O
  O17      1.0000 0.51341  0.63202  0.06819  Biso   1.000  O
  O18      1.0000 0.96935  0.97938  0.86317  Biso   1.000  O
  O19      1.0000 0.85993  0.93756  0.02528  Biso   1.000  O
  O20      1.0000 0.51637  0.12876  0.48387  Biso   1.000  O
  O21      1.0000 0.04585  0.46933  0.68575  Biso   1.000  O
  O22      1.0000 0.36017  0.93438  0.52733  Biso   1.000  O
  O23      1.0000 0.01608  0.13594  0.06974  Biso   1.000  O
  O24      1.0000 0.54020  0.46897  0.87145  Biso   1.000  O
  O25      1.0000 0.97327  0.97141  0.17913  Biso   1.000  O
  O26      1.0000 0.17178  0.93766  0.02963  Biso   1.000  O
  O27      1.0000 0.01659  0.13134  0.98576  Biso   1.000  O
  O28      1.0000 0.47344  0.97565  0.37163  Biso   1.000  O
  O29      1.0000 0.67178  0.93874  0.52491  Biso   1.000  O
  O30      1.0000 0.51291  0.12817  0.56861  Biso   1.000  O
  O31      1.0000 0.56907  0.47748  0.18720  Biso   1.000  O
  O32      1.0000 0.35816  0.43412  0.04204  Biso   1.000  O
  O33      1.0000 0.50994  0.63064  0.98426  Biso   1.000  O
  O34      1.0000 0.06382  0.47797  0.37799  Biso   1.000  O
  O35      1.0000 0.85364  0.43964  0.51141  Biso   1.000  O
  O36      1.0000 0.02080  0.63493  0.56909  Biso   1.000  O
  O37      1.0000 0.05201  0.97714  0.86897  Biso   1.000  O
  O38      1.0000 0.85522  0.02199  0.02476  Biso   1.000  O
  O39      1.0000 0.01796  0.81736  0.06840  Biso   1.000  O
  O40      1.0000 0.55154  0.96559  0.68690  Biso   1.000  O
  O41      1.0000 0.35941  0.01691  0.52987  Biso   1.000  O
  O42      1.0000 0.51110  0.81702  0.48450  Biso   1.000  O
  O43      1.0000 0.45646  0.47340  0.87036  Biso   1.000  O
  O44      1.0000 0.66446  0.51534  0.02674  Biso   1.000  O
  O45      1.0000 0.50774  0.31980  0.07257  Biso   1.000  O
  O46      1.0000 0.96205  0.48306  0.67798  Biso   1.000  O
  O47      1.0000 0.16645  0.51686  0.54023  Biso   1.000  O
  O48      1.0000 0.00897  0.32587  0.49013  Biso   1.000  O
  O49      1.0000 0.02268  0.93641  0.18292  Biso   1.000  O
  O50      1.0000 0.16839  0.98027  0.98879  Biso   1.000  O
  O51      1.0000 0.97451  0.13381  0.02503  Biso   1.000  O
  O52      1.0000 0.51487  0.93386  0.37107  Biso   1.000  O
  O53      1.0000 0.67124  0.97646  0.57346  Biso   1.000  O
  O54      1.0000 0.47043  0.13386  0.53058  Biso   1.000  O
  O55      1.0000 0.52577  0.43595  0.18771  Biso   1.000  O
  O56      1.0000 0.35634  0.47184  0.99387  Biso   1.000  O
  O57      1.0000 0.55568  0.63325  0.01970  Biso   1.000  O
  O58      1.0000 0.01590  0.43991  0.37787  Biso   1.000  O
  O59      1.0000 0.85001  0.47475  0.56101  Biso   1.000  O
  O60      1.0000 0.06115  0.63662  0.52839  Biso   1.000  O
  O61      1.0000 0.00984  0.01913  0.87084  Biso   1.000  O
  O62      1.0000 0.85651  0.98064  0.07170  Biso   1.000  O
  O63      1.0000 0.05725  0.81909  0.02532  Biso   1.000  O
  O64      1.0000 0.51505  0.01240  0.68488  Biso   1.000  O
  O65      1.0000 0.35680  0.98050  0.48362  Biso   1.000  O
  O66      1.0000 0.56264  0.81820  0.52251  Biso   1.000  O
  O67      1.0000 0.50126  0.51306  0.87279  Biso   1.000  O
  O68      1.0000 0.67427  0.46744  0.06362  Biso   1.000  O
  O69      1.0000 0.47115  0.32368  0.02395  Biso   1.000  O
  O70      1.0000 0.00903  0.51738  0.68056  Biso   1.000  O
  O71      1.0000 0.17354  0.47646  0.49798  Biso   1.000  O
  O72      1.0000 0.96989  0.32153  0.53405  Biso   1.000  O
  O73      1.0000 0.99347  0.43632  0.68439  Biso   1.000  O
  O74      1.0000 0.66852  0.98098  0.48721  Biso   1.000  O
  O75      1.0000 0.47117  0.63343  0.02588  Biso   1.000  O
  O76      1.0000 0.49650  0.43023  0.86873  Biso   1.000  O
  O77      1.0000 0.16805  0.98128  0.07163  Biso   1.000  O
  O78      1.0000 0.97994  0.63335  0.52999  Biso   1.000  O
  O79      1.0000 0.50898  0.93002  0.68359  Biso   1.000  O
  O80      1.0000 0.85463  0.48925  0.47925  Biso   1.000  O
  O81      1.0000 0.05703  0.13720  0.02845  Biso   1.000  O
  O82      1.0000 0.00748  0.93632  0.87222  Biso   1.000  O
  O83      1.0000 0.36364  0.48552  0.07859  Biso   1.000  O
  O84      1.0000 0.55505  0.12815  0.52623  Biso   1.000  O
  O85      1.0000 0.02430  0.52428  0.37165  Biso   1.000  O
  O86      1.0000 0.35666  0.97374  0.56846  Biso   1.000  O
  O87      1.0000 0.55403  0.31806  0.03634  Biso   1.000  O
  O88      1.0000 0.53349  0.51791  0.18854  Biso   1.000  O
  O89      1.0000 0.85823  0.98241  0.98495  Biso   1.000  O
  O90      1.0000 0.05430  0.31850  0.53155  Biso   1.000  O
  O91      1.0000 0.51221  0.01542  0.36789  Biso   1.000  O
  O92      1.0000 0.16387  0.47547  0.58483  Biso   1.000  O
  O93      1.0000 0.97505  0.81920  0.02392  Biso   1.000  O
  O94      1.0000 0.00921  0.02024  0.18288  Biso   1.000  O
  O95      1.0000 0.65990  0.47222  0.97821  Biso   1.000  O
  O96      1.0000 0.47750  0.82232  0.53408  Biso   1.000  O
  O97      1.0000 0.46985  0.18282  0.53121  Biso   1.000  O
  O98      1.0000 0.53150  0.43496  0.23726  Biso   1.000  O
  O99      1.0000 0.22082  0.47688  0.50095  Biso   1.000  O
  O100     1.0000 0.97328  0.18177  0.02209  Biso   1.000  O
  O101     1.0000 0.02100  0.43745  0.32918  Biso   1.000  O
  O102     1.0000 0.72219  0.47600  0.05671  Biso   1.000  O
  O103     1.0000 0.06289  0.68581  0.52546  Biso   1.000  O
  O104     1.0000 0.01812  0.93476  0.23246  Biso   1.000  O
  O105     1.0000 0.30734  0.97247  0.48199  Biso   1.000  O
  O106     1.0000 0.55410  0.68203  0.01730  Biso   1.000  O
  O107     1.0000 0.51998  0.93226  0.32069  Biso   1.000  O
  O108     1.0000 0.80868  0.97633  0.06866  Biso   1.000  O
  O109     1.0000 0.55976  0.77003  0.52358  Biso   1.000  O
  O110     1.0000 0.49893  0.51198  0.82382  Biso   1.000  O
  O111     1.0000 0.80134  0.48150  0.55833  Biso   1.000  O
  O112     1.0000 0.05665  0.76886  0.02204  Biso   1.000  O
  O113     1.0000 0.00483  0.51818  0.72891  Biso   1.000  O
  O114     1.0000 0.30721  0.47290  0.99986  Biso   1.000  O
  O115     1.0000 0.96763  0.27309  0.53411  Biso   1.000  O
  O116     1.0000 0.01946  0.01847  0.82216  Biso   1.000  O
  O117     1.0000 0.71961  0.97042  0.57197  Biso   1.000  O
  O118     1.0000 0.46807  0.27513  0.03045  Biso   1.000  O
  O119     1.0000 0.50578  0.01231  0.73325  Biso   1.000  O
  O120     1.0000 0.21620  0.97965  0.98310  Biso   1.000  O
  O121     1.0000 0.03913  0.47225  0.73476  Biso   1.000  O
  O122     1.0000 0.71838  0.02208  0.53745  Biso   1.000  O
  O123     1.0000 0.51722  0.68071  0.06819  Biso   1.000  O
  O124     1.0000 0.53805  0.47064  0.82266  Biso   1.000  O
  O125     1.0000 0.21940  0.02133  0.02529  Biso   1.000  O
  O126     1.0000 0.02076  0.68280  0.48563  Biso   1.000  O
  O127     1.0000 0.46575  0.97121  0.73187  Biso   1.000  O
  O128     1.0000 0.80666  0.52609  0.51666  Biso   1.000  O
  O129     1.0000 0.01332  0.18602  0.06824  Biso   1.000  O
  O130     1.0000 0.97370  0.97773  0.81612  Biso   1.000  O
  O131     1.0000 0.31229  0.51977  0.03416  Biso   1.000  O
  O132     1.0000 0.51116  0.17828  0.48501  Biso   1.000  O
  O133     1.0000 0.98533  0.48085  0.32464  Biso   1.000  O
  O134     1.0000 0.31227  0.93282  0.52612  Biso   1.000  O
  O135     1.0000 0.51493  0.26816  0.98986  Biso   1.000  O
  O136     1.0000 0.48886  0.47956  0.23616  Biso   1.000  O
  O137     1.0000 0.81075  0.93431  0.03026  Biso   1.000  O
  O138     1.0000 0.01528  0.27034  0.57507  Biso   1.000  O
  O139     1.0000 0.56361  0.97611  0.32358  Biso   1.000  O
  O140     1.0000 0.21963  0.43120  0.53872  Biso   1.000  O
  O141     1.0000 0.01335  0.77275  0.98589  Biso   1.000  O
  O142     1.0000 0.05451  0.98076  0.23230  Biso   1.000  O
  O143     1.0000 0.71671  0.43317  0.01199  Biso   1.000  O
  O144     1.0000 0.51893  0.76683  0.56275  Biso   1.000  O
  O145     1.0000 0.57244  0.47802  0.23450  Biso   1.000  O
  O146     1.0000 0.21408  0.51474  0.54554  Biso   1.000  O
  O147     1.0000 0.51529  0.17611  0.57006  Biso   1.000  O
  O148     1.0000 0.06736  0.47792  0.33042  Biso   1.000  O
  O149     1.0000 0.71327  0.51737  0.01511  Biso   1.000  O
  O150     1.0000 0.01506  0.18103  0.98467  Biso   1.000  O
  O151     1.0000 0.97231  0.97154  0.22964  Biso   1.000  O
  O152     1.0000 0.31146  0.01506  0.52455  Biso   1.000  O
  O153     1.0000 0.02390  0.68412  0.56978  Biso   1.000  O
  O154     1.0000 0.47751  0.97222  0.32253  Biso   1.000  O
  O155     1.0000 0.80555  0.01890  0.02437  Biso   1.000  O
  O156     1.0000 0.50949  0.67889  0.98378  Biso   1.000  O
  O157     1.0000 0.45412  0.47215  0.82127  Biso   1.000  O
  O158     1.0000 0.80557  0.44267  0.51496  Biso   1.000  O
  O159     1.0000 0.51487  0.76917  0.48303  Biso   1.000  O
  O160     1.0000 0.95709  0.48245  0.72681  Biso   1.000  O
  O161     1.0000 0.30963  0.43706  0.04504  Biso   1.000  O
  O162     1.0000 0.01707  0.76819  0.06781  Biso   1.000  O
  O163     1.0000 0.05649  0.97347  0.82167  Biso   1.000  O
  O164     1.0000 0.71959  0.93826  0.52286  Biso   1.000  O
  O165     1.0000 0.00878  0.27859  0.48890  Biso   1.000  O
  O166     1.0000 0.54984  0.96797  0.73493  Biso   1.000  O
  O167     1.0000 0.22044  0.93876  0.02685  Biso   1.000  O
  O168     1.0000 0.50746  0.27063  0.07475  Biso   1.000  O
  O169     1.0000 0.01296  0.01834  0.23192  Biso   1.000  O
  O170     1.0000 0.21645  0.97877  0.06782  Biso   1.000  O
  O171     1.0000 0.05828  0.18693  0.02539  Biso   1.000  O
  O172     1.0000 0.51864  0.01390  0.32041  Biso   1.000  O
  O173     1.0000 0.71688  0.98380  0.48841  Biso   1.000  O
  O174     1.0000 0.55446  0.17748  0.52377  Biso   1.000  O
  O175     1.0000 0.53248  0.52177  0.23658  Biso   1.000  O
  O176     1.0000 0.31516  0.48369  0.08278  Biso   1.000  O
  O177     1.0000 0.47236  0.68198  0.02919  Biso   1.000  O
  O178     1.0000 0.02940  0.52175  0.32364  Biso   1.000  O
  O179     1.0000 0.80764  0.48557  0.47222  Biso   1.000  O
  O180     1.0000 0.97801  0.68225  0.52916  Biso   1.000  O
  O181     1.0000 0.01309  0.93388  0.82433  Biso   1.000  O
  O182     1.0000 0.80925  0.97376  0.98304  Biso   1.000  O
  O183     1.0000 0.97334  0.77046  0.03058  Biso   1.000  O
  O184     1.0000 0.50401  0.92830  0.73195  Biso   1.000  O
  O185     1.0000 0.30845  0.97661  0.56708  Biso   1.000  O
  O186     1.0000 0.47570  0.77450  0.52274  Biso   1.000  O
  O187     1.0000 0.49684  0.42657  0.82008  Biso   1.000  O
  O188     1.0000 0.70968  0.47656  0.97417  Biso   1.000  O
  O189     1.0000 0.55187  0.27001  0.03443  Biso   1.000  O
  O190     1.0000 0.99105  0.43820  0.73312  Biso   1.000  O
  O191     1.0000 0.21129  0.46475  0.58276  Biso   1.000  O
  O192     1.0000 0.05163  0.27205  0.53028  Biso   1.000  O
