data_image0
_cell_length_a       47.1148
_cell_length_b       46.6056
_cell_length_c       46.5146
_cell_angle_alpha    90
_cell_angle_beta     90
_cell_angle_gamma    90

_symmetry_space_group_name_H-M    "P 1"
_symmetry_int_tables_number       1

loop_
  _symmetry_equiv_pos_as_xyz
  'x, y, z'

loop_
  _atom_site_label
  _atom_site_occupancy
  _atom_site_fract_x
  _atom_site_fract_y
  _atom_site_fract_z
  _atom_site_thermal_displace_type
  _atom_site_B_iso_or_equiv
  _atom_site_type_symbol
  C1       1.0000 0.58186  0.99543  0.31943  Biso   1.000  C
  C2       1.0000 0.34435  0.56661  0.00164  Biso   1.000  C
  C3       1.0000 0.01180  0.31388  0.55385  Biso   1.000  C
  C4       1.0000 0.07829  0.99545  0.18452  Biso   1.000  C
  C5       1.0000 0.85003  0.56406  0.49815  Biso   1.000  C
  C6       1.0000 0.50767  0.31726  0.93775  Biso   1.000  C
  C7       1.0000 0.96483  0.50219  0.31749  Biso   1.000  C
  C8       1.0000 0.20123  0.06480  0.99155  Biso   1.000  C
  C9       1.0000 0.54238  0.81986  0.55809  Biso   1.000  C
  C10      1.0000 0.46290  0.49789  0.18009  Biso   1.000  C
  C11      1.0000 0.69915  0.06701  0.50933  Biso   1.000  C
  C12      1.0000 0.02622  0.81554  0.94618  Biso   1.000  C
  C13      1.0000 0.46108  0.01046  0.67425  Biso   1.000  C
  C14      1.0000 0.69585  0.42558  0.99745  Biso   1.000  C
  C15      1.0000 0.03753  0.68468  0.44542  Biso   1.000  C
  C16      1.0000 0.96301  0.98798  0.81568  Biso   1.000  C
  C17      1.0000 0.19648  0.43642  0.49809  Biso   1.000  C
  C18      1.0000 0.53171  0.67868  0.05905  Biso   1.000  C
  C19      1.0000 0.07742  0.49096  0.67889  Biso   1.000  C
  C20      1.0000 0.84448  0.92484  0.99821  Biso   1.000  C
  C21      1.0000 0.51227  0.18018  0.43840  Biso   1.000  C
  C22      1.0000 0.57202  0.50541  0.81501  Biso   1.000  C
  C23      1.0000 0.35136  0.93320  0.49023  Biso   1.000  C
  C24      1.0000 0.00930  0.16951  0.05546  Biso   1.000  C
  C25      1.0000 0.33667  0.03922  0.49843  Biso   1.000  C
  C26      1.0000 0.49268  0.31732  0.04866  Biso   1.000  C
  C27      1.0000 0.07163  0.48886  0.32226  Biso   1.000  C
  C28      1.0000 0.83257  0.03245  0.99369  Biso   1.000  C
  C29      1.0000 0.01080  0.31348  0.44544  Biso   1.000  C
  C30      1.0000 0.57155  0.49563  0.17357  Biso   1.000  C
  C31      1.0000 0.21023  0.54444  0.49425  Biso   1.000  C
  C32      1.0000 0.05416  0.81464  0.05171  Biso   1.000  C
  C33      1.0000 0.47563  0.99832  0.31648  Biso   1.000  C
  C34      1.0000 0.71194  0.53211  0.99527  Biso   1.000  C
  C35      1.0000 0.53974  0.82332  0.44890  Biso   1.000  C
  C36      1.0000 0.97067  0.99591  0.17600  Biso   1.000  C
  C37      1.0000 0.70902  0.96072  0.48912  Biso   1.000  C
  C38      1.0000 0.54228  0.67607  0.95001  Biso   1.000  C
  C39      1.0000 0.96770  0.50058  0.67901  Biso   1.000  C
  C40      1.0000 0.20919  0.95806  0.00208  Biso   1.000  C
  C41      1.0000 0.03652  0.68153  0.55515  Biso   1.000  C
  C42      1.0000 0.46276  0.50484  0.82096  Biso   1.000  C
  C43      1.0000 0.83383  0.45645  0.50102  Biso   1.000  C
  C44      1.0000 0.00054  0.17779  0.94771  Biso   1.000  C
  C45      1.0000 0.56953  0.98206  0.67178  Biso   1.000  C
  C46      1.0000 0.33182  0.45788  0.00989  Biso   1.000  C
  C47      1.0000 0.51372  0.17655  0.54893  Biso   1.000  C
  C48      1.0000 0.07133  0.99457  0.82086  Biso   1.000  C
  C49      1.0000 0.01196  0.04946  0.82469  Biso   1.000  C
  C50      1.0000 0.84218  0.98156  0.05026  Biso   1.000  C
  C51      1.0000 0.09383  0.81980  0.98325  Biso   1.000  C
  C52      1.0000 0.52899  0.04898  0.67203  Biso   1.000  C
  C53      1.0000 0.34366  0.98839  0.43985  Biso   1.000  C
  C54      1.0000 0.59639  0.82335  0.50182  Biso   1.000  C
  C55      1.0000 0.51743  0.55769  0.81956  Biso   1.000  C
  C56      1.0000 0.70161  0.48302  0.05200  Biso   1.000  C
  C57      1.0000 0.44660  0.32287  0.99075  Biso   1.000  C
  C58      1.0000 0.02417  0.54889  0.68066  Biso   1.000  C
  C59      1.0000 0.19906  0.48678  0.44436  Biso   1.000  C
  C60      1.0000 0.95632  0.32047  0.50508  Biso   1.000  C
  C61      1.0000 0.02857  0.93953  0.17692  Biso   1.000  C
  C62      1.0000 0.19837  0.00149  0.94496  Biso   1.000  C
  C63      1.0000 0.95019  0.16751  0.00709  Biso   1.000  C
  C64      1.0000 0.53118  0.94374  0.31897  Biso   1.000  C
  C65      1.0000 0.70357  0.00362  0.55299  Biso   1.000  C
  C66      1.0000 0.45481  0.17432  0.49107  Biso   1.000  C
  C67      1.0000 0.51948  0.44158  0.17732  Biso   1.000  C
  C68      1.0000 0.33739  0.50393  0.94922  Biso   1.000  C
  C69      1.0000 0.59367  0.66788  0.00630  Biso   1.000  C
  C70      1.0000 0.01099  0.44272  0.32057  Biso   1.000  C
  C71      1.0000 0.84126  0.50946  0.55356  Biso   1.000  C
  C72      1.0000 0.09462  0.67904  0.49690  Biso   1.000  C
  C73      1.0000 0.02336  0.55185  0.31951  Biso   1.000  C
  C74      1.0000 0.33905  0.98668  0.54871  Biso   1.000  C
  C75      1.0000 0.55365  0.31231  0.99797  Biso   1.000  C
  C76      1.0000 0.51840  0.55128  0.17866  Biso   1.000  C
  C77      1.0000 0.83556  0.97146  0.94193  Biso   1.000  C
  C78      1.0000 0.06578  0.31187  0.49977  Biso   1.000  C
  C79      1.0000 0.53064  0.05041  0.31483  Biso   1.000  C
  C80      1.0000 0.20643  0.49326  0.55451  Biso   1.000  C
  C81      1.0000 0.98792  0.81119  0.01336  Biso   1.000  C
  C82      1.0000 0.02230  0.04875  0.18051  Biso   1.000  C
  C83      1.0000 0.70198  0.47804  0.94084  Biso   1.000  C
  C84      1.0000 0.48701  0.81410  0.50412  Biso   1.000  C
  C85      1.0000 0.01975  0.44044  0.67847  Biso   1.000  C
  C86      1.0000 0.70449  0.02347  0.44431  Biso   1.000  C
  C87      1.0000 0.48464  0.68680  0.00172  Biso   1.000  C
  C88      1.0000 0.51693  0.44614  0.81802  Biso   1.000  C
  C89      1.0000 0.19987  0.01123  0.05400  Biso   1.000  C
  C90      1.0000 0.98572  0.68910  0.50071  Biso   1.000  C
  C91      1.0000 0.50245  0.94496  0.67661  Biso   1.000  C
  C92      1.0000 0.83834  0.50759  0.44442  Biso   1.000  C
  C93      1.0000 0.05620  0.17665  0.99539  Biso   1.000  C
  C94      1.0000 0.01564  0.94159  0.81848  Biso   1.000  C
  C95      1.0000 0.33529  0.51876  0.05776  Biso   1.000  C
  C96      1.0000 0.56497  0.18498  0.49162  Biso   1.000  C
  C97      1.0000 0.69758  0.09887  0.50981  Biso   1.000  C
  C98      1.0000 0.52810  0.67927  0.09108  Biso   1.000  C
  C99      1.0000 0.10840  0.48565  0.67670  Biso   1.000  C
  C100     1.0000 0.19713  0.09808  0.99272  Biso   1.000  C
  C101     1.0000 0.03758  0.68270  0.41324  Biso   1.000  C
  C102     1.0000 0.60403  0.50689  0.81583  Biso   1.000  C
  C103     1.0000 0.85116  0.59753  0.49610  Biso   1.000  C
  C104     1.0000 0.01682  0.16952  0.08708  Biso   1.000  C
  C105     1.0000 0.42821  0.01277  0.67296  Biso   1.000  C
  C106     1.0000 0.34836  0.59740  0.00526  Biso   1.000  C
  C107     1.0000 0.51074  0.17905  0.40653  Biso   1.000  C
  C108     1.0000 0.93043  0.98384  0.81584  Biso   1.000  C
  C109     1.0000 0.35537  0.90054  0.48681  Biso   1.000  C
  C110     1.0000 0.51218  0.31562  0.90606  Biso   1.000  C
  C111     1.0000 0.93249  0.50354  0.31663  Biso   1.000  C
  C112     1.0000 0.84852  0.89276  0.99642  Biso   1.000  C
  C113     1.0000 0.01525  0.31317  0.58536  Biso   1.000  C
  C114     1.0000 0.42951  0.49969  0.18063  Biso   1.000  C
  C115     1.0000 0.19616  0.40338  0.49720  Biso   1.000  C
  C116     1.0000 0.01784  0.81445  0.91620  Biso   1.000  C
  C117     1.0000 0.61488  0.99477  0.31905  Biso   1.000  C
  C118     1.0000 0.69138  0.39397  0.99553  Biso   1.000  C
  C119     1.0000 0.53865  0.82069  0.59074  Biso   1.000  C
  C120     1.0000 0.11037  0.99530  0.18377  Biso   1.000  C
  C121     1.0000 0.84289  0.98003  0.08263  Biso   1.000  C
  C122     1.0000 0.12607  0.82260  0.98617  Biso   1.000  C
  C123     1.0000 0.01025  0.08196  0.82397  Biso   1.000  C
  C124     1.0000 0.34385  0.99271  0.40819  Biso   1.000  C
  C125     1.0000 0.62873  0.82488  0.50157  Biso   1.000  C
  C126     1.0000 0.53351  0.08048  0.67188  Biso   1.000  C
  C127     1.0000 0.70142  0.48788  0.08328  Biso   1.000  C
  C128     1.0000 0.41471  0.32795  0.98787  Biso   1.000  C
  C129     1.0000 0.51777  0.59046  0.82026  Biso   1.000  C
  C130     1.0000 0.19700  0.49586  0.41455  Biso   1.000  C
  C131     1.0000 0.92305  0.32402  0.51160  Biso   1.000  C
  C132     1.0000 0.02580  0.58174  0.68016  Biso   1.000  C
  C133     1.0000 0.19990  0.99486  0.91304  Biso   1.000  C
  C134     1.0000 0.91772  0.16508  0.00812  Biso   1.000  C
  C135     1.0000 0.03616  0.90825  0.17804  Biso   1.000  C
  C136     1.0000 0.70121  0.00200  0.58524  Biso   1.000  C
  C137     1.0000 0.42339  0.17167  0.49322  Biso   1.000  C
  C138     1.0000 0.53285  0.91271  0.31990  Biso   1.000  C
  C139     1.0000 0.33733  0.50166  0.91773  Biso   1.000  C
  C140     1.0000 0.62518  0.66430  0.00786  Biso   1.000  C
  C141     1.0000 0.51870  0.40976  0.17746  Biso   1.000  C
  C142     1.0000 0.84223  0.50177  0.58398  Biso   1.000  C
  C143     1.0000 0.12649  0.67704  0.49977  Biso   1.000  C
  C144     1.0000 0.01066  0.41045  0.31962  Biso   1.000  C
  C145     1.0000 0.33409  0.51917  0.09011  Biso   1.000  C
  C146     1.0000 0.09747  0.30991  0.50265  Biso   1.000  C
  C147     1.0000 0.53166  0.08252  0.31556  Biso   1.000  C
  C148     1.0000 0.83777  0.50686  0.41110  Biso   1.000  C
  C149     1.0000 0.58651  0.30811  0.99713  Biso   1.000  C
  C150     1.0000 0.02419  0.08029  0.18239  Biso   1.000  C
  C151     1.0000 0.20300  0.01026  0.08631  Biso   1.000  C
  C152     1.0000 0.45505  0.81122  0.49802  Biso   1.000  C
  C153     1.0000 0.02600  0.58409  0.32090  Biso   1.000  C
  C154     1.0000 0.70576  0.02561  0.41145  Biso   1.000  C
  C155     1.0000 0.95536  0.81002  0.01275  Biso   1.000  C
  C156     1.0000 0.52353  0.58266  0.18164  Biso   1.000  C
  C157     1.0000 0.70169  0.48531  0.90848  Biso   1.000  C
  C158     1.0000 0.95264  0.68942  0.49987  Biso   1.000  C
  C159     1.0000 0.50311  0.91366  0.67841  Biso   1.000  C
  C160     1.0000 0.20698  0.49357  0.58638  Biso   1.000  C
  C161     1.0000 0.45281  0.68821  0.00354  Biso   1.000  C
  C162     1.0000 0.00865  0.91013  0.81839  Biso   1.000  C
  C163     1.0000 0.83480  0.96849  0.91000  Biso   1.000  C
  C164     1.0000 0.59693  0.18681  0.49296  Biso   1.000  C
  C165     1.0000 0.02410  0.40854  0.67824  Biso   1.000  C
  C166     1.0000 0.33710  0.99160  0.58004  Biso   1.000  C
  C167     1.0000 0.08895  0.18098  0.99365  Biso   1.000  C
  C168     1.0000 0.51677  0.41474  0.81545  Biso   1.000  C
  C169     1.0000 0.05685  0.81394  0.08418  Biso   1.000  C
  C170     1.0000 0.10336  0.99250  0.81787  Biso   1.000  C
  C171     1.0000 0.83114  0.06562  0.99120  Biso   1.000  C
  C172     1.0000 0.53396  0.82200  0.41748  Biso   1.000  C
  C173     1.0000 0.60183  0.97935  0.67365  Biso   1.000  C
  C174     1.0000 0.33388  0.07158  0.49766  Biso   1.000  C
  C175     1.0000 0.49278  0.31826  0.08190  Biso   1.000  C
  C176     1.0000 0.43110  0.50193  0.82133  Biso   1.000  C
  C177     1.0000 0.71513  0.56396  0.99503  Biso   1.000  C
  C178     1.0000 0.01304  0.31216  0.41328  Biso   1.000  C
  C179     1.0000 0.93481  0.50273  0.67768  Biso   1.000  C
  C180     1.0000 0.21397  0.57579  0.48695  Biso   1.000  C
  C181     1.0000 0.99986  0.17839  0.91615  Biso   1.000  C
  C182     1.0000 0.93860  0.99702  0.17688  Biso   1.000  C
  C183     1.0000 0.21094  0.92662  0.00114  Biso   1.000  C
  C184     1.0000 0.51567  0.17623  0.58087  Biso   1.000  C
  C185     1.0000 0.44235  0.99585  0.31623  Biso   1.000  C
  C186     1.0000 0.71143  0.92883  0.48582  Biso   1.000  C
  C187     1.0000 0.54152  0.67864  0.91634  Biso   1.000  C
  C188     1.0000 0.60307  0.49893  0.17502  Biso   1.000  C
  C189     1.0000 0.32965  0.42774  0.01405  Biso   1.000  C
  C190     1.0000 0.03233  0.67921  0.58687  Biso   1.000  C
  C191     1.0000 0.10260  0.48715  0.32106  Biso   1.000  C
  C192     1.0000 0.83271  0.42509  0.50428  Biso   1.000  C
  C193     1.0000 0.86276  0.96959  0.89415  Biso   1.000  C
  C194     1.0000 0.93556  0.83534  0.00857  Biso   1.000  C
  C195     1.0000 0.01020  0.89579  0.84787  Biso   1.000  C
  C196     1.0000 0.36198  0.99685  0.59782  Biso   1.000  C
  C197     1.0000 0.43751  0.83733  0.49744  Biso   1.000  C
  C198     1.0000 0.50984  0.89710  0.65243  Biso   1.000  C
  C199     1.0000 0.67307  0.49003  0.89402  Biso   1.000  C
  C200     1.0000 0.60746  0.33353  0.99522  Biso   1.000  C
  C201     1.0000 0.51817  0.39764  0.84197  Biso   1.000  C
  C202     1.0000 0.18049  0.49439  0.60187  Biso   1.000  C
  C203     1.0000 0.11574  0.33757  0.50427  Biso   1.000  C
  C204     1.0000 0.01999  0.39098  0.65273  Biso   1.000  C
  C205     1.0000 0.17628  0.00837  0.10199  Biso   1.000  C
  C206     1.0000 0.10880  0.15613  0.99108  Biso   1.000  C
  C207     1.0000 0.02387  0.09569  0.15449  Biso   1.000  C
  C208     1.0000 0.67911  0.01974  0.39530  Biso   1.000  C
  C209     1.0000 0.61484  0.16126  0.49736  Biso   1.000  C
  C210     1.0000 0.52895  0.09827  0.34229  Biso   1.000  C
  C211     1.0000 0.36104  0.51323  0.10575  Biso   1.000  C
  C212     1.0000 0.43441  0.66092  0.99962  Biso   1.000  C
  C213     1.0000 0.52623  0.60195  0.15568  Biso   1.000  C
  C214     1.0000 0.86358  0.50329  0.39294  Biso   1.000  C
  C215     1.0000 0.93456  0.66344  0.50103  Biso   1.000  C
  C216     1.0000 0.02921  0.59953  0.34844  Biso   1.000  C
  C217     1.0000 0.12043  0.99269  0.84485  Biso   1.000  C
  C218     1.0000 0.85671  0.08340  0.99405  Biso   1.000  C
  C219     1.0000 0.05382  0.84105  0.09906  Biso   1.000  C
  C220     1.0000 0.61932  0.98253  0.64798  Biso   1.000  C
  C221     1.0000 0.36145  0.08805  0.49121  Biso   1.000  C
  C222     1.0000 0.52833  0.84830  0.40003  Biso   1.000  C
  C223     1.0000 0.41661  0.50196  0.84896  Biso   1.000  C
  C224     1.0000 0.68970  0.58175  0.00057  Biso   1.000  C
  C225     1.0000 0.50000  0.34446  0.09771  Biso   1.000  C
  C226     1.0000 0.92024  0.50518  0.65148  Biso   1.000  C
  C227     1.0000 0.19020  0.59473  0.49217  Biso   1.000  C
  C228     1.0000 0.01182  0.34051  0.39807  Biso   1.000  C
  C229     1.0000 0.92196  0.99279  0.15034  Biso   1.000  C
  C230     1.0000 0.18460  0.90790  0.99942  Biso   1.000  C
  C231     1.0000 0.00281  0.15054  0.90153  Biso   1.000  C
  C232     1.0000 0.42543  0.99561  0.34355  Biso   1.000  C
  C233     1.0000 0.68673  0.90899  0.48570  Biso   1.000  C
  C234     1.0000 0.51886  0.14917  0.59675  Biso   1.000  C
  C235     1.0000 0.61988  0.49573  0.14823  Biso   1.000  C
  C236     1.0000 0.35675  0.40873  0.01012  Biso   1.000  C
  C237     1.0000 0.53555  0.65254  0.89926  Biso   1.000  C
  C238     1.0000 0.11841  0.48929  0.34747  Biso   1.000  C
  C239     1.0000 0.85955  0.40814  0.50740  Biso   1.000  C
  C240     1.0000 0.02977  0.65103  0.60326  Biso   1.000  C
  C241     1.0000 0.61936  0.50180  0.84297  Biso   1.000  C
  C242     1.0000 0.88012  0.61211  0.49942  Biso   1.000  C
  C243     1.0000 0.52885  0.84722  0.60454  Biso   1.000  C
  C244     1.0000 0.12572  0.48823  0.64986  Biso   1.000  C
  C245     1.0000 0.37769  0.61005  0.00524  Biso   1.000  C
  C246     1.0000 0.01360  0.84183  0.90071  Biso   1.000  C
  C247     1.0000 0.91345  0.98337  0.84221  Biso   1.000  C
  C248     1.0000 0.66897  0.11317  0.50655  Biso   1.000  C
  C249     1.0000 0.02010  0.34002  0.60068  Biso   1.000  C
  C250     1.0000 0.41315  0.00812  0.64644  Biso   1.000  C
  C251     1.0000 0.16715  0.11086  0.99208  Biso   1.000  C
  C252     1.0000 0.51522  0.34399  0.89138  Biso   1.000  C
  C253     1.0000 0.41462  0.50514  0.15327  Biso   1.000  C
  C254     1.0000 0.16961  0.38751  0.49992  Biso   1.000  C
  C255     1.0000 0.51421  0.15052  0.39211  Biso   1.000  C
  C256     1.0000 0.91483  0.50009  0.34141  Biso   1.000  C
  C257     1.0000 0.66296  0.38011  0.99560  Biso   1.000  C
  C258     1.0000 0.02043  0.14401  0.10508  Biso   1.000  C
  C259     1.0000 0.12762  0.00050  0.15654  Biso   1.000  C
  C260     1.0000 0.38314  0.88522  0.48969  Biso   1.000  C
  C261     1.0000 0.03286  0.65497  0.39754  Biso   1.000  C
  C262     1.0000 0.63126  0.00648  0.34336  Biso   1.000  C
  C263     1.0000 0.87786  0.88099  0.99987  Biso   1.000  C
  C264     1.0000 0.52816  0.65127  0.10638  Biso   1.000  C
  C265     1.0000 0.00895  0.09875  0.85133  Biso   1.000  C
  C266     1.0000 0.86968  0.98172  0.09812  Biso   1.000  C
  C267     1.0000 0.13824  0.85142  0.99037  Biso   1.000  C
  C268     1.0000 0.52970  0.09750  0.64611  Biso   1.000  C
  C269     1.0000 0.37267  0.99227  0.39332  Biso   1.000  C
  C270     1.0000 0.64163  0.85256  0.49662  Biso   1.000  C
  C271     1.0000 0.51989  0.60598  0.84764  Biso   1.000  C
  C272     1.0000 0.67419  0.49454  0.09784  Biso   1.000  C
  C273     1.0000 0.40106  0.35585  0.99503  Biso   1.000  C
  C274     1.0000 0.02959  0.59923  0.65438  Biso   1.000  C
  C275     1.0000 0.16954  0.49548  0.39856  Biso   1.000  C
  C276     1.0000 0.90955  0.35207  0.50846  Biso   1.000  C
  C277     1.0000 0.04036  0.89205  0.15163  Biso   1.000  C
  C278     1.0000 0.17154  0.99183  0.89772  Biso   1.000  C
  C279     1.0000 0.90339  0.13768  0.00537  Biso   1.000  C
  C280     1.0000 0.53187  0.89776  0.34867  Biso   1.000  C
  C281     1.0000 0.67499  0.99562  0.60069  Biso   1.000  C
  C282     1.0000 0.40908  0.14394  0.49324  Biso   1.000  C
  C283     1.0000 0.51463  0.39440  0.14984  Biso   1.000  C
  C284     1.0000 0.36404  0.50663  0.90120  Biso   1.000  C
  C285     1.0000 0.63863  0.63597  0.00674  Biso   1.000  C
  C286     1.0000 0.01032  0.39404  0.34622  Biso   1.000  C
  C287     1.0000 0.86897  0.50250  0.59995  Biso   1.000  C
  C288     1.0000 0.14032  0.64849  0.49637  Biso   1.000  C
  C289     1.0000 0.38391  0.85418  0.48943  Biso   1.000  C
  C290     1.0000 0.51476  0.34372  0.85998  Biso   1.000  C
  C291     1.0000 0.88348  0.50316  0.34023  Biso   1.000  C
  C292     1.0000 0.88141  0.84942  0.00124  Biso   1.000  C
  C293     1.0000 0.01879  0.33973  0.63146  Biso   1.000  C
  C294     1.0000 0.38363  0.50922  0.15684  Biso   1.000  C
  C295     1.0000 0.16975  0.35607  0.49748  Biso   1.000  C
  C296     1.0000 0.00989  0.84350  0.86991  Biso   1.000  C
  C297     1.0000 0.66236  0.00827  0.34302  Biso   1.000  C
  C298     1.0000 0.66147  0.34797  0.99416  Biso   1.000  C
  C299     1.0000 0.51942  0.84401  0.63467  Biso   1.000  C
  C300     1.0000 0.15877  0.00058  0.15609  Biso   1.000  C
  C301     1.0000 0.66848  0.14451  0.50590  Biso   1.000  C
  C302     1.0000 0.52534  0.65328  0.13771  Biso   1.000  C
  C303     1.0000 0.15757  0.49152  0.65332  Biso   1.000  C
  C304     1.0000 0.16556  0.14200  0.99010  Biso   1.000  C
  C305     1.0000 0.03413  0.65412  0.36624  Biso   1.000  C
  C306     1.0000 0.65040  0.50165  0.84199  Biso   1.000  C
  C307     1.0000 0.88095  0.64292  0.50132  Biso   1.000  C
  C308     1.0000 0.02523  0.14827  0.13551  Biso   1.000  C
  C309     1.0000 0.38175  0.00709  0.64884  Biso   1.000  C
  C310     1.0000 0.38090  0.64077  0.00805  Biso   1.000  C
  C311     1.0000 0.51483  0.15044  0.36020  Biso   1.000  C
  C312     1.0000 0.88248  0.97715  0.84183  Biso   1.000  C
  C313     1.0000 0.16924  0.49795  0.36813  Biso   1.000  C
  C314     1.0000 0.37712  0.14162  0.49529  Biso   1.000  C
  C315     1.0000 0.50933  0.36321  0.15102  Biso   1.000  C
  C316     1.0000 0.67342  0.49704  0.12861  Biso   1.000  C
  C317     1.0000 0.87186  0.13685  0.00546  Biso   1.000  C
  C318     1.0000 0.00736  0.36264  0.34581  Biso   1.000  C
  C319     1.0000 0.37222  0.99598  0.36263  Biso   1.000  C
  C320     1.0000 0.17180  0.64736  0.49233  Biso   1.000  C
  C321     1.0000 0.04798  0.86187  0.15290  Biso   1.000  C
  C322     1.0000 0.86947  0.98294  0.12951  Biso   1.000  C
  C323     1.0000 0.67046  0.63555  0.00526  Biso   1.000  C
  C324     1.0000 0.52802  0.86597  0.34751  Biso   1.000  C
  C325     1.0000 0.86788  0.50233  0.63061  Biso   1.000  C
  C326     1.0000 0.67220  0.85504  0.49292  Biso   1.000  C
  C327     1.0000 0.52024  0.63734  0.84867  Biso   1.000  C
  C328     1.0000 0.36357  0.50069  0.87051  Biso   1.000  C
  C329     1.0000 0.17028  0.85355  0.99475  Biso   1.000  C
  C330     1.0000 0.02943  0.63013  0.65566  Biso   1.000  C
  C331     1.0000 0.67410  0.99056  0.63201  Biso   1.000  C
  C332     1.0000 0.87731  0.35271  0.51073  Biso   1.000  C
  C333     1.0000 0.00688  0.12894  0.84903  Biso   1.000  C
  C334     1.0000 0.17276  0.99163  0.86522  Biso   1.000  C
  C335     1.0000 0.37004  0.35627  0.99633  Biso   1.000  C
  C336     1.0000 0.52785  0.12827  0.64805  Biso   1.000  C
  C337     1.0000 0.67300  0.49591  0.86234  Biso   1.000  C
  C338     1.0000 0.90290  0.66468  0.50092  Biso   1.000  C
  C339     1.0000 0.51215  0.86525  0.65580  Biso   1.000  C
  C340     1.0000 0.18020  0.49645  0.63266  Biso   1.000  C
  C341     1.0000 0.40363  0.66194  0.00506  Biso   1.000  C
  C342     1.0000 0.00798  0.86515  0.84853  Biso   1.000  C
  C343     1.0000 0.86117  0.97226  0.86347  Biso   1.000  C
  C344     1.0000 0.64533  0.16443  0.50258  Biso   1.000  C
  C345     1.0000 0.01938  0.36058  0.65458  Biso   1.000  C
  C346     1.0000 0.36044  0.00232  0.62812  Biso   1.000  C
  C347     1.0000 0.14027  0.16037  0.98909  Biso   1.000  C
  C348     1.0000 0.51618  0.36607  0.83927  Biso   1.000  C
  C349     1.0000 0.36216  0.51374  0.13642  Biso   1.000  C
  C350     1.0000 0.14775  0.33551  0.49916  Biso   1.000  C
  C351     1.0000 0.52162  0.12891  0.33942  Biso   1.000  C
  C352     1.0000 0.86153  0.50560  0.36183  Biso   1.000  C
  C353     1.0000 0.63802  0.32837  0.99439  Biso   1.000  C
  C354     1.0000 0.02928  0.12758  0.15740  Biso   1.000  C
  C355     1.0000 0.17936  0.00446  0.13306  Biso   1.000  C
  C356     1.0000 0.40667  0.83507  0.49252  Biso   1.000  C
  C357     1.0000 0.03179  0.63197  0.34533  Biso   1.000  C
  C358     1.0000 0.68301  0.01422  0.36425  Biso   1.000  C
  C359     1.0000 0.90452  0.83135  0.00526  Biso   1.000  C
  C360     1.0000 0.52307  0.63253  0.15979  Biso   1.000  C
  C361     1.0000 0.00557  0.15160  0.87017  Biso   1.000  C
  C362     1.0000 0.89017  0.98874  0.15226  Biso   1.000  C
  C363     1.0000 0.18918  0.87684  0.99787  Biso   1.000  C
  C364     1.0000 0.52414  0.15014  0.62668  Biso   1.000  C
  C365     1.0000 0.39384  0.99731  0.34162  Biso   1.000  C
  C366     1.0000 0.69090  0.87846  0.48882  Biso   1.000  C
  C367     1.0000 0.52666  0.65713  0.86972  Biso   1.000  C
  C368     1.0000 0.65166  0.49693  0.15071  Biso   1.000  C
  C369     1.0000 0.35093  0.37871  0.00376  Biso   1.000  C
  C370     1.0000 0.02956  0.65163  0.63361  Biso   1.000  C
  C371     1.0000 0.14891  0.49612  0.34644  Biso   1.000  C
  C372     1.0000 0.85691  0.37627  0.51044  Biso   1.000  C
  C373     1.0000 0.05392  0.83992  0.13196  Biso   1.000  C
  C374     1.0000 0.15143  0.99394  0.84423  Biso   1.000  C
  C375     1.0000 0.85290  0.11427  0.99933  Biso   1.000  C
  C376     1.0000 0.52789  0.84460  0.36959  Biso   1.000  C
  C377     1.0000 0.65144  0.98446  0.65142  Biso   1.000  C
  C378     1.0000 0.35754  0.11838  0.49357  Biso   1.000  C
  C379     1.0000 0.50360  0.34235  0.12937  Biso   1.000  C
  C380     1.0000 0.38485  0.49927  0.84836  Biso   1.000  C
  C381     1.0000 0.69168  0.61377  0.00399  Biso   1.000  C
  C382     1.0000 0.00812  0.33997  0.36682  Biso   1.000  C
  C383     1.0000 0.88918  0.50382  0.65211  Biso   1.000  C
  C384     1.0000 0.19376  0.62567  0.48904  Biso   1.000  C
  C385     1.0000 0.19046  0.15961  0.98891  Biso   1.000  C
  C386     1.0000 0.02549  0.17581  0.14987  Biso   1.000  C
  C387     1.0000 0.17467  0.99930  0.18404  Biso   1.000  C
  C388     1.0000 0.69444  0.16245  0.50899  Biso   1.000  C
  C389     1.0000 0.51333  0.17679  0.34312  Biso   1.000  C
  C390     1.0000 0.67767  0.00298  0.31689  Biso   1.000  C
  C391     1.0000 0.35510  0.66059  0.01219  Biso   1.000  C
  C392     1.0000 0.52594  0.68021  0.15399  Biso   1.000  C
  C393     1.0000 0.36882  0.50696  0.18431  Biso   1.000  C
  C394     1.0000 0.85415  0.65921  0.49936  Biso   1.000  C
  C395     1.0000 0.03565  0.68104  0.35020  Biso   1.000  C
  C396     1.0000 0.86879  0.50665  0.31319  Biso   1.000  C
  C397     1.0000 0.85598  0.83123  0.99800  Biso   1.000  C
  C398     1.0000 0.00782  0.81552  0.85571  Biso   1.000  C
  C399     1.0000 0.86837  0.97495  0.81363  Biso   1.000  C
  C400     1.0000 0.35779  0.83771  0.48541  Biso   1.000  C
  C401     1.0000 0.52075  0.81792  0.65020  Biso   1.000  C
  C402     1.0000 0.36535  0.01064  0.67516  Biso   1.000  C
  C403     1.0000 0.68683  0.33018  0.99460  Biso   1.000  C
  C404     1.0000 0.51369  0.31786  0.84257  Biso   1.000  C
  C405     1.0000 0.66739  0.50561  0.81633  Biso   1.000  C
  C406     1.0000 0.19709  0.34028  0.49340  Biso   1.000  C
  C407     1.0000 0.01638  0.31279  0.64840  Biso   1.000  C
  C408     1.0000 0.17222  0.49260  0.68120  Biso   1.000  C
  C409     1.0000 0.16697  0.99408  0.81684  Biso   1.000  C
  C410     1.0000 0.82537  0.12855  0.00114  Biso   1.000  C
  C411     1.0000 0.05585  0.81409  0.14655  Biso   1.000  C
  C412     1.0000 0.66581  0.98173  0.67863  Biso   1.000  C
  C413     1.0000 0.32927  0.13253  0.49573  Biso   1.000  C
  C414     1.0000 0.52681  0.81823  0.35462  Biso   1.000  C
  C415     1.0000 0.37003  0.49247  0.82214  Biso   1.000  C
  C416     1.0000 0.71967  0.62749  0.99932  Biso   1.000  C
  C417     1.0000 0.49820  0.31584  0.14505  Biso   1.000  C
  C418     1.0000 0.87194  0.50385  0.67851  Biso   1.000  C
  C419     1.0000 0.22028  0.63896  0.48130  Biso   1.000  C
  C420     1.0000 0.00520  0.31350  0.35050  Biso   1.000  C
  C421     1.0000 0.87357  0.99046  0.17920  Biso   1.000  C
  C422     1.0000 0.21653  0.86454  0.00116  Biso   1.000  C
  C423     1.0000 0.00495  0.17721  0.85356  Biso   1.000  C
  C424     1.0000 0.37920  0.99687  0.31339  Biso   1.000  C
  C425     1.0000 0.72023  0.86523  0.49041  Biso   1.000  C
  C426     1.0000 0.52451  0.17691  0.64348  Biso   1.000  C
  C427     1.0000 0.66576  0.49598  0.17801  Biso   1.000  C
  C428     1.0000 0.32244  0.36531  0.00425  Biso   1.000  C
  C429     1.0000 0.52686  0.68517  0.85481  Biso   1.000  C
  C430     1.0000 0.16454  0.49693  0.31922  Biso   1.000  C
  C431     1.0000 0.82901  0.36212  0.51270  Biso   1.000  C
  C432     1.0000 0.02777  0.67937  0.64933  Biso   1.000  C
  C433     1.0000 0.00890  0.14354  0.82098  Biso   1.000  C
  C434     1.0000 0.84198  0.97902  0.14624  Biso   1.000  C
  C435     1.0000 0.18820  0.82783  0.99716  Biso   1.000  C
  C436     1.0000 0.53018  0.14381  0.67580  Biso   1.000  C
  C437     1.0000 0.34530  0.99611  0.34710  Biso   1.000  C
  C438     1.0000 0.69003  0.82934  0.49502  Biso   1.000  C
  C439     1.0000 0.51702  0.65399  0.82222  Biso   1.000  C
  C440     1.0000 0.69994  0.49414  0.14606  Biso   1.000  C
  C441     1.0000 0.35095  0.33063  0.99428  Biso   1.000  C
  C442     1.0000 0.02563  0.64646  0.68265  Biso   1.000  C
  C443     1.0000 0.19742  0.50022  0.35200  Biso   1.000  C
  C444     1.0000 0.85935  0.32722  0.51464  Biso   1.000  C
  C445     1.0000 0.04706  0.84535  0.17988  Biso   1.000  C
  C446     1.0000 0.20017  0.99272  0.84961  Biso   1.000  C
  C447     1.0000 0.85481  0.16292  0.00781  Biso   1.000  C
  C448     1.0000 0.52704  0.84910  0.32106  Biso   1.000  C
  C449     1.0000 0.70048  0.99064  0.64805  Biso   1.000  C
  C450     1.0000 0.35972  0.16804  0.49827  Biso   1.000  C
  C451     1.0000 0.50725  0.34861  0.17823  Biso   1.000  C
  C452     1.0000 0.33725  0.49192  0.85518  Biso   1.000  C
  C453     1.0000 0.68727  0.66233  0.00510  Biso   1.000  C
  C454     1.0000 0.00625  0.34672  0.31781  Biso   1.000  C
  C455     1.0000 0.83877  0.50237  0.64695  Biso   1.000  C
  C456     1.0000 0.18789  0.67294  0.48729  Biso   1.000  C
  C457     1.0000 0.03097  0.64693  0.31692  Biso   1.000  C
  C458     1.0000 0.33299  0.00442  0.64340  Biso   1.000  C
  C459     1.0000 0.65205  0.30031  0.99714  Biso   1.000  C
  C460     1.0000 0.52113  0.64611  0.18623  Biso   1.000  C
  C461     1.0000 0.83506  0.96893  0.84769  Biso   1.000  C
  C462     1.0000 0.16158  0.30918  0.49587  Biso   1.000  C
  C463     1.0000 0.52175  0.14386  0.31272  Biso   1.000  C
  C464     1.0000 0.20687  0.49451  0.64928  Biso   1.000  C
  C465     1.0000 0.89227  0.80281  0.00657  Biso   1.000  C
  C466     1.0000 0.03040  0.14318  0.18377  Biso   1.000  C
  C467     1.0000 0.70039  0.49896  0.84648  Biso   1.000  C
  C468     1.0000 0.39161  0.80795  0.48852  Biso   1.000  C
  C469     1.0000 0.02066  0.34518  0.68301  Biso   1.000  C
  C470     1.0000 0.70985  0.01339  0.34910  Biso   1.000  C
  C471     1.0000 0.39026  0.69040  0.01005  Biso   1.000  C
  C472     1.0000 0.51719  0.35179  0.81200  Biso   1.000  C
  C473     1.0000 0.20694  0.00649  0.14846  Biso   1.000  C
  C474     1.0000 0.88748  0.69221  0.49999  Biso   1.000  C
  C475     1.0000 0.50846  0.85090  0.68240  Biso   1.000  C
  C476     1.0000 0.83507  0.51028  0.34751  Biso   1.000  C
  C477     1.0000 0.15507  0.18860  0.98700  Biso   1.000  C
  C478     1.0000 0.00538  0.84817  0.82217  Biso   1.000  C
  C479     1.0000 0.33529  0.51360  0.15313  Biso   1.000  C
  C480     1.0000 0.65896  0.19199  0.50514  Biso   1.000  C
  C481     1.0000 0.40935  0.78188  0.48908  Biso   1.000  C
  C482     1.0000 0.51873  0.36844  0.78520  Biso   1.000  C
  C483     1.0000 0.80830  0.51356  0.36535  Biso   1.000  C
  C484     1.0000 0.91052  0.77748  0.01066  Biso   1.000  C
  C485     1.0000 0.02268  0.36282  0.70907  Biso   1.000  C
  C486     1.0000 0.30904  0.52422  0.13819  Biso   1.000  C
  C487     1.0000 0.14404  0.28189  0.49896  Biso   1.000  C
  C488     1.0000 0.00242  0.86274  0.79316  Biso   1.000  C
  C489     1.0000 0.73583  0.02211  0.36385  Biso   1.000  C
  C490     1.0000 0.63287  0.27612  0.00084  Biso   1.000  C
  C491     1.0000 0.49838  0.86816  0.70657  Biso   1.000  C
  C492     1.0000 0.23336  0.00981  0.13099  Biso   1.000  C
  C493     1.0000 0.64111  0.21830  0.50438  Biso   1.000  C
  C494     1.0000 0.52157  0.62845  0.21194  Biso   1.000  C
  C495     1.0000 0.23485  0.49847  0.63371  Biso   1.000  C
  C496     1.0000 0.13658  0.21404  0.99186  Biso   1.000  C
  C497     1.0000 0.02926  0.63011  0.29030  Biso   1.000  C
  C498     1.0000 0.72692  0.49413  0.86250  Biso   1.000  C
  C499     1.0000 0.90479  0.71883  0.50003  Biso   1.000  C
  C500     1.0000 0.03334  0.12654  0.20989  Biso   1.000  C
  C501     1.0000 0.30589  0.99747  0.62617  Biso   1.000  C
  C502     1.0000 0.40777  0.71728  0.01218  Biso   1.000  C
  C503     1.0000 0.52518  0.12794  0.28652  Biso   1.000  C
  C504     1.0000 0.80778  0.96563  0.86421  Biso   1.000  C
  C505     1.0000 0.65166  0.51489  0.79029  Biso   1.000  C
  C506     1.0000 0.82619  0.64441  0.49630  Biso   1.000  C
  C507     1.0000 0.53167  0.79150  0.63637  Biso   1.000  C
  C508     1.0000 0.15614  0.48800  0.70691  Biso   1.000  C
  C509     1.0000 0.32653  0.64767  0.01395  Biso   1.000  C
  C510     1.0000 0.01062  0.78714  0.87105  Biso   1.000  C
  C511     1.0000 0.88443  0.97551  0.78542  Biso   1.000  C
  C512     1.0000 0.72277  0.14842  0.51437  Biso   1.000  C
  C513     1.0000 0.01498  0.28468  0.63294  Biso   1.000  C
  C514     1.0000 0.38029  0.01687  0.70111  Biso   1.000  C
  C515     1.0000 0.22019  0.14763  0.99005  Biso   1.000  C
  C516     1.0000 0.51267  0.29164  0.85853  Biso   1.000  C
  C517     1.0000 0.38497  0.50104  0.20960  Biso   1.000  C
  C518     1.0000 0.22466  0.35572  0.49077  Biso   1.000  C
  C519     1.0000 0.50865  0.20477  0.35842  Biso   1.000  C
  C520     1.0000 0.88608  0.50910  0.28803  Biso   1.000  C
  C521     1.0000 0.71509  0.34514  0.99297  Biso   1.000  C
  C522     1.0000 0.02116  0.20084  0.13371  Biso   1.000  C
  C523     1.0000 0.15804  0.99170  0.20991  Biso   1.000  C
  C524     1.0000 0.33006  0.85228  0.48383  Biso   1.000  C
  C525     1.0000 0.03847  0.70911  0.36491  Biso   1.000  C
  C526     1.0000 0.66234  0.99157  0.29223  Biso   1.000  C
  C527     1.0000 0.82655  0.84237  0.99401  Biso   1.000  C
  C528     1.0000 0.52688  0.70804  0.13849  Biso   1.000  C
  C529     1.0000 0.79923  0.11043  0.99810  Biso   1.000  C
  C530     1.0000 0.06153  0.78682  0.13046  Biso   1.000  C
  C531     1.0000 0.15075  0.99548  0.79031  Biso   1.000  C
  C532     1.0000 0.30217  0.11615  0.49884  Biso   1.000  C
  C533     1.0000 0.52810  0.79162  0.37096  Biso   1.000  C
  C534     1.0000 0.64648  0.97626  0.70446  Biso   1.000  C
  C535     1.0000 0.74513  0.60980  0.99156  Biso   1.000  C
  C536     1.0000 0.48772  0.29062  0.12964  Biso   1.000  C
  C537     1.0000 0.38594  0.48963  0.79482  Biso   1.000  C
  C538     1.0000 0.24385  0.62033  0.47296  Biso   1.000  C
  C539     1.0000 0.00801  0.28536  0.36548  Biso   1.000  C
  C540     1.0000 0.88886  0.50363  0.70736  Biso   1.000  C
  C541     1.0000 0.24275  0.88189  0.00592  Biso   1.000  C
  C542     1.0000 0.00134  0.20452  0.86825  Biso   1.000  C
  C543     1.0000 0.88996  0.99452  0.20551  Biso   1.000  C
  C544     1.0000 0.74533  0.88385  0.48756  Biso   1.000  C
  C545     1.0000 0.51822  0.20398  0.62844  Biso   1.000  C
  C546     1.0000 0.39609  0.99511  0.28682  Biso   1.000  C
  C547     1.0000 0.29703  0.38239  0.01245  Biso   1.000  C
  C548     1.0000 0.53396  0.71017  0.87203  Biso   1.000  C
  C549     1.0000 0.64728  0.49834  0.20484  Biso   1.000  C
  C550     1.0000 0.80218  0.37903  0.51048  Biso   1.000  C
  C551     1.0000 0.02691  0.70662  0.63497  Biso   1.000  C
  C552     1.0000 0.14938  0.49084  0.29167  Biso   1.000  C
  C553     1.0000 0.01187  0.12791  0.79443  Biso   1.000  C
  C554     1.0000 0.81429  0.97384  0.13042  Biso   1.000  C
  C555     1.0000 0.17597  0.79861  0.99230  Biso   1.000  C
  C556     1.0000 0.53384  0.12696  0.70141  Biso   1.000  C
  C557     1.0000 0.31771  0.99643  0.36269  Biso   1.000  C
  C558     1.0000 0.67824  0.80153  0.50052  Biso   1.000  C
  C559     1.0000 0.51234  0.64021  0.79558  Biso   1.000  C
  C560     1.0000 0.72895  0.48565  0.13093  Biso   1.000  C
  C561     1.0000 0.36632  0.30397  0.98640  Biso   1.000  C
  C562     1.0000 0.02295  0.63034  0.71122  Biso   1.000  C
  C563     1.0000 0.22478  0.50380  0.36811  Biso   1.000  C
  C564     1.0000 0.87427  0.30003  0.51988  Biso   1.000  C
  C565     1.0000 0.04510  0.86270  0.20699  Biso   1.000  C
  C566     1.0000 0.22875  0.99382  0.86681  Biso   1.000  C
  C567     1.0000 0.86802  0.19151  0.01123  Biso   1.000  C
  C568     1.0000 0.53061  0.86376  0.29314  Biso   1.000  C
  C569     1.0000 0.72774  0.99887  0.63529  Biso   1.000  C
  C570     1.0000 0.37507  0.19753  0.49820  Biso   1.000  C
  C571     1.0000 0.51276  0.36433  0.20445  Biso   1.000  C
  C572     1.0000 0.31000  0.49204  0.87192  Biso   1.000  C
  C573     1.0000 0.67286  0.69072  0.00781  Biso   1.000  C
  C574     1.0000 0.00774  0.36292  0.29040  Biso   1.000  C
  C575     1.0000 0.81293  0.49981  0.63022  Biso   1.000  C
  C576     1.0000 0.17405  0.70049  0.49149  Biso   1.000  C
  C577     1.0000 0.30840  0.52669  0.10626  Biso   1.000  C
  C578     1.0000 0.11173  0.28208  0.50117  Biso   1.000  C
  C579     1.0000 0.52928  0.09641  0.28707  Biso   1.000  C
  C580     1.0000 0.81100  0.51218  0.39655  Biso   1.000  C
  C581     1.0000 0.60097  0.27873  0.99876  Biso   1.000  C
  C582     1.0000 0.02976  0.09439  0.21008  Biso   1.000  C
  C583     1.0000 0.23139  0.01323  0.09978  Biso   1.000  C
  C584     1.0000 0.44156  0.78306  0.49330  Biso   1.000  C
  C585     1.0000 0.02573  0.59909  0.29298  Biso   1.000  C
  C586     1.0000 0.73459  0.02878  0.39565  Biso   1.000  C
  C587     1.0000 0.94284  0.78146  0.01234  Biso   1.000  C
  C588     1.0000 0.52209  0.59634  0.21019  Biso   1.000  C
  C589     1.0000 0.72872  0.48858  0.89241  Biso   1.000  C
  C590     1.0000 0.93690  0.71717  0.50002  Biso   1.000  C
  C591     1.0000 0.49574  0.89971  0.70556  Biso   1.000  C
  C592     1.0000 0.23462  0.49558  0.60257  Biso   1.000  C
  C593     1.0000 0.43969  0.71665  0.00973  Biso   1.000  C
  C594     1.0000 0.00417  0.89283  0.79184  Biso   1.000  C
  C595     1.0000 0.80733  0.96381  0.89595  Biso   1.000  C
  C596     1.0000 0.61074  0.21553  0.49462  Biso   1.000  C
  C597     1.0000 0.02500  0.39414  0.70652  Biso   1.000  C
  C598     1.0000 0.30827  0.99107  0.59420  Biso   1.000  C
  C599     1.0000 0.10520  0.21083  0.99361  Biso   1.000  C
  C600     1.0000 0.52039  0.39953  0.78776  Biso   1.000  C
  C601     1.0000 0.22745  0.99643  0.89700  Biso   1.000  C
  C602     1.0000 0.90068  0.19299  0.00988  Biso   1.000  C
  C603     1.0000 0.04084  0.89365  0.20570  Biso   1.000  C
  C604     1.0000 0.72809  0.00507  0.60383  Biso   1.000  C
  C605     1.0000 0.40671  0.19846  0.49637  Biso   1.000  C
  C606     1.0000 0.53251  0.89600  0.29284  Biso   1.000  C
  C607     1.0000 0.31070  0.49532  0.90326  Biso   1.000  C
  C608     1.0000 0.64159  0.69189  0.00715  Biso   1.000  C
  C609     1.0000 0.52019  0.39501  0.20456  Biso   1.000  C
  C610     1.0000 0.81345  0.49917  0.59933  Biso   1.000  C
  C611     1.0000 0.14431  0.70206  0.49848  Biso   1.000  C
  C612     1.0000 0.01040  0.39438  0.29128  Biso   1.000  C
  C613     1.0000 0.81586  0.97541  0.09892  Biso   1.000  C
  C614     1.0000 0.14466  0.79617  0.98577  Biso   1.000  C
  C615     1.0000 0.01196  0.09516  0.79345  Biso   1.000  C
  C616     1.0000 0.31555  0.99575  0.39418  Biso   1.000  C
  C617     1.0000 0.64600  0.79870  0.50067  Biso   1.000  C
  C618     1.0000 0.53749  0.09566  0.69947  Biso   1.000  C
  C619     1.0000 0.72767  0.48188  0.09999  Biso   1.000  C
  C620     1.0000 0.39754  0.30393  0.98339  Biso   1.000  C
  C621     1.0000 0.51307  0.60838  0.79327  Biso   1.000  C
  C622     1.0000 0.22486  0.50226  0.39934  Biso   1.000  C
  C623     1.0000 0.90627  0.29767  0.52072  Biso   1.000  C
  C624     1.0000 0.02192  0.59835  0.70846  Biso   1.000  C
  C625     1.0000 0.00060  0.20498  0.89853  Biso   1.000  C
  C626     1.0000 0.92222  0.99765  0.20488  Biso   1.000  C
  C627     1.0000 0.23923  0.91343  0.00436  Biso   1.000  C
  C628     1.0000 0.51386  0.20424  0.59656  Biso   1.000  C
  C629     1.0000 0.42718  0.99539  0.28818  Biso   1.000  C
  C630     1.0000 0.74006  0.91588  0.48600  Biso   1.000  C
  C631     1.0000 0.54346  0.70747  0.90277  Biso   1.000  C
  C632     1.0000 0.61565  0.50207  0.20384  Biso   1.000  C
  C633     1.0000 0.30070  0.41380  0.01791  Biso   1.000  C
  C634     1.0000 0.02848  0.70630  0.60268  Biso   1.000  C
  C635     1.0000 0.11752  0.48552  0.29298  Biso   1.000  C
  C636     1.0000 0.80274  0.40992  0.50534  Biso   1.000  C
  C637     1.0000 0.06167  0.78787  0.10043  Biso   1.000  C
  C638     1.0000 0.11876  0.99322  0.79016  Biso   1.000  C
  C639     1.0000 0.80400  0.08066  0.99196  Biso   1.000  C
  C640     1.0000 0.53276  0.79355  0.40273  Biso   1.000  C
  C641     1.0000 0.61545  0.97542  0.70264  Biso   1.000  C
  C642     1.0000 0.30398  0.08465  0.49873  Biso   1.000  C
  C643     1.0000 0.48635  0.29162  0.09857  Biso   1.000  C
  C644     1.0000 0.41652  0.49608  0.79390  Biso   1.000  C
  C645     1.0000 0.74264  0.57900  0.99112  Biso   1.000  C
  C646     1.0000 0.01060  0.28437  0.39768  Biso   1.000  C
  C647     1.0000 0.91978  0.50313  0.70565  Biso   1.000  C
  C648     1.0000 0.24177  0.58776  0.47675  Biso   1.000  C
  C649     1.0000 0.04117  0.70873  0.39572  Biso   1.000  C
  C650     1.0000 0.41156  0.01745  0.69953  Biso   1.000  C
  C651     1.0000 0.71688  0.37595  0.99348  Biso   1.000  C
  C652     1.0000 0.52651  0.70755  0.10608  Biso   1.000  C
  C653     1.0000 0.91551  0.97838  0.78741  Biso   1.000  C
  C654     1.0000 0.22297  0.38732  0.49299  Biso   1.000  C
  C655     1.0000 0.50779  0.20492  0.38999  Biso   1.000  C
  C656     1.0000 0.12419  0.48392  0.70482  Biso   1.000  C
  C657     1.0000 0.82208  0.87338  0.99322  Biso   1.000  C
  C658     1.0000 0.01900  0.19854  0.10163  Biso   1.000  C
  C659     1.0000 0.62006  0.51567  0.79097  Biso   1.000  C
  C660     1.0000 0.33011  0.88429  0.48187  Biso   1.000  C
  C661     1.0000 0.01424  0.28518  0.60145  Biso   1.000  C
  C662     1.0000 0.63048  0.98827  0.29323  Biso   1.000  C
  C663     1.0000 0.32344  0.61599  0.00985  Biso   1.000  C
  C664     1.0000 0.51070  0.28890  0.89025  Biso   1.000  C
  C665     1.0000 0.12672  0.99166  0.21094  Biso   1.000  C
  C666     1.0000 0.82341  0.61301  0.49380  Biso   1.000  C
  C667     1.0000 0.54144  0.79276  0.60652  Biso   1.000  C
  C668     1.0000 0.91868  0.51044  0.28997  Biso   1.000  C
  C669     1.0000 0.22283  0.11722  0.99312  Biso   1.000  C
  C670     1.0000 0.01669  0.78660  0.90167  Biso   1.000  C
  C671     1.0000 0.41618  0.49934  0.20884  Biso   1.000  C
  C672     1.0000 0.72494  0.11602  0.51437  Biso   1.000  C
  C673     1.0000 0.21351  0.99510  0.80204  Biso   1.000  C
  C674     1.0000 0.80637  0.17384  0.00746  Biso   1.000  C
  C675     1.0000 0.05050  0.79884  0.19313  Biso   1.000  C
  C676     1.0000 0.71112  0.97951  0.69382  Biso   1.000  C
  C677     1.0000 0.31312  0.17913  0.49930  Biso   1.000  C
  C678     1.0000 0.52457  0.80246  0.30749  Biso   1.000  C
  C679     1.0000 0.32297  0.48566  0.80727  Biso   1.000  C
  C680     1.0000 0.73423  0.67535  0.00158  Biso   1.000  C
  C681     1.0000 0.49861  0.30235  0.19207  Biso   1.000  C
  C682     1.0000 0.82550  0.50428  0.69519  Biso   1.000  C
  C683     1.0000 0.23529  0.68480  0.47906  Biso   1.000  C
  C684     1.0000 0.00906  0.30054  0.30281  Biso   1.000  C
  C685     1.0000 0.82673  0.98671  0.19115  Biso   1.000  C
  C686     1.0000 0.23489  0.81894  0.00325  Biso   1.000  C
  C687     1.0000 0.00867  0.19001  0.80600  Biso   1.000  C
  C688     1.0000 0.33374  0.99710  0.29971  Biso   1.000  C
  C689     1.0000 0.73684  0.81910  0.48777  Biso   1.000  C
  C690     1.0000 0.53033  0.19104  0.68967  Biso   1.000  C
  C691     1.0000 0.71213  0.49431  0.19356  Biso   1.000  C
  C692     1.0000 0.30324  0.31910  0.99599  Biso   1.000  C
  C693     1.0000 0.51666  0.70087  0.80996  Biso   1.000  C
  C694     1.0000 0.21063  0.50409  0.30580  Biso   1.000  C
  C695     1.0000 0.81165  0.31736  0.51742  Biso   1.000  C
  C696     1.0000 0.02214  0.69156  0.69697  Biso   1.000  C
  C697     1.0000 0.72427  0.00787  0.30313  Biso   1.000  C
  C698     1.0000 0.34385  0.70759  0.01518  Biso   1.000  C
  C699     1.0000 0.02026  0.29833  0.69533  Biso   1.000  C
  C700     1.0000 0.22411  0.00231  0.19330  Biso   1.000  C
  C701     1.0000 0.84291  0.70673  0.49303  Biso   1.000  C
  C702     1.0000 0.51870  0.30604  0.79563  Biso   1.000  C
  C703     1.0000 0.82076  0.50641  0.30172  Biso   1.000  C
  C704     1.0000 0.20010  0.20694  0.98510  Biso   1.000  C
  C705     1.0000 0.51309  0.80541  0.69827  Biso   1.000  C
  C706     1.0000 0.31981  0.51031  0.19895  Biso   1.000  C
  C707     1.0000 0.70311  0.21060  0.51148  Biso   1.000  C
  C708     1.0000 0.00690  0.80115  0.80967  Biso   1.000  C
  C709     1.0000 0.31882  0.00773  0.69107  Biso   1.000  C
  C710     1.0000 0.69645  0.28266  0.00114  Biso   1.000  C
  C711     1.0000 0.03697  0.69363  0.30309  Biso   1.000  C
  C712     1.0000 0.82183  0.96811  0.79904  Biso   1.000  C
  C713     1.0000 0.20918  0.29391  0.49187  Biso   1.000  C
  C714     1.0000 0.52259  0.69320  0.20077  Biso   1.000  C
  C715     1.0000 0.21853  0.49113  0.69703  Biso   1.000  C
  C716     1.0000 0.84852  0.78287  0.00023  Biso   1.000  C
  C717     1.0000 0.51443  0.18954  0.29670  Biso   1.000  C
  C718     1.0000 0.71624  0.50452  0.80069  Biso   1.000  C
  C719     1.0000 0.34643  0.79167  0.48214  Biso   1.000  C
  C720     1.0000 0.02809  0.19087  0.19476  Biso   1.000  C
  C721     1.0000 0.50579  0.80595  0.28135  Biso   1.000  C
  C722     1.0000 0.32557  0.50047  0.77947  Biso   1.000  C
  C723     1.0000 0.78481  0.32275  0.53542  Biso   1.000  C
  C724     1.0000 0.07080  0.77452  0.19402  Biso   1.000  C
  C725     1.0000 0.79712  0.52060  0.69095  Biso   1.000  C
  C726     1.0000 0.27599  0.32610  0.98175  Biso   1.000  C
  C727     1.0000 0.99066  0.27460  0.30154  Biso   1.000  C
  C728     1.0000 0.23881  0.01340  0.80578  Biso   1.000  C
  C729     1.0000 0.76617  0.82329  0.50040  Biso   1.000  C
  C730     1.0000 0.48691  0.30783  0.22245  Biso   1.000  C
  C731     1.0000 0.73738  0.96231  0.68642  Biso   1.000  C
  C732     1.0000 0.26593  0.82259  0.99480  Biso   1.000  C
  C733     1.0000 0.51834  0.18760  0.71995  Biso   1.000  C
  C734     1.0000 0.70486  0.47961  0.22138  Biso   1.000  C
  C735     1.0000 0.23071  0.71288  0.46572  Biso   1.000  C
  C736     1.0000 0.02472  0.21761  0.81001  Biso   1.000  C
  C737     1.0000 0.23946  0.49289  0.30974  Biso   1.000  C
  C738     1.0000 0.76307  0.66871  0.01573  Biso   1.000  C
  C739     1.0000 0.03653  0.69019  0.72495  Biso   1.000  C
  C740     1.0000 0.79963  0.96868  0.19219  Biso   1.000  C
  C741     1.0000 0.28830  0.17657  0.47943  Biso   1.000  C
  C742     1.0000 0.49621  0.69774  0.78638  Biso   1.000  C
  C743     1.0000 0.30768  0.97822  0.29851  Biso   1.000  C
  C744     1.0000 0.80595  0.19998  0.02527  Biso   1.000  C
  C745     1.0000 0.05827  0.71627  0.30471  Biso   1.000  C
  C746     1.0000 0.28729  0.01758  0.68675  Biso   1.000  C
  C747     1.0000 0.72609  0.28835  0.01240  Biso   1.000  C
  C748     1.0000 0.53783  0.72116  0.19611  Biso   1.000  C
  C749     1.0000 0.79626  0.94973  0.80283  Biso   1.000  C
  C750     1.0000 0.23593  0.29777  0.50680  Biso   1.000  C
  C751     1.0000 0.53222  0.19211  0.27174  Biso   1.000  C
  C752     1.0000 0.24683  0.47786  0.69233  Biso   1.000  C
  C753     1.0000 0.82630  0.77965  0.97666  Biso   1.000  C
  C754     1.0000 0.03991  0.22074  0.18998  Biso   1.000  C
  C755     1.0000 0.71130  0.49337  0.77279  Biso   1.000  C
  C756     1.0000 0.34544  0.76683  0.50262  Biso   1.000  C
  C757     1.0000 0.00499  0.27001  0.69215  Biso   1.000  C
  C758     1.0000 0.71701  0.01749  0.27395  Biso   1.000  C
  C759     1.0000 0.31983  0.70961  0.03750  Biso   1.000  C
  C760     1.0000 0.53975  0.30905  0.77292  Biso   1.000  C
  C761     1.0000 0.25163  0.98676  0.18561  Biso   1.000  C
  C762     1.0000 0.85024  0.73302  0.47729  Biso   1.000  C
  C763     1.0000 0.50367  0.77596  0.69399  Biso   1.000  C
  C764     1.0000 0.79039  0.51972  0.30359  Biso   1.000  C
  C765     1.0000 0.22231  0.20710  0.00629  Biso   1.000  C
  C766     1.0000 0.98789  0.80150  0.78404  Biso   1.000  C
  C767     1.0000 0.32592  0.52188  0.22685  Biso   1.000  C
  C768     1.0000 0.70388  0.23525  0.49215  Biso   1.000  C
  C769     1.0000 0.53420  0.72797  0.81184  Biso   1.000  C
  C770     1.0000 0.83019  0.48759  0.72189  Biso   1.000  C
  C771     1.0000 0.73330  0.78979  0.47245  Biso   1.000  C
  C772     1.0000 0.00500  0.71637  0.69349  Biso   1.000  C
  C773     1.0000 0.29580  0.46887  0.81217  Biso   1.000  C
  C774     1.0000 0.22879  0.79236  0.01964  Biso   1.000  C
  C775     1.0000 0.99947  0.18577  0.77573  Biso   1.000  C
  C776     1.0000 0.70871  0.99209  0.72300  Biso   1.000  C
  C777     1.0000 0.81322  0.28766  0.50277  Biso   1.000  C
  C778     1.0000 0.54389  0.22000  0.68452  Biso   1.000  C
  C779     1.0000 0.21057  0.97677  0.77614  Biso   1.000  C
  C780     1.0000 0.30857  0.28875  0.00511  Biso   1.000  C
  C781     1.0000 0.50728  0.27353  0.18416  Biso   1.000  C
  C782     1.0000 0.20518  0.52055  0.28060  Biso   1.000  C
  C783     1.0000 0.31463  0.20527  0.51767  Biso   1.000  C
  C784     1.0000 0.03107  0.30415  0.27990  Biso   1.000  C
  C785     1.0000 0.73964  0.50957  0.19058  Biso   1.000  C
  C786     1.0000 0.78129  0.16963  0.98924  Biso   1.000  C
  C787     1.0000 0.02762  0.79972  0.21483  Biso   1.000  C
  C788     1.0000 0.33764  0.01651  0.27444  Biso   1.000  C
  C789     1.0000 0.26588  0.67952  0.49255  Biso   1.000  C
  C790     1.0000 0.54077  0.77573  0.31186  Biso   1.000  C
  C791     1.0000 0.82993  0.01091  0.21145  Biso   1.000  C
  C792     1.0000 0.73165  0.70289  0.98637  Biso   1.000  C
  C793     1.0000 0.49217  0.21119  0.30042  Biso   1.000  C
  C794     1.0000 0.28943  0.50223  0.19201  Biso   1.000  C
  C795     1.0000 0.20381  0.26833  0.47536  Biso   1.000  C
  C796     1.0000 0.01444  0.18494  0.22371  Biso   1.000  C
  C797     1.0000 0.82477  0.48613  0.27651  Biso   1.000  C
  C798     1.0000 0.69138  0.25346  0.99187  Biso   1.000  C
  C799     1.0000 0.02045  0.69301  0.27682  Biso   1.000  C
  C800     1.0000 0.22150  0.01557  0.22284  Biso   1.000  C
  C801     1.0000 0.32456  0.79250  0.45934  Biso   1.000  C
  C802     1.0000 0.50648  0.68807  0.22827  Biso   1.000  C
  C803     1.0000 0.75412  0.99583  0.30792  Biso   1.000  C
  C804     1.0000 0.84953  0.75987  0.02123  Biso   1.000  C
  C805     1.0000 0.52074  0.81277  0.72876  Biso   1.000  C
  C806     1.0000 0.74471  0.51649  0.80387  Biso   1.000  C
  C807     1.0000 0.81395  0.70482  0.50783  Biso   1.000  C
  C808     1.0000 0.02551  0.77635  0.81130  Biso   1.000  C
  C809     1.0000 0.21303  0.50272  0.72665  Biso   1.000  C
  C810     1.0000 0.34415  0.73255  0.99467  Biso   1.000  C
  C811     1.0000 0.03363  0.30417  0.72314  Biso   1.000  C
  C812     1.0000 0.82458  0.98401  0.77190  Biso   1.000  C
  C813     1.0000 0.72394  0.20896  0.53477  Biso   1.000  C
  C814     1.0000 0.50148  0.28004  0.79589  Biso   1.000  C
  C815     1.0000 0.32412  0.99287  0.71776  Biso   1.000  C
  C816     1.0000 0.19623  0.23301  0.96808  Biso   1.000  C
  C817     1.0000 0.02757  0.23851  0.78862  Biso   1.000  C
  C818     1.0000 0.77836  0.97543  0.21294  Biso   1.000  C
  C819     1.0000 0.28745  0.80177  0.00226  Biso   1.000  C
  C820     1.0000 0.51803  0.21138  0.73931  Biso   1.000  C
  C821     1.0000 0.28785  0.97969  0.27672  Biso   1.000  C
  C822     1.0000 0.78712  0.80070  0.49987  Biso   1.000  C
  C823     1.0000 0.49457  0.72028  0.76826  Biso   1.000  C
  C824     1.0000 0.72596  0.47794  0.24209  Biso   1.000  C
  C825     1.0000 0.25322  0.30603  0.97997  Biso   1.000  C
  C826     1.0000 0.03238  0.71062  0.74704  Biso   1.000  C
  C827     1.0000 0.26057  0.49603  0.28782  Biso   1.000  C
  C828     1.0000 0.76275  0.30041  0.53675  Biso   1.000  C
  C829     1.0000 0.06944  0.75449  0.21543  Biso   1.000  C
  C830     1.0000 0.25940  0.01519  0.78274  Biso   1.000  C
  C831     1.0000 0.78452  0.21923  0.02537  Biso   1.000  C
  C832     1.0000 0.50553  0.78359  0.26175  Biso   1.000  C
  C833     1.0000 0.75823  0.95743  0.70873  Biso   1.000  C
  C834     1.0000 0.26660  0.19920  0.47750  Biso   1.000  C
  C835     1.0000 0.49047  0.28609  0.24227  Biso   1.000  C
  C836     1.0000 0.30436  0.50030  0.75791  Biso   1.000  C
  C837     1.0000 0.78588  0.68921  0.01582  Biso   1.000  C
  C838     1.0000 0.99563  0.25298  0.28139  Biso   1.000  C
  C839     1.0000 0.77572  0.52020  0.71265  Biso   1.000  C
  C840     1.0000 0.25300  0.73286  0.46392  Biso   1.000  C
  C841     1.0000 0.23066  0.97856  0.75427  Biso   1.000  C
  C842     1.0000 0.75808  0.18956  0.99061  Biso   1.000  C
  C843     1.0000 0.02634  0.77821  0.23581  Biso   1.000  C
  C844     1.0000 0.72949  0.98450  0.74351  Biso   1.000  C
  C845     1.0000 0.29386  0.22710  0.51433  Biso   1.000  C
  C846     1.0000 0.53660  0.75263  0.29244  Biso   1.000  C
  C847     1.0000 0.27420  0.46837  0.78992  Biso   1.000  C
  C848     1.0000 0.75386  0.72218  0.98914  Biso   1.000  C
  C849     1.0000 0.50857  0.25268  0.20568  Biso   1.000  C
  C850     1.0000 0.80791  0.48833  0.74046  Biso   1.000  C
  C851     1.0000 0.28677  0.70048  0.49107  Biso   1.000  C
  C852     1.0000 0.03593  0.28203  0.26047  Biso   1.000  C
  C853     1.0000 0.80981  0.01232  0.23352  Biso   1.000  C
  C854     1.0000 0.25103  0.77319  0.02804  Biso   1.000  C
  C855     1.0000 0.00164  0.20681  0.75428  Biso   1.000  C
  C856     1.0000 0.31813  0.01469  0.25174  Biso   1.000  C
  C857     1.0000 0.75499  0.76945  0.47210  Biso   1.000  C
  C858     1.0000 0.54243  0.24230  0.70478  Biso   1.000  C
  C859     1.0000 0.76065  0.50456  0.21185  Biso   1.000  C
  C860     1.0000 0.28704  0.26823  0.99881  Biso   1.000  C
  C861     1.0000 0.53067  0.74954  0.79187  Biso   1.000  C
  C862     1.0000 0.22741  0.52369  0.26016  Biso   1.000  C
  C863     1.0000 0.78986  0.26752  0.50500  Biso   1.000  C
  C864     1.0000 0.00236  0.73791  0.71466  Biso   1.000  C
  C865     1.0000 0.73267  0.49198  0.75147  Biso   1.000  C
  C866     1.0000 0.82901  0.75495  0.47457  Biso   1.000  C
  C867     1.0000 0.50345  0.75494  0.71691  Biso   1.000  C
  C868     1.0000 0.26666  0.47534  0.71385  Biso   1.000  C
  C869     1.0000 0.30032  0.73169  0.03866  Biso   1.000  C
  C870     1.0000 0.98969  0.77967  0.76253  Biso   1.000  C
  C871     1.0000 0.77371  0.95093  0.78294  Biso   1.000  C
  C872     1.0000 0.72342  0.25700  0.49852  Biso   1.000  C
  C873     1.0000 0.00632  0.24929  0.71287  Biso   1.000  C
  C874     1.0000 0.26668  0.01384  0.70929  Biso   1.000  C
  C875     1.0000 0.24008  0.23115  0.00981  Biso   1.000  C
  C876     1.0000 0.54339  0.28689  0.75238  Biso   1.000  C
  C877     1.0000 0.30481  0.52248  0.24792  Biso   1.000  C
  C878     1.0000 0.25421  0.27465  0.50670  Biso   1.000  C
  C879     1.0000 0.52600  0.21450  0.25114  Biso   1.000  C
  C880     1.0000 0.76868  0.51058  0.28422  Biso   1.000  C
  C881     1.0000 0.74665  0.26600  0.01365  Biso   1.000  C
  C882     1.0000 0.03674  0.24106  0.21200  Biso   1.000  C
  C883     1.0000 0.27367  0.98668  0.20608  Biso   1.000  C
  C884     1.0000 0.32238  0.74763  0.50120  Biso   1.000  C
  C885     1.0000 0.05951  0.73999  0.28474  Biso   1.000  C
  C886     1.0000 0.73734  0.01524  0.25046  Biso   1.000  C
  C887     1.0000 0.80782  0.75585  0.97732  Biso   1.000  C
  C888     1.0000 0.53547  0.74253  0.21678  Biso   1.000  C
  C889     1.0000 0.77239  0.99464  0.28398  Biso   1.000  C
  C890     1.0000 0.32302  0.75491  0.99752  Biso   1.000  C
  C891     1.0000 0.03253  0.28369  0.74452  Biso   1.000  C
  C892     1.0000 0.24520  0.01305  0.24221  Biso   1.000  C
  C893     1.0000 0.79495  0.72816  0.50686  Biso   1.000  C
  C894     1.0000 0.50619  0.25901  0.77422  Biso   1.000  C
  C895     1.0000 0.80268  0.48219  0.25752  Biso   1.000  C
  C896     1.0000 0.21568  0.25595  0.97025  Biso   1.000  C
  C897     1.0000 0.51963  0.79256  0.75100  Biso   1.000  C
  C898     1.0000 0.26791  0.50442  0.21329  Biso   1.000  C
  C899     1.0000 0.74305  0.23133  0.54033  Biso   1.000  C
  C900     1.0000 0.02738  0.75602  0.78873  Biso   1.000  C
  C901     1.0000 0.30235  0.99024  0.73913  Biso   1.000  C
  C902     1.0000 0.71093  0.23166  0.99379  Biso   1.000  C
  C903     1.0000 0.02470  0.71450  0.25559  Biso   1.000  C
  C904     1.0000 0.80264  0.98192  0.75155  Biso   1.000  C
  C905     1.0000 0.22344  0.24506  0.47805  Biso   1.000  C
  C906     1.0000 0.50894  0.71011  0.24807  Biso   1.000  C
  C907     1.0000 0.23274  0.50085  0.74749  Biso   1.000  C
  C908     1.0000 0.82701  0.73774  0.02143  Biso   1.000  C
  C909     1.0000 0.48753  0.23345  0.28161  Biso   1.000  C
  C910     1.0000 0.76710  0.51514  0.78390  Biso   1.000  C
  C911     1.0000 0.30376  0.77120  0.45700  Biso   1.000  C
  C912     1.0000 0.01295  0.20628  0.24419  Biso   1.000  C
  C913     1.0000 0.78261  0.50228  0.73473  Biso   1.000  C
  C914     1.0000 0.78066  0.77457  0.48681  Biso   1.000  C
  C915     1.0000 0.51166  0.74491  0.76912  Biso   1.000  C
  C916     1.0000 0.27995  0.48307  0.76438  Biso   1.000  C
  C917     1.0000 0.27886  0.77692  0.01622  Biso   1.000  C
  C918     1.0000 0.01616  0.73467  0.74256  Biso   1.000  C
  C919     1.0000 0.75391  0.96819  0.73700  Biso   1.000  C
  C920     1.0000 0.76579  0.27410  0.52278  Biso   1.000  C
  C921     1.0000 0.01539  0.23300  0.76125  Biso   1.000  C
  C922     1.0000 0.25306  0.99886  0.75806  Biso   1.000  C
  C923     1.0000 0.25927  0.27831  0.98974  Biso   1.000  C
  C924     1.0000 0.53019  0.23767  0.73271  Biso   1.000  C
  C925     1.0000 0.25478  0.51271  0.26444  Biso   1.000  C
  C926     1.0000 0.27061  0.22347  0.49588  Biso   1.000  C
  C927     1.0000 0.50091  0.25880  0.23358  Biso   1.000  C
  C928     1.0000 0.75366  0.49034  0.23780  Biso   1.000  C
  C929     1.0000 0.76033  0.21468  0.00745  Biso   1.000  C
  C930     1.0000 0.01684  0.25765  0.25905  Biso   1.000  C
  C931     1.0000 0.29315  0.99811  0.25338  Biso   1.000  C
  C932     1.0000 0.27970  0.72678  0.47760  Biso   1.000  C
  C933     1.0000 0.04813  0.75755  0.23617  Biso   1.000  C
  C934     1.0000 0.78428  0.99826  0.23169  Biso   1.000  C
  C935     1.0000 0.78238  0.71505  0.00072  Biso   1.000  C
  C936     1.0000 0.52041  0.75787  0.26718  Biso   1.000  C
  C937     1.0000 0.73880  0.23941  0.00269  Biso   1.000  C
  C938     1.0000 0.04367  0.73684  0.26017  Biso   1.000  C
  C939     1.0000 0.27463  0.00153  0.73549  Biso   1.000  C
  C940     1.0000 0.25070  0.24836  0.49155  Biso   1.000  C
  C941     1.0000 0.52053  0.73686  0.24263  Biso   1.000  C
  C942     1.0000 0.77889  0.96616  0.75707  Biso   1.000  C
  C943     1.0000 0.80615  0.73578  0.00041  Biso   1.000  C
  C944     1.0000 0.50296  0.23403  0.25492  Biso   1.000  C
  C945     1.0000 0.25744  0.48384  0.74196  Biso   1.000  C
  C946     1.0000 0.30203  0.74918  0.47904  Biso   1.000  C
  C947     1.0000 0.02310  0.23417  0.23779  Biso   1.000  C
  C948     1.0000 0.76060  0.50165  0.75747  Biso   1.000  C
  C949     1.0000 0.30146  0.75482  0.01888  Biso   1.000  C
  C950     1.0000 0.01791  0.25658  0.73966  Biso   1.000  C
  C951     1.0000 0.76481  0.00518  0.25579  Biso   1.000  C
  C952     1.0000 0.80191  0.75250  0.48883  Biso   1.000  C
  C953     1.0000 0.52757  0.26295  0.75311  Biso   1.000  C
  C954     1.0000 0.26996  0.99994  0.23235  Biso   1.000  C
  C955     1.0000 0.23679  0.25475  0.99047  Biso   1.000  C
  C956     1.0000 0.51006  0.76443  0.74516  Biso   1.000  C
  C957     1.0000 0.77444  0.49271  0.26152  Biso   1.000  C
  C958     1.0000 0.74237  0.25378  0.52075  Biso   1.000  C
  C959     1.0000 0.00889  0.75713  0.76524  Biso   1.000  C
  C960     1.0000 0.27598  0.51557  0.24094  Biso   1.000  C
  Cu1      1.0000 0.02250  0.49595  0.65236  Biso   1.000  Cu
  Cu2      1.0000 0.67645  0.01124  0.49902  Biso   1.000  Cu
  Cu3      1.0000 0.53414  0.64877  0.00506  Biso   1.000  Cu
  Cu4      1.0000 0.51906  0.50161  0.84594  Biso   1.000  Cu
  Cu5      1.0000 0.17373  0.00881  0.99918  Biso   1.000  Cu
  Cu6      1.0000 0.03828  0.65666  0.49983  Biso   1.000  Cu
  Cu7      1.0000 0.51598  0.99567  0.64834  Biso   1.000  Cu
  Cu8      1.0000 0.86616  0.50814  0.49791  Biso   1.000  Cu
  Cu9      1.0000 0.00604  0.14733  0.00003  Biso   1.000  Cu
  Cu10     1.0000 0.01627  0.99325  0.84713  Biso   1.000  Cu
  Cu11     1.0000 0.36434  0.50981  0.00297  Biso   1.000  Cu
  Cu12     1.0000 0.51441  0.15354  0.49354  Biso   1.000  Cu
  Cu13     1.0000 0.01721  0.49715  0.34721  Biso   1.000  Cu
  Cu14     1.0000 0.36955  0.98852  0.49320  Biso   1.000  Cu
  Cu15     1.0000 0.50229  0.34600  0.99529  Biso   1.000  Cu
  Cu16     1.0000 0.51777  0.49684  0.14924  Biso   1.000  Cu
  Cu17     1.0000 0.86519  0.97969  0.99327  Biso   1.000  Cu
  Cu18     1.0000 0.01158  0.34304  0.49948  Biso   1.000  Cu
  Cu19     1.0000 0.53007  0.99861  0.34568  Biso   1.000  Cu
  Cu20     1.0000 0.17592  0.49279  0.50270  Biso   1.000  Cu
  Cu21     1.0000 0.03954  0.84243  0.99997  Biso   1.000  Cu
  Cu22     1.0000 0.02374  0.99500  0.15323  Biso   1.000  Cu
  Cu23     1.0000 0.67567  0.48133  0.99658  Biso   1.000  Cu
  Cu24     1.0000 0.53864  0.84685  0.50365  Biso   1.000  Cu
  Cu25     1.0000 0.22843  0.01239  0.99862  Biso   1.000  Cu
  Cu26     1.0000 0.99993  0.20303  0.00330  Biso   1.000  Cu
  Cu27     1.0000 0.02266  0.99245  0.20616  Biso   1.000  Cu
  Cu28     1.0000 0.72999  0.01568  0.49708  Biso   1.000  Cu
  Cu29     1.0000 0.50916  0.20696  0.49514  Biso   1.000  Cu
  Cu30     1.0000 0.52935  0.99560  0.28898  Biso   1.000  Cu
  Cu31     1.0000 0.31023  0.51521  0.00277  Biso   1.000  Cu
  Cu32     1.0000 0.54193  0.70424  0.00279  Biso   1.000  Cu
  Cu33     1.0000 0.51741  0.49470  0.20387  Biso   1.000  Cu
  Cu34     1.0000 0.81376  0.51386  0.49986  Biso   1.000  Cu
  Cu35     1.0000 0.04164  0.71069  0.50136  Biso   1.000  Cu
  Cu36     1.0000 0.01892  0.49588  0.29277  Biso   1.000  Cu
  Cu37     1.0000 0.81172  0.97588  0.99966  Biso   1.000  Cu
  Cu38     1.0000 0.04225  0.78907  0.99848  Biso   1.000  Cu
  Cu39     1.0000 0.01759  0.99659  0.79310  Biso   1.000  Cu
  Cu40     1.0000 0.31492  0.98269  0.49271  Biso   1.000  Cu
  Cu41     1.0000 0.54438  0.79280  0.50396  Biso   1.000  Cu
  Cu42     1.0000 0.51407  0.99797  0.70067  Biso   1.000  Cu
  Cu43     1.0000 0.72866  0.47586  0.99683  Biso   1.000  Cu
  Cu44     1.0000 0.49662  0.29163  0.99460  Biso   1.000  Cu
  Cu45     1.0000 0.51657  0.50488  0.79107  Biso   1.000  Cu
  Cu46     1.0000 0.22966  0.48689  0.49806  Biso   1.000  Cu
  Cu47     1.0000 0.00910  0.28871  0.49935  Biso   1.000  Cu
  Cu48     1.0000 0.02180  0.49395  0.70721  Biso   1.000  Cu
  H1       1.0000 0.32001  0.73197  0.51928  Biso   1.000  H
  H2       1.0000 0.55990  0.28895  0.73525  Biso   1.000  H
  H3       1.0000 0.74744  0.52139  0.28616  Biso   1.000  H
  H4       1.0000 0.79433  0.74962  0.95873  Biso   1.000  H
  H5       1.0000 0.99569  0.22848  0.70796  Biso   1.000  H
  H6       1.0000 0.31152  0.53017  0.26852  Biso   1.000  H
  H7       1.0000 0.27320  0.28112  0.52023  Biso   1.000  H
  H8       1.0000 0.97480  0.77679  0.74491  Biso   1.000  H
  H9       1.0000 0.73131  0.01826  0.22816  Biso   1.000  H
  H10      1.0000 0.76682  0.27054  0.02425  Biso   1.000  H
  H11      1.0000 0.50002  0.73285  0.71309  Biso   1.000  H
  H12      1.0000 0.29495  0.97420  0.20352  Biso   1.000  H
  H13      1.0000 0.72294  0.27815  0.48449  Biso   1.000  H
  H14      1.0000 0.54790  0.76216  0.21482  Biso   1.000  H
  H15      1.0000 0.28759  0.46635  0.71051  Biso   1.000  H
  H16      1.0000 0.25116  0.23466  0.02986  Biso   1.000  H
  H17      1.0000 0.07413  0.75831  0.28474  Biso   1.000  H
  H18      1.0000 0.72776  0.48379  0.73050  Biso   1.000  H
  H19      1.0000 0.83341  0.77239  0.45943  Biso   1.000  H
  H20      1.0000 0.04525  0.26155  0.20435  Biso   1.000  H
  H21      1.0000 0.24369  0.01726  0.70550  Biso   1.000  H
  H22      1.0000 0.28331  0.73002  0.05509  Biso   1.000  H
  H23      1.0000 0.54019  0.21676  0.23104  Biso   1.000  H
  H24      1.0000 0.75426  0.93868  0.78364  Biso   1.000  H
  H25      1.0000 0.27783  0.02948  0.78323  Biso   1.000  H
  H26      1.0000 0.78376  0.23794  0.03994  Biso   1.000  H
  H27      1.0000 0.08411  0.73526  0.21320  Biso   1.000  H
  H28      1.0000 0.77724  0.94517  0.70134  Biso   1.000  H
  H29      1.0000 0.25013  0.19831  0.46158  Biso   1.000  H
  H30      1.0000 0.49049  0.78830  0.24298  Biso   1.000  H
  H31      1.0000 0.30554  0.51326  0.73818  Biso   1.000  H
  H32      1.0000 0.80617  0.68385  0.02684  Biso   1.000  H
  H33      1.0000 0.48412  0.29140  0.26468  Biso   1.000  H
  H34      1.0000 0.75620  0.53184  0.71171  Biso   1.000  H
  H35      1.0000 0.25226  0.75322  0.45188  Biso   1.000  H
  H36      1.0000 0.98126  0.23510  0.28009  Biso   1.000  H
  H37      1.0000 0.75686  0.96424  0.21445  Biso   1.000  H
  H38      1.0000 0.30979  0.80492  0.99733  Biso   1.000  H
  H39      1.0000 0.03787  0.25828  0.79614  Biso   1.000  H
  H40      1.0000 0.26901  0.96617  0.27724  Biso   1.000  H
  H41      1.0000 0.80735  0.80176  0.51032  Biso   1.000  H
  H42      1.0000 0.50938  0.20709  0.76074  Biso   1.000  H
  H43      1.0000 0.72300  0.46287  0.26065  Biso   1.000  H
  H44      1.0000 0.23366  0.31373  0.96941  Biso   1.000  H
  H45      1.0000 0.47893  0.71989  0.75061  Biso   1.000  H
  H46      1.0000 0.28101  0.48563  0.29092  Biso   1.000  H
  H47      1.0000 0.74260  0.30685  0.54884  Biso   1.000  H
  H48      1.0000 0.04293  0.70744  0.76797  Biso   1.000  H
  H49      1.0000 0.22275  0.53565  0.24009  Biso   1.000  H
  H50      1.0000 0.29424  0.24667  0.52758  Biso   1.000  H
  H51      1.0000 0.51694  0.23206  0.19850  Biso   1.000  H
  H52      1.0000 0.78257  0.51277  0.20684  Biso   1.000  H
  H53      1.0000 0.74347  0.18967  0.97305  Biso   1.000  H
  H54      1.0000 0.05332  0.28604  0.24392  Biso   1.000  H
  H55      1.0000 0.31882  0.02784  0.23253  Biso   1.000  H
  H56      1.0000 0.30935  0.69558  0.49866  Biso   1.000  H
  H57      1.0000 0.00942  0.78003  0.25307  Biso   1.000  H
  H58      1.0000 0.81242  0.02742  0.25164  Biso   1.000  H
  H59      1.0000 0.75095  0.74235  0.97787  Biso   1.000  H
  H60      1.0000 0.54882  0.73347  0.29547  Biso   1.000  H
  H61      1.0000 0.80870  0.47224  0.75796  Biso   1.000  H
  H62      1.0000 0.75466  0.74970  0.45875  Biso   1.000  H
  H63      1.0000 0.54336  0.76795  0.79259  Biso   1.000  H
  H64      1.0000 0.25341  0.45910  0.79130  Biso   1.000  H
  H65      1.0000 0.24330  0.75510  0.04046  Biso   1.000  H
  H66      1.0000 0.98567  0.75431  0.71115  Biso   1.000  H
  H67      1.0000 0.72814  0.99096  0.76634  Biso   1.000  H
  H68      1.0000 0.79284  0.24791  0.49473  Biso   1.000  H
  H69      1.0000 0.99210  0.19991  0.73306  Biso   1.000  H
  H70      1.0000 0.22980  0.96614  0.73462  Biso   1.000  H
  H71      1.0000 0.29134  0.24562  0.00441  Biso   1.000  H
  H72      1.0000 0.55201  0.26302  0.69743  Biso   1.000  H
  H73      1.0000 0.78765  0.52473  0.78950  Biso   1.000  H
  H74      1.0000 0.77202  0.72378  0.51458  Biso   1.000  H
  H75      1.0000 0.52374  0.79730  0.77339  Biso   1.000  H
  H76      1.0000 0.22946  0.50902  0.76814  Biso   1.000  H
  H77      1.0000 0.32638  0.77146  0.98281  Biso   1.000  H
  H78      1.0000 0.04257  0.73974  0.79222  Biso   1.000  H
  H79      1.0000 0.80194  0.99560  0.73348  Biso   1.000  H
  H80      1.0000 0.75993  0.23400  0.55550  Biso   1.000  H
  H81      1.0000 0.04507  0.28650  0.76378  Biso   1.000  H
  H82      1.0000 0.30717  0.98109  0.76024  Biso   1.000  H
  H83      1.0000 0.21175  0.27292  0.95483  Biso   1.000  H
  H84      1.0000 0.49133  0.24046  0.77187  Biso   1.000  H
  H85      1.0000 0.24665  0.49614  0.20832  Biso   1.000  H
  H86      1.0000 0.21842  0.22550  0.46321  Biso   1.000  H
  H87      1.0000 0.47168  0.24920  0.28728  Biso   1.000  H
  H88      1.0000 0.80396  0.46888  0.23784  Biso   1.000  H
  H89      1.0000 0.70519  0.20953  0.99014  Biso   1.000  H
  H90      1.0000 0.00397  0.19899  0.26686  Biso   1.000  H
  H91      1.0000 0.24235  0.01914  0.26509  Biso   1.000  H
  H92      1.0000 0.29102  0.77227  0.43705  Biso   1.000  H
  H93      1.0000 0.01349  0.71556  0.23448  Biso   1.000  H
  H94      1.0000 0.79481  0.98760  0.28685  Biso   1.000  H
  H95      1.0000 0.82555  0.72205  0.03925  Biso   1.000  H
  H96      1.0000 0.49654  0.70592  0.26740  Biso   1.000  H
  H97      1.0000 0.88162  0.97245  0.90704  Biso   1.000  H
  H98      1.0000 0.94423  0.85660  0.00276  Biso   1.000  H
  H99      1.0000 0.01400  0.90791  0.86794  Biso   1.000  H
  H100     1.0000 0.38431  0.99450  0.58783  Biso   1.000  H
  H101     1.0000 0.44894  0.85702  0.49584  Biso   1.000  H
  H102     1.0000 0.51278  0.90807  0.63018  Biso   1.000  H
  H103     1.0000 0.65296  0.49002  0.90650  Biso   1.000  H
  H104     1.0000 0.60046  0.35544  0.99797  Biso   1.000  H
  H105     1.0000 0.51813  0.41021  0.86342  Biso   1.000  H
  H106     1.0000 0.16018  0.49018  0.59170  Biso   1.000  H
  H107     1.0000 0.10657  0.35886  0.50774  Biso   1.000  H
  H108     1.0000 0.02083  0.40108  0.63113  Biso   1.000  H
  H109     1.0000 0.15627  0.00713  0.09054  Biso   1.000  H
  H110     1.0000 0.10143  0.13447  0.99234  Biso   1.000  H
  H111     1.0000 0.01923  0.08445  0.13426  Biso   1.000  H
  H112     1.0000 0.65734  0.01890  0.40430  Biso   1.000  H
  H113     1.0000 0.60634  0.13956  0.49642  Biso   1.000  H
  H114     1.0000 0.53088  0.08526  0.36298  Biso   1.000  H
  H115     1.0000 0.38129  0.50847  0.09542  Biso   1.000  H
  H116     1.0000 0.44471  0.63984  0.99288  Biso   1.000  H
  H117     1.0000 0.52937  0.59268  0.13369  Biso   1.000  H
  H118     1.0000 0.88409  0.49716  0.40480  Biso   1.000  H
  H119     1.0000 0.94433  0.64183  0.50212  Biso   1.000  H
  H120     1.0000 0.02690  0.58636  0.36826  Biso   1.000  H
  H121     1.0000 0.10959  0.98829  0.86646  Biso   1.000  H
  H122     1.0000 0.87875  0.07483  0.99478  Biso   1.000  H
  H123     1.0000 0.05090  0.86260  0.08883  Biso   1.000  H
  H124     1.0000 0.61089  0.98367  0.62611  Biso   1.000  H
  H125     1.0000 0.38280  0.07748  0.48747  Biso   1.000  H
  H126     1.0000 0.52685  0.86830  0.41124  Biso   1.000  H
  H127     1.0000 0.42878  0.50593  0.86985  Biso   1.000  H
  H128     1.0000 0.66839  0.57100  0.00338  Biso   1.000  H
  H129     1.0000 0.50188  0.36667  0.08693  Biso   1.000  H
  H130     1.0000 0.93258  0.50580  0.63036  Biso   1.000  H
  H131     1.0000 0.16833  0.58757  0.49823  Biso   1.000  H
  H132     1.0000 0.01440  0.35996  0.41063  Biso   1.000  H
  H133     1.0000 0.93425  0.98911  0.12871  Biso   1.000  H
  H134     1.0000 0.16278  0.91679  0.99821  Biso   1.000  H
  H135     1.0000 0.00331  0.13062  0.91416  Biso   1.000  H
  H136     1.0000 0.43575  0.99352  0.36485  Biso   1.000  H
  H137     1.0000 0.66441  0.91683  0.48286  Biso   1.000  H
  H138     1.0000 0.51625  0.12916  0.58645  Biso   1.000  H
  H139     1.0000 0.60913  0.49566  0.12560  Biso   1.000  H
  H140     1.0000 0.37844  0.41443  0.00704  Biso   1.000  H
  H141     1.0000 0.53674  0.63135  0.90963  Biso   1.000  H
  H142     1.0000 0.10900  0.48920  0.36927  Biso   1.000  H
  H143     1.0000 0.88073  0.41924  0.50419  Biso   1.000  H
  H144     1.0000 0.02532  0.63014  0.59166  Biso   1.000  H
  H145     1.0000 0.60796  0.49733  0.86418  Biso   1.000  H
  H146     1.0000 0.90097  0.59936  0.49897  Biso   1.000  H
  H147     1.0000 0.53268  0.86780  0.59205  Biso   1.000  H
  H148     1.0000 0.11464  0.49200  0.62872  Biso   1.000  H
  H149     1.0000 0.39678  0.59703  0.99865  Biso   1.000  H
  H150     1.0000 0.01403  0.86227  0.91304  Biso   1.000  H
  H151     1.0000 0.92321  0.98343  0.86420  Biso   1.000  H
  H152     1.0000 0.64866  0.10026  0.50382  Biso   1.000  H
  H153     1.0000 0.02351  0.36101  0.58797  Biso   1.000  H
  H154     1.0000 0.42562  0.00440  0.62566  Biso   1.000  H
  H155     1.0000 0.14693  0.09850  0.99445  Biso   1.000  H
  H156     1.0000 0.51586  0.36384  0.90383  Biso   1.000  H
  H157     1.0000 0.42523  0.50564  0.13146  Biso   1.000  H
  H158     1.0000 0.14732  0.39686  0.50439  Biso   1.000  H
  H159     1.0000 0.51796  0.12963  0.40160  Biso   1.000  H
  H160     1.0000 0.92464  0.49615  0.36277  Biso   1.000  H
  H161     1.0000 0.64250  0.39132  0.99331  Biso   1.000  H
  H162     1.0000 0.02045  0.12269  0.09580  Biso   1.000  H
  H163     1.0000 0.11416  0.00242  0.13709  Biso   1.000  H
  H164     1.0000 0.40457  0.89567  0.49274  Biso   1.000  H
  H165     1.0000 0.03226  0.63391  0.40883  Biso   1.000  H
  H166     1.0000 0.61926  0.00975  0.36293  Biso   1.000  H
  H167     1.0000 0.89733  0.89323  0.00484  Biso   1.000  H
  H168     1.0000 0.53047  0.62956  0.09830  Biso   1.000  H
  H169     1.0000 0.00675  0.08860  0.87300  Biso   1.000  H
  H170     1.0000 0.88949  0.98687  0.08636  Biso   1.000  H
  H171     1.0000 0.12534  0.87127  0.98928  Biso   1.000  H
  H172     1.0000 0.52359  0.08513  0.62626  Biso   1.000  H
  H173     1.0000 0.39323  0.99001  0.40419  Biso   1.000  H
  H174     1.0000 0.62852  0.87152  0.49544  Biso   1.000  H
  H175     1.0000 0.52146  0.59093  0.86588  Biso   1.000  H
  H176     1.0000 0.65420  0.49965  0.08621  Biso   1.000  H
  H177     1.0000 0.41384  0.37548  0.99713  Biso   1.000  H
  H178     1.0000 0.03599  0.58813  0.63356  Biso   1.000  H
  H179     1.0000 0.14970  0.49670  0.41236  Biso   1.000  H
  H180     1.0000 0.92155  0.37241  0.50639  Biso   1.000  H
  H181     1.0000 0.03853  0.90210  0.13025  Biso   1.000  H
  H182     1.0000 0.15025  0.99134  0.90847  Biso   1.000  H
  H183     1.0000 0.91692  0.11795  0.00217  Biso   1.000  H
  H184     1.0000 0.53282  0.91080  0.36872  Biso   1.000  H
  H185     1.0000 0.65589  0.99033  0.58760  Biso   1.000  H
  H186     1.0000 0.42325  0.12434  0.49054  Biso   1.000  H
  H187     1.0000 0.51431  0.40601  0.12932  Biso   1.000  H
  H188     1.0000 0.38235  0.51297  0.91354  Biso   1.000  H
  H189     1.0000 0.62413  0.61818  0.00877  Biso   1.000  H
  H190     1.0000 0.01220  0.40526  0.36741  Biso   1.000  H
  H191     1.0000 0.88831  0.50482  0.58840  Biso   1.000  H
  H192     1.0000 0.12748  0.62855  0.49996  Biso   1.000  H
  H193     1.0000 0.30849  0.84056  0.48198  Biso   1.000  H
  H194     1.0000 0.51541  0.27291  0.84624  Biso   1.000  H
  H195     1.0000 0.87658  0.51289  0.26661  Biso   1.000  H
  H196     1.0000 0.80863  0.82599  0.99124  Biso   1.000  H
  H197     1.0000 0.01538  0.26416  0.64336  Biso   1.000  H
  H198     1.0000 0.37162  0.49795  0.22971  Biso   1.000  H
  H199     1.0000 0.24781  0.34548  0.48820  Biso   1.000  H
  H200     1.0000 0.00642  0.76663  0.86059  Biso   1.000  H
  H201     1.0000 0.67545  0.98530  0.27191  Biso   1.000  H
  H202     1.0000 0.73469  0.33169  0.99322  Biso   1.000  H
  H203     1.0000 0.52931  0.77176  0.64999  Biso   1.000  H
  H204     1.0000 0.16956  0.98654  0.22940  Biso   1.000  H
  H205     1.0000 0.74265  0.15934  0.51686  Biso   1.000  H
  H206     1.0000 0.52733  0.73002  0.14757  Biso   1.000  H
  H207     1.0000 0.16489  0.48748  0.72780  Biso   1.000  H
  H208     1.0000 0.23970  0.16104  0.98875  Biso   1.000  H
  H209     1.0000 0.03711  0.72992  0.35190  Biso   1.000  H
  H210     1.0000 0.66217  0.52613  0.77264  Biso   1.000  H
  H211     1.0000 0.80753  0.65597  0.48818  Biso   1.000  H
  H212     1.0000 0.02023  0.22317  0.14311  Biso   1.000  H
  H213     1.0000 0.36687  0.02218  0.72046  Biso   1.000  H
  H214     1.0000 0.30761  0.66014  0.01851  Biso   1.000  H
  H215     1.0000 0.50840  0.22596  0.34637  Biso   1.000  H
  H216     1.0000 0.87537  0.97163  0.76563  Biso   1.000  H
  H217     1.0000 0.24453  0.51324  0.35734  Biso   1.000  H
  H218     1.0000 0.36315  0.21724  0.49710  Biso   1.000  H
  H219     1.0000 0.51602  0.35227  0.22388  Biso   1.000  H
  H220     1.0000 0.74860  0.48099  0.14057  Biso   1.000  H
  H221     1.0000 0.85647  0.21149  0.01415  Biso   1.000  H
  H222     1.0000 0.00807  0.35065  0.26985  Biso   1.000  H
  H223     1.0000 0.29773  0.99852  0.35132  Biso   1.000  H
  H224     1.0000 0.18683  0.72013  0.49598  Biso   1.000  H
  H225     1.0000 0.04982  0.85075  0.22620  Biso   1.000  H
  H226     1.0000 0.79260  0.96972  0.14147  Biso   1.000  H
  H227     1.0000 0.68518  0.71229  0.00927  Biso   1.000  H
  H228     1.0000 0.52617  0.85270  0.27205  Biso   1.000  H
  H229     1.0000 0.79007  0.49689  0.64017  Biso   1.000  H
  H230     1.0000 0.69148  0.78331  0.50453  Biso   1.000  H
  H231     1.0000 0.51052  0.65234  0.77541  Biso   1.000  H
  H232     1.0000 0.28679  0.49094  0.86367  Biso   1.000  H
  H233     1.0000 0.18982  0.78053  0.99163  Biso   1.000  H
  H234     1.0000 0.01779  0.63848  0.73272  Biso   1.000  H
  H235     1.0000 0.74532  0.00241  0.64789  Biso   1.000  H
  H236     1.0000 0.85958  0.28331  0.52602  Biso   1.000  H
  H237     1.0000 0.01510  0.13850  0.77408  Biso   1.000  H
  H238     1.0000 0.25088  0.99497  0.85474  Biso   1.000  H
  H239     1.0000 0.35391  0.28368  0.98190  Biso   1.000  H
  H240     1.0000 0.53754  0.13671  0.72266  Biso   1.000  H
  H241     1.0000 0.74664  0.49169  0.85128  Biso   1.000  H
  H242     1.0000 0.89522  0.74018  0.50139  Biso   1.000  H
  H243     1.0000 0.49579  0.85691  0.72604  Biso   1.000  H
  H244     1.0000 0.25484  0.50001  0.64737  Biso   1.000  H
  H245     1.0000 0.39681  0.73884  0.01611  Biso   1.000  H
  H246     1.0000 0.99744  0.85125  0.77253  Biso   1.000  H
  H247     1.0000 0.78707  0.96715  0.85434  Biso   1.000  H
  H248     1.0000 0.64912  0.24023  0.51048  Biso   1.000  H
  H249     1.0000 0.02056  0.35643  0.73141  Biso   1.000  H
  H250     1.0000 0.28301  0.99752  0.63610  Biso   1.000  H
  H251     1.0000 0.14682  0.23484  0.99606  Biso   1.000  H
  H252     1.0000 0.51801  0.35988  0.76268  Biso   1.000  H
  H253     1.0000 0.28882  0.52908  0.15105  Biso   1.000  H
  H254     1.0000 0.15464  0.26146  0.49968  Biso   1.000  H
  H255     1.0000 0.52181  0.13673  0.26598  Biso   1.000  H
  H256     1.0000 0.78804  0.51499  0.35336  Biso   1.000  H
  H257     1.0000 0.63984  0.25434  0.00509  Biso   1.000  H
  H258     1.0000 0.03741  0.13524  0.23029  Biso   1.000  H
  H259     1.0000 0.25568  0.00858  0.13978  Biso   1.000  H
  H260     1.0000 0.40124  0.76138  0.48523  Biso   1.000  H
  H261     1.0000 0.02968  0.64040  0.26944  Biso   1.000  H
  H262     1.0000 0.75618  0.02519  0.35247  Biso   1.000  H
  H263     1.0000 0.90243  0.75500  0.01329  Biso   1.000  H
  H264     1.0000 0.51896  0.63796  0.23256  Biso   1.000  H
  H265     1.0000 0.00185  0.22549  0.85706  Biso   1.000  H
  H266     1.0000 0.87676  0.99380  0.22475  Biso   1.000  H
  H267     1.0000 0.26483  0.87377  0.00901  Biso   1.000  H
  H268     1.0000 0.51288  0.22421  0.63958  Biso   1.000  H
  H269     1.0000 0.38368  0.99165  0.26737  Biso   1.000  H
  H270     1.0000 0.76605  0.87392  0.48369  Biso   1.000  H
  H271     1.0000 0.53172  0.73140  0.86270  Biso   1.000  H
  H272     1.0000 0.65499  0.49895  0.22768  Biso   1.000  H
  H273     1.0000 0.27534  0.37300  0.01320  Biso   1.000  H
  H274     1.0000 0.02938  0.72592  0.64696  Biso   1.000  H
  H275     1.0000 0.15825  0.48849  0.26925  Biso   1.000  H
  H276     1.0000 0.78045  0.36932  0.51066  Biso   1.000  H
  H277     1.0000 0.06182  0.76640  0.14092  Biso   1.000  H
  H278     1.0000 0.16098  0.99614  0.76882  Biso   1.000  H
  H279     1.0000 0.77775  0.11896  0.00218  Biso   1.000  H
  H280     1.0000 0.52369  0.77028  0.36161  Biso   1.000  H
  H281     1.0000 0.65646  0.97365  0.72622  Biso   1.000  H
  H282     1.0000 0.28384  0.12913  0.50533  Biso   1.000  H
  H283     1.0000 0.47677  0.27390  0.14195  Biso   1.000  H
  H284     1.0000 0.37664  0.48071  0.77500  Biso   1.000  H
  H285     1.0000 0.76751  0.61768  0.98753  Biso   1.000  H
  H286     1.0000 0.00990  0.26466  0.35405  Biso   1.000  H
  H287     1.0000 0.87843  0.50463  0.72852  Biso   1.000  H
  H288     1.0000 0.26404  0.62810  0.46246  Biso   1.000  H
  H289     1.0000 0.09443  0.23248  0.99755  Biso   1.000  H
  H290     1.0000 0.02987  0.08265  0.23006  Biso   1.000  H
  H291     1.0000 0.25141  0.01536  0.08832  Biso   1.000  H
  H292     1.0000 0.60009  0.23682  0.49224  Biso   1.000  H
  H293     1.0000 0.53044  0.08410  0.26627  Biso   1.000  H
  H294     1.0000 0.75366  0.03498  0.40819  Biso   1.000  H
  H295     1.0000 0.45179  0.73618  0.01200  Biso   1.000  H
  H296     1.0000 0.52309  0.58143  0.22817  Biso   1.000  H
  H297     1.0000 0.28780  0.52877  0.09486  Biso   1.000  H
  H298     1.0000 0.94665  0.73831  0.50226  Biso   1.000  H
  H299     1.0000 0.02630  0.58656  0.27315  Biso   1.000  H
  H300     1.0000 0.79201  0.51816  0.40948  Biso   1.000  H
  H301     1.0000 0.95403  0.75970  0.01284  Biso   1.000  H
  H302     1.0000 0.00921  0.90371  0.77118  Biso   1.000  H
  H303     1.0000 0.78567  0.96089  0.90683  Biso   1.000  H
  H304     1.0000 0.45554  0.76318  0.49420  Biso   1.000  H
  H305     1.0000 0.48845  0.91284  0.72381  Biso   1.000  H
  H306     1.0000 0.28836  0.98320  0.58171  Biso   1.000  H
  H307     1.0000 0.58696  0.25888  0.99897  Biso   1.000  H
  H308     1.0000 0.52668  0.41286  0.76878  Biso   1.000  H
  H309     1.0000 0.75123  0.49051  0.90127  Biso   1.000  H
  H310     1.0000 0.10127  0.26087  0.50094  Biso   1.000  H
  H311     1.0000 0.02826  0.40704  0.72704  Biso   1.000  H
  H312     1.0000 0.25416  0.49868  0.59051  Biso   1.000  H
  H313     1.0000 0.24727  0.99860  0.90844  Biso   1.000  H
  H314     1.0000 0.91104  0.21430  0.01079  Biso   1.000  H
  H315     1.0000 0.03785  0.90470  0.22588  Biso   1.000  H
  H316     1.0000 0.74830  0.01262  0.59348  Biso   1.000  H
  H317     1.0000 0.41636  0.22000  0.49786  Biso   1.000  H
  H318     1.0000 0.53406  0.90662  0.27093  Biso   1.000  H
  H319     1.0000 0.28936  0.49261  0.91334  Biso   1.000  H
  H320     1.0000 0.63433  0.71375  0.00681  Biso   1.000  H
  H321     1.0000 0.52817  0.40418  0.22389  Biso   1.000  H
  H322     1.0000 0.79295  0.49932  0.58823  Biso   1.000  H
  H323     1.0000 0.13488  0.72261  0.50517  Biso   1.000  H
  H324     1.0000 0.01233  0.40606  0.27047  Biso   1.000  H
  H325     1.0000 0.79592  0.97292  0.08588  Biso   1.000  H
  H326     1.0000 0.13495  0.77497  0.98275  Biso   1.000  H
  H327     1.0000 0.01030  0.08268  0.77410  Biso   1.000  H
  H328     1.0000 0.29467  0.99915  0.40507  Biso   1.000  H
  H329     1.0000 0.63435  0.77836  0.50117  Biso   1.000  H
  H330     1.0000 0.54157  0.08606  0.72133  Biso   1.000  H
  H331     1.0000 0.74675  0.47121  0.08968  Biso   1.000  H
  H332     1.0000 0.40771  0.28251  0.97803  Biso   1.000  H
  H333     1.0000 0.51024  0.59782  0.77223  Biso   1.000  H
  H334     1.0000 0.24491  0.50452  0.41064  Biso   1.000  H
  H335     1.0000 0.91631  0.27894  0.52838  Biso   1.000  H
  H336     1.0000 0.01836  0.58766  0.73000  Biso   1.000  H
  H337     1.0000 0.99905  0.22527  0.90979  Biso   1.000  H
  H338     1.0000 0.93071  0.99826  0.22562  Biso   1.000  H
  H339     1.0000 0.25945  0.92713  0.00877  Biso   1.000  H
  H340     1.0000 0.51023  0.22347  0.58579  Biso   1.000  H
  H341     1.0000 0.43912  0.00188  0.26867  Biso   1.000  H
  H342     1.0000 0.75865  0.92849  0.48352  Biso   1.000  H
  H343     1.0000 0.55484  0.72559  0.91338  Biso   1.000  H
  H344     1.0000 0.60333  0.50777  0.22332  Biso   1.000  H
  H345     1.0000 0.28235  0.42744  0.02417  Biso   1.000  H
  H346     1.0000 0.02655  0.72713  0.59174  Biso   1.000  H
  H347     1.0000 0.10722  0.48112  0.27245  Biso   1.000  H
  H348     1.0000 0.78248  0.42147  0.49830  Biso   1.000  H
  H349     1.0000 0.06404  0.76857  0.08667  Biso   1.000  H
  H350     1.0000 0.10812  0.98930  0.77041  Biso   1.000  H
  H351     1.0000 0.78392  0.06906  0.98752  Biso   1.000  H
  H352     1.0000 0.53264  0.77438  0.41720  Biso   1.000  H
  H353     1.0000 0.60367  0.97276  0.72362  Biso   1.000  H
  H354     1.0000 0.28579  0.06986  0.50194  Biso   1.000  H
  H355     1.0000 0.48103  0.27155  0.08834  Biso   1.000  H
  H356     1.0000 0.42993  0.49811  0.77430  Biso   1.000  H
  H357     1.0000 0.76158  0.56641  0.98569  Biso   1.000  H
  H358     1.0000 0.01331  0.26476  0.41178  Biso   1.000  H
  H359     1.0000 0.93253  0.50434  0.72507  Biso   1.000  H
  H360     1.0000 0.25977  0.57299  0.47300  Biso   1.000  H
  H361     1.0000 0.04477  0.72945  0.40799  Biso   1.000  H
  H362     1.0000 0.42071  0.02070  0.72053  Biso   1.000  H
  H363     1.0000 0.73863  0.38600  0.99530  Biso   1.000  H
  H364     1.0000 0.52537  0.72694  0.09302  Biso   1.000  H
  H365     1.0000 0.92881  0.97727  0.76748  Biso   1.000  H
  H366     1.0000 0.24416  0.39809  0.49538  Biso   1.000  H
  H367     1.0000 0.50308  0.22433  0.40135  Biso   1.000  H
  H368     1.0000 0.11277  0.48041  0.72674  Biso   1.000  H
  H369     1.0000 0.80241  0.88393  0.98972  Biso   1.000  H
  H370     1.0000 0.01100  0.21832  0.09121  Biso   1.000  H
  H371     1.0000 0.60808  0.52479  0.77441  Biso   1.000  H
  H372     1.0000 0.30862  0.89338  0.47705  Biso   1.000  H
  H373     1.0000 0.01488  0.26440  0.59074  Biso   1.000  H
  H374     1.0000 0.61974  0.98235  0.27210  Biso   1.000  H
  H375     1.0000 0.30067  0.60631  0.00981  Biso   1.000  H
  H376     1.0000 0.51004  0.26954  0.90215  Biso   1.000  H
  H377     1.0000 0.11506  0.98940  0.23103  Biso   1.000  H
  H378     1.0000 0.80367  0.59948  0.48845  Biso   1.000  H
  H379     1.0000 0.54974  0.77377  0.59610  Biso   1.000  H
  H380     1.0000 0.93145  0.51305  0.27048  Biso   1.000  H
  H381     1.0000 0.24570  0.10787  0.99675  Biso   1.000  H
  H382     1.0000 0.01699  0.76498  0.91220  Biso   1.000  H
  H383     1.0000 0.42695  0.49672  0.23050  Biso   1.000  H
  H384     1.0000 0.74475  0.10543  0.51612  Biso   1.000  H
  H385     1.0000 0.24493  0.48176  0.32987  Biso   1.000  H
  H386     1.0000 0.28760  0.15879  0.46432  Biso   1.000  H
  H387     1.0000 0.47709  0.32884  0.23156  Biso   1.000  H
  H388     1.0000 0.68690  0.46486  0.22495  Biso   1.000  H
  H389     1.0000 0.82237  0.20535  0.04294  Biso   1.000  H
  H390     1.0000 0.97126  0.27127  0.31580  Biso   1.000  H
  H391     1.0000 0.30420  0.96171  0.31591  Biso   1.000  H
  H392     1.0000 0.20963  0.71754  0.45790  Biso   1.000  H
  H393     1.0000 0.08761  0.77165  0.17709  Biso   1.000  H
  H394     1.0000 0.79672  0.95177  0.17532  Biso   1.000  H
  H395     1.0000 0.76933  0.64763  0.02468  Biso   1.000  H
  H396     1.0000 0.49151  0.82481  0.27963  Biso   1.000  H
  H397     1.0000 0.79373  0.53292  0.67197  Biso   1.000  H
  H398     1.0000 0.76902  0.84133  0.51617  Biso   1.000  H
  H399     1.0000 0.47984  0.68068  0.78465  Biso   1.000  H
  H400     1.0000 0.34488  0.51294  0.77504  Biso   1.000  H
  H401     1.0000 0.27260  0.84207  0.98295  Biso   1.000  H
  H402     1.0000 0.04872  0.67129  0.73101  Biso   1.000  H
  H403     1.0000 0.73992  0.95306  0.66497  Biso   1.000  H
  H404     1.0000 0.78237  0.34254  0.54762  Biso   1.000  H
  H405     1.0000 0.03504  0.22127  0.82971  Biso   1.000  H
  H406     1.0000 0.24076  0.02764  0.82495  Biso   1.000  H
  H407     1.0000 0.27054  0.34831  0.97593  Biso   1.000  H
  H408     1.0000 0.50588  0.16920  0.72347  Biso   1.000  H
  H409     1.0000 0.28596  0.48889  0.17244  Biso   1.000  H
  H410     1.0000 0.18490  0.26393  0.46057  Biso   1.000  H
  H411     1.0000 0.47584  0.20972  0.31901  Biso   1.000  H
  H412     1.0000 0.84386  0.47226  0.27537  Biso   1.000  H
  H413     1.0000 0.66991  0.24808  0.98210  Biso   1.000  H
  H414     1.0000 0.00845  0.16281  0.23025  Biso   1.000  H
  H415     1.0000 0.20274  0.02799  0.22982  Biso   1.000  H
  H416     1.0000 0.32338  0.80940  0.44264  Biso   1.000  H
  H417     1.0000 0.00461  0.67541  0.27376  Biso   1.000  H
  H418     1.0000 0.76194  0.98630  0.32957  Biso   1.000  H
  H419     1.0000 0.86525  0.75896  0.04015  Biso   1.000  H
  H420     1.0000 0.49301  0.66978  0.23429  Biso   1.000  H
  H421     1.0000 0.75006  0.52965  0.82347  Biso   1.000  H
  H422     1.0000 0.81165  0.68858  0.52271  Biso   1.000  H
  H423     1.0000 0.52982  0.83399  0.73346  Biso   1.000  H
  H424     1.0000 0.19241  0.51568  0.72987  Biso   1.000  H
  H425     1.0000 0.36093  0.73246  0.97684  Biso   1.000  H
  H426     1.0000 0.04154  0.77455  0.82937  Biso   1.000  H
  H427     1.0000 0.84206  0.99861  0.76809  Biso   1.000  H
  H428     1.0000 0.72353  0.19057  0.54865  Biso   1.000  H
  H429     1.0000 0.04503  0.32387  0.73003  Biso   1.000  H
  H430     1.0000 0.34544  0.98200  0.71930  Biso   1.000  H
  H431     1.0000 0.17796  0.23678  0.95215  Biso   1.000  H
  H432     1.0000 0.48414  0.27820  0.81283  Biso   1.000  H
  H433     1.0000 0.28124  0.02951  0.66787  Biso   1.000  H
  H434     1.0000 0.73190  0.30896  0.02118  Biso   1.000  H
  H435     1.0000 0.07336  0.71330  0.32182  Biso   1.000  H
  H436     1.0000 0.79140  0.93456  0.81988  Biso   1.000  H
  H437     1.0000 0.24236  0.31441  0.52107  Biso   1.000  H
  H438     1.0000 0.55256  0.72307  0.17867  Biso   1.000  H
  H439     1.0000 0.25109  0.46594  0.67106  Biso   1.000  H
  H440     1.0000 0.82546  0.79614  0.95798  Biso   1.000  H
  H441     1.0000 0.55397  0.18139  0.26915  Biso   1.000  H
  H442     1.0000 0.68953  0.48570  0.76930  Biso   1.000  H
  H443     1.0000 0.36148  0.76358  0.52028  Biso   1.000  H
  H444     1.0000 0.05432  0.22894  0.17253  Biso   1.000  H
  H445     1.0000 0.69566  0.02810  0.27102  Biso   1.000  H
  H446     1.0000 0.31790  0.69237  0.05428  Biso   1.000  H
  H447     1.0000 0.99091  0.26323  0.67464  Biso   1.000  H
  H448     1.0000 0.25585  0.97650  0.16518  Biso   1.000  H
  H449     1.0000 0.87036  0.73509  0.46441  Biso   1.000  H
  H450     1.0000 0.55572  0.32723  0.77188  Biso   1.000  H
  H451     1.0000 0.78636  0.53749  0.32004  Biso   1.000  H
  H452     1.0000 0.22516  0.18960  0.02020  Biso   1.000  H
  H453     1.0000 0.49490  0.76988  0.67351  Biso   1.000  H
  H454     1.0000 0.34713  0.52859  0.23369  Biso   1.000  H
  H455     1.0000 0.68877  0.23667  0.47442  Biso   1.000  H
  H456     1.0000 0.97072  0.81834  0.78267  Biso   1.000  H
  H457     1.0000 0.71233  0.78319  0.46205  Biso   1.000  H
  H458     1.0000 0.55256  0.72959  0.82786  Biso   1.000  H
  H459     1.0000 0.84864  0.47514  0.72652  Biso   1.000  H
  H460     1.0000 0.20646  0.78683  0.02681  Biso   1.000  H
  H461     1.0000 0.99051  0.71774  0.67436  Biso   1.000  H
  H462     1.0000 0.29179  0.45708  0.83244  Biso   1.000  H
  H463     1.0000 0.83366  0.28214  0.48833  Biso   1.000  H
  H464     1.0000 0.98691  0.16617  0.76992  Biso   1.000  H
  H465     1.0000 0.69112  0.00668  0.73064  Biso   1.000  H
  H466     1.0000 0.32850  0.28387  0.01598  Biso   1.000  H
  H467     1.0000 0.55441  0.22637  0.66367  Biso   1.000  H
  H468     1.0000 0.19262  0.96169  0.77549  Biso   1.000  H
  H469     1.0000 0.33320  0.20859  0.53086  Biso   1.000  H
  H470     1.0000 0.51253  0.26983  0.16121  Biso   1.000  H
  H471     1.0000 0.18411  0.53135  0.27529  Biso   1.000  H
  H472     1.0000 0.78098  0.15195  0.97310  Biso   1.000  H
  H473     1.0000 0.04764  0.32144  0.27828  Biso   1.000  H
  H474     1.0000 0.74345  0.52564  0.17192  Biso   1.000  H
  H475     1.0000 0.27009  0.66058  0.50613  Biso   1.000  H
  H476     1.0000 0.01157  0.81641  0.21309  Biso   1.000  H
  H477     1.0000 0.35659  0.03004  0.27274  Biso   1.000  H
  H478     1.0000 0.71176  0.70989  0.97491  Biso   1.000  H
  H479     1.0000 0.55574  0.77190  0.32983  Biso   1.000  H
  H480     1.0000 0.84797  0.02660  0.21017  Biso   1.000  H
  N1       1.0000 0.68704  0.18935  0.50744  Biso   1.000  N
  N2       1.0000 0.52269  0.67356  0.18095  Biso   1.000  N
  N3       1.0000 0.19990  0.49341  0.67693  Biso   1.000  N
  N4       1.0000 0.18236  0.18628  0.98676  Biso   1.000  N
  N5       1.0000 0.03446  0.67473  0.32242  Biso   1.000  N
  N6       1.0000 0.69554  0.50344  0.81998  Biso   1.000  N
  N7       1.0000 0.86060  0.68645  0.49807  Biso   1.000  N
  N8       1.0000 0.02845  0.17087  0.17686  Biso   1.000  N
  N9       1.0000 0.33783  0.00737  0.67114  Biso   1.000  N
  N10      1.0000 0.36238  0.68747  0.01190  Biso   1.000  N
  N11      1.0000 0.51756  0.17127  0.31686  Biso   1.000  N
  N12      1.0000 0.84078  0.97115  0.81947  Biso   1.000  N
  N13      1.0000 0.36415  0.81169  0.48443  Biso   1.000  N
  N14      1.0000 0.51503  0.32395  0.81587  Biso   1.000  N
  N15      1.0000 0.84068  0.50826  0.31964  Biso   1.000  N
  N16      1.0000 0.86522  0.80517  0.00129  Biso   1.000  N
  N17      1.0000 0.01887  0.31800  0.67628  Biso   1.000  N
  N18      1.0000 0.34081  0.50987  0.18033  Biso   1.000  N
  N19      1.0000 0.19011  0.31347  0.49348  Biso   1.000  N
  N20      1.0000 0.00515  0.82081  0.82865  Biso   1.000  N
  N21      1.0000 0.70513  0.00878  0.32268  Biso   1.000  N
  N22      1.0000 0.67904  0.30337  0.99687  Biso   1.000  N
  N23      1.0000 0.51410  0.82335  0.67743  Biso   1.000  N
  N24      1.0000 0.20263  0.00190  0.17638  Biso   1.000  N
  N25      1.0000 0.84467  0.50444  0.67393  Biso   1.000  N
  N26      1.0000 0.71679  0.83748  0.49181  Biso   1.000  N
  N27      1.0000 0.51931  0.68116  0.82886  Biso   1.000  N
  N28      1.0000 0.34272  0.48947  0.82766  Biso   1.000  N
  N29      1.0000 0.21367  0.83684  0.00142  Biso   1.000  N
  N30      1.0000 0.02454  0.67354  0.67695  Biso   1.000  N
  N31      1.0000 0.69319  0.98299  0.67389  Biso   1.000  N
  N32      1.0000 0.83291  0.33454  0.51487  Biso   1.000  N
  N33      1.0000 0.00782  0.17105  0.82593  Biso   1.000  N
  N34      1.0000 0.19502  0.99394  0.82235  Biso   1.000  N
  N35      1.0000 0.32465  0.33731  0.99976  Biso   1.000  N
  N36      1.0000 0.52737  0.17120  0.67036  Biso   1.000  N
  N37      1.0000 0.19176  0.50143  0.32492  Biso   1.000  N
  N38      1.0000 0.33314  0.16040  0.49749  Biso   1.000  N
  N39      1.0000 0.50202  0.32167  0.17308  Biso   1.000  N
  N40      1.0000 0.69374  0.49596  0.17349  Biso   1.000  N
  N41      1.0000 0.82822  0.15652  0.00471  Biso   1.000  N
  N42      1.0000 0.00716  0.31884  0.32294  Biso   1.000  N
  N43      1.0000 0.35214  0.99690  0.31959  Biso   1.000  N
  N44      1.0000 0.21433  0.66696  0.48182  Biso   1.000  N
  N45      1.0000 0.05161  0.81819  0.17331  Biso   1.000  N
  N46      1.0000 0.84651  0.98579  0.17296  Biso   1.000  N
  N47      1.0000 0.71469  0.65541  0.00250  Biso   1.000  N
  N48      1.0000 0.52505  0.82157  0.32752  Biso   1.000  N
  O1       1.0000 0.36800  0.55198  0.00339  Biso   1.000  O
  O2       1.0000 0.01409  0.33790  0.54182  Biso   1.000  O
  O3       1.0000 0.56892  0.99716  0.34345  Biso   1.000  O
  O4       1.0000 0.87398  0.55036  0.49650  Biso   1.000  O
  O5       1.0000 0.50600  0.34215  0.95004  Biso   1.000  O
  O6       1.0000 0.06676  0.99508  0.15910  Biso   1.000  O
  O7       1.0000 0.17825  0.05028  0.99140  Biso   1.000  O
  O8       1.0000 0.54143  0.84443  0.54585  Biso   1.000  O
  O9       1.0000 0.97666  0.50100  0.34236  Biso   1.000  O
  O10      1.0000 0.67568  0.05352  0.50453  Biso   1.000  O
  O11      1.0000 0.02411  0.84044  0.95952  Biso   1.000  O
  O12      1.0000 0.47588  0.49769  0.15631  Biso   1.000  O
  O13      1.0000 0.67181  0.43962  0.99902  Biso   1.000  O
  O14      1.0000 0.03387  0.66163  0.45868  Biso   1.000  O
  O15      1.0000 0.47379  0.00671  0.64985  Biso   1.000  O
  O16      1.0000 0.17332  0.44956  0.50481  Biso   1.000  O
  O17      1.0000 0.53033  0.65373  0.04728  Biso   1.000  O
  O18      1.0000 0.97317  0.99257  0.83964  Biso   1.000  O
  O19      1.0000 0.86761  0.93868  0.99381  Biso   1.000  O
  O20      1.0000 0.51380  0.15686  0.45193  Biso   1.000  O
  O21      1.0000 0.06382  0.49359  0.65519  Biso   1.000  O
  O22      1.0000 0.37435  0.94803  0.49292  Biso   1.000  O
  O23      1.0000 0.01217  0.14506  0.04181  Biso   1.000  O
  O24      1.0000 0.56095  0.50352  0.84028  Biso   1.000  O
  O25      1.0000 0.98362  0.99538  0.15260  Biso   1.000  O
  O26      1.0000 0.18286  0.96823  0.00055  Biso   1.000  O
  O27      1.0000 0.00412  0.15384  0.95856  Biso   1.000  O
  O28      1.0000 0.48708  0.99658  0.34002  Biso   1.000  O
  O29      1.0000 0.68326  0.97042  0.49177  Biso   1.000  O
  O30      1.0000 0.51106  0.15341  0.53585  Biso   1.000  O
  O31      1.0000 0.55938  0.49338  0.14921  Biso   1.000  O
  O32      1.0000 0.35717  0.46820  0.00556  Biso   1.000  O
  O33      1.0000 0.53805  0.65237  0.96263  Biso   1.000  O
  O34      1.0000 0.06026  0.49251  0.34690  Biso   1.000  O
  O35      1.0000 0.86010  0.46671  0.50048  Biso   1.000  O
  O36      1.0000 0.03990  0.65845  0.54125  Biso   1.000  O
  O37      1.0000 0.05941  0.99441  0.84497  Biso   1.000  O
  O38      1.0000 0.85903  0.02138  0.99243  Biso   1.000  O
  O39      1.0000 0.05346  0.83941  0.04082  Biso   1.000  O
  O40      1.0000 0.55762  0.98340  0.64689  Biso   1.000  O
  O41      1.0000 0.36101  0.02768  0.49942  Biso   1.000  O
  O42      1.0000 0.53928  0.84732  0.46189  Biso   1.000  O
  O43      1.0000 0.47570  0.50167  0.84558  Biso   1.000  O
  O44      1.0000 0.68711  0.52000  0.99376  Biso   1.000  O
  O45      1.0000 0.49982  0.34114  0.03805  Biso   1.000  O
  O46      1.0000 0.98099  0.49943  0.65508  Biso   1.000  O
  O47      1.0000 0.18423  0.53476  0.49714  Biso   1.000  O
  O48      1.0000 0.01353  0.33901  0.45649  Biso   1.000  O
  O49      1.0000 0.02610  0.95034  0.15189  Biso   1.000  O
  O50      1.0000 0.17362  0.00413  0.95645  Biso   1.000  O
  O51      1.0000 0.96529  0.14396  0.00786  Biso   1.000  O
  O52      1.0000 0.53179  0.95818  0.34267  Biso   1.000  O
  O53      1.0000 0.67964  0.00340  0.53935  Biso   1.000  O
  O54      1.0000 0.47075  0.15243  0.48949  Biso   1.000  O
  O55      1.0000 0.51834  0.45587  0.15387  Biso   1.000  O
  O56      1.0000 0.36239  0.50337  0.96016  Biso   1.000  O
  O57      1.0000 0.57805  0.64557  0.00859  Biso   1.000  O
  O58      1.0000 0.01033  0.45495  0.34534  Biso   1.000  O
  O59      1.0000 0.86493  0.50852  0.53950  Biso   1.000  O
  O60      1.0000 0.08042  0.65582  0.49369  Biso   1.000  O
  O61      1.0000 0.01512  0.03585  0.84984  Biso   1.000  O
  O62      1.0000 0.86657  0.98330  0.03681  Biso   1.000  O
  O63      1.0000 0.07855  0.84234  0.98569  Biso   1.000  O
  O64      1.0000 0.53107  0.03590  0.64796  Biso   1.000  O
  O65      1.0000 0.36826  0.99049  0.45297  Biso   1.000  O
  O66      1.0000 0.58055  0.84539  0.50246  Biso   1.000  O
  O67      1.0000 0.51915  0.54495  0.84389  Biso   1.000  O
  O68      1.0000 0.67680  0.48423  0.03941  Biso   1.000  O
  O69      1.0000 0.46104  0.34667  0.99133  Biso   1.000  O
  O70      1.0000 0.02352  0.53734  0.65657  Biso   1.000  O
  O71      1.0000 0.17660  0.48752  0.46032  Biso   1.000  O
  O72      1.0000 0.97094  0.34313  0.50120  Biso   1.000  O
  O73      1.0000 0.01967  0.45384  0.65488  Biso   1.000  O
  O74      1.0000 0.67864  0.01924  0.45615  Biso   1.000  O
  O75      1.0000 0.49447  0.66196  0.00246  Biso   1.000  O
  O76      1.0000 0.51326  0.45634  0.84302  Biso   1.000  O
  O77      1.0000 0.17533  0.01002  0.04054  Biso   1.000  O
  O78      1.0000 0.99655  0.66425  0.50279  Biso   1.000  O
  O79      1.0000 0.50420  0.95523  0.65169  Biso   1.000  O
  O80      1.0000 0.86342  0.50600  0.45536  Biso   1.000  O
  O81      1.0000 0.04776  0.15071  0.99603  Biso   1.000  O
  O82      1.0000 0.01793  0.95478  0.84297  Biso   1.000  O
  O83      1.0000 0.35955  0.51414  0.04474  Biso   1.000  O
  O84      1.0000 0.55359  0.16093  0.49179  Biso   1.000  O
  O85      1.0000 0.02232  0.53805  0.34353  Biso   1.000  O
  O86      1.0000 0.36387  0.98827  0.53745  Biso   1.000  O
  O87      1.0000 0.54470  0.33820  0.99906  Biso   1.000  O
  O88      1.0000 0.51836  0.53938  0.15342  Biso   1.000  O
  O89      1.0000 0.86041  0.97757  0.95037  Biso   1.000  O
  O90      1.0000 0.05451  0.33661  0.49758  Biso   1.000  O
  O91      1.0000 0.52491  0.03939  0.33941  Biso   1.000  O
  O92      1.0000 0.18264  0.49906  0.54356  Biso   1.000  O
  O93      1.0000 0.99874  0.83656  0.01301  Biso   1.000  O
  O94      1.0000 0.02012  0.03838  0.15534  Biso   1.000  O
  O95      1.0000 0.67837  0.47916  0.95519  Biso   1.000  O
  O96      1.0000 0.49725  0.83982  0.50386  Biso   1.000  O
  O97      1.0000 0.46687  0.19917  0.49395  Biso   1.000  O
  O98      1.0000 0.51662  0.45410  0.20177  Biso   1.000  O
  O99      1.0000 0.22522  0.48326  0.45294  Biso   1.000  O
  O100     1.0000 0.96091  0.19294  0.00491  Biso   1.000  O
  O101     1.0000 0.01118  0.45590  0.29587  Biso   1.000  O
  O102     1.0000 0.72523  0.47727  0.03824  Biso   1.000  O
  O103     1.0000 0.08343  0.70324  0.50302  Biso   1.000  O
  O104     1.0000 0.02364  0.95052  0.20177  Biso   1.000  O
  O105     1.0000 0.31902  0.98452  0.45139  Biso   1.000  O
  O106     1.0000 0.58302  0.69392  0.00431  Biso   1.000  O
  O107     1.0000 0.52732  0.95456  0.29527  Biso   1.000  O
  O108     1.0000 0.81619  0.97982  0.04084  Biso   1.000  O
  O109     1.0000 0.58681  0.79886  0.50284  Biso   1.000  O
  O110     1.0000 0.51570  0.54581  0.79427  Biso   1.000  O
  O111     1.0000 0.81726  0.51365  0.54086  Biso   1.000  O
  O112     1.0000 0.08155  0.79497  0.98221  Biso   1.000  O
  O113     1.0000 0.02255  0.53720  0.70544  Biso   1.000  O
  O114     1.0000 0.31247  0.50943  0.96124  Biso   1.000  O
  O115     1.0000 0.96645  0.29497  0.50283  Biso   1.000  O
  O116     1.0000 0.01174  0.03673  0.80094  Biso   1.000  O
  O117     1.0000 0.72814  0.00616  0.54012  Biso   1.000  O
  O118     1.0000 0.45680  0.29783  0.98886  Biso   1.000  O
  O119     1.0000 0.52363  0.03811  0.69668  Biso   1.000  O
  O120     1.0000 0.22239  0.00400  0.95788  Biso   1.000  O
  O121     1.0000 0.06430  0.49311  0.70286  Biso   1.000  O
  O122     1.0000 0.72459  0.05710  0.51020  Biso   1.000  O
  O123     1.0000 0.53737  0.70370  0.04572  Biso   1.000  O
  O124     1.0000 0.55908  0.50402  0.79074  Biso   1.000  O
  O125     1.0000 0.22597  0.05416  0.99134  Biso   1.000  O
  O126     1.0000 0.04414  0.70799  0.45855  Biso   1.000  O
  O127     1.0000 0.47352  0.01283  0.69804  Biso   1.000  O
  O128     1.0000 0.82513  0.55383  0.50188  Biso   1.000  O
  O129     1.0000 0.00272  0.19410  0.04432  Biso   1.000  O
  O130     1.0000 0.97593  0.98909  0.79172  Biso   1.000  O
  O131     1.0000 0.31886  0.55653  0.99683  Biso   1.000  O
  O132     1.0000 0.51064  0.20537  0.45031  Biso   1.000  O
  O133     1.0000 0.97683  0.49944  0.29379  Biso   1.000  O
  O134     1.0000 0.32573  0.94335  0.48879  Biso   1.000  O
  O135     1.0000 0.50256  0.29327  0.94960  Biso   1.000  O
  O136     1.0000 0.47463  0.49525  0.20500  Biso   1.000  O
  O137     1.0000 0.81880  0.93508  0.00228  Biso   1.000  O
  O138     1.0000 0.00699  0.29017  0.54122  Biso   1.000  O
  O139     1.0000 0.56896  0.99426  0.29462  Biso   1.000  O
  O140     1.0000 0.22112  0.44787  0.49585  Biso   1.000  O
  O141     1.0000 0.03148  0.79165  0.95722  Biso   1.000  O
  O142     1.0000 0.06404  0.99302  0.20822  Biso   1.000  O
  O143     1.0000 0.72168  0.43488  0.99649  Biso   1.000  O
  O144     1.0000 0.54610  0.79530  0.54651  Biso   1.000  O
  O145     1.0000 0.56002  0.49516  0.19803  Biso   1.000  O
  O146     1.0000 0.23316  0.52971  0.49528  Biso   1.000  O
  O147     1.0000 0.51188  0.20112  0.53694  Biso   1.000  O
  O148     1.0000 0.05865  0.48657  0.29918  Biso   1.000  O
  O149     1.0000 0.73557  0.51818  0.99755  Biso   1.000  O
  O150     1.0000 0.99995  0.20207  0.96094  Biso   1.000  O
  O151     1.0000 0.98191  0.99773  0.20075  Biso   1.000  O
  O152     1.0000 0.31320  0.02592  0.49589  Biso   1.000  O
  O153     1.0000 0.03801  0.70621  0.54296  Biso   1.000  O
  O154     1.0000 0.48899  0.99772  0.29181  Biso   1.000  O
  O155     1.0000 0.80965  0.01801  0.99513  Biso   1.000  O
  O156     1.0000 0.54683  0.70054  0.96213  Biso   1.000  O
  O157     1.0000 0.47356  0.50648  0.79587  Biso   1.000  O
  O158     1.0000 0.81078  0.47090  0.49877  Biso   1.000  O
  O159     1.0000 0.54125  0.79939  0.46189  Biso   1.000  O
  O160     1.0000 0.97915  0.49844  0.70326  Biso   1.000  O
  O161     1.0000 0.30818  0.47260  0.00789  Biso   1.000  O
  O162     1.0000 0.05358  0.79196  0.03786  Biso   1.000  O
  O163     1.0000 0.05750  0.99703  0.79682  Biso   1.000  O
  O164     1.0000 0.73234  0.97559  0.48814  Biso   1.000  O
  O165     1.0000 0.00835  0.28939  0.45820  Biso   1.000  O
  O166     1.0000 0.55608  0.98451  0.69626  Biso   1.000  O
  O167     1.0000 0.23271  0.97250  0.00392  Biso   1.000  O
  O168     1.0000 0.48927  0.29350  0.03548  Biso   1.000  O
  O169     1.0000 0.02293  0.03486  0.20413  Biso   1.000  O
  O170     1.0000 0.22383  0.01295  0.04012  Biso   1.000  O
  O171     1.0000 0.04121  0.19977  0.99631  Biso   1.000  O
  O172     1.0000 0.53457  0.03707  0.29040  Biso   1.000  O
  O173     1.0000 0.72844  0.02543  0.45660  Biso   1.000  O
  O174     1.0000 0.55159  0.20868  0.49255  Biso   1.000  O
  O175     1.0000 0.51566  0.53720  0.20286  Biso   1.000  O
  O176     1.0000 0.31225  0.52080  0.04431  Biso   1.000  O
  O177     1.0000 0.49789  0.71070  0.99925  Biso   1.000  O
  O178     1.0000 0.02318  0.53882  0.29463  Biso   1.000  O
  O179     1.0000 0.81514  0.51180  0.45846  Biso   1.000  O
  O180     1.0000 0.00029  0.71275  0.49952  Biso   1.000  O
  O181     1.0000 0.01973  0.95476  0.79401  Biso   1.000  O
  O182     1.0000 0.81139  0.97088  0.95583  Biso   1.000  O
  O183     1.0000 0.00204  0.78795  0.01129  Biso   1.000  O
  O184     1.0000 0.50224  0.95819  0.70117  Biso   1.000  O
  O185     1.0000 0.31490  0.98236  0.53600  Biso   1.000  O
  O186     1.0000 0.50245  0.79175  0.50857  Biso   1.000  O
  O187     1.0000 0.51797  0.46103  0.79380  Biso   1.000  O
  O188     1.0000 0.72636  0.47183  0.95232  Biso   1.000  O
  O189     1.0000 0.53837  0.28975  0.99619  Biso   1.000  O
  O190     1.0000 0.01875  0.45095  0.70311  Biso   1.000  O
  O191     1.0000 0.22990  0.48744  0.54017  Biso   1.000  O
  O192     1.0000 0.05134  0.28817  0.50038  Biso   1.000  O
