data_image0
_cell_length_a       46.7257
_cell_length_b       46.6582
_cell_length_c       46.6029
_cell_angle_alpha    90
_cell_angle_beta     90
_cell_angle_gamma    90

_symmetry_space_group_name_H-M    "P 1"
_symmetry_int_tables_number       1

loop_
  _symmetry_equiv_pos_as_xyz
  'x, y, z'

loop_
  _atom_site_label
  _atom_site_occupancy
  _atom_site_fract_x
  _atom_site_fract_y
  _atom_site_fract_z
  _atom_site_thermal_displace_type
  _atom_site_B_iso_or_equiv
  _atom_site_type_symbol
  C1       1.0000 0.58230  0.97938  0.29370  Biso   1.000  C
  C2       1.0000 0.34111  0.54813  0.97909  Biso   1.000  C
  C3       1.0000 0.01705  0.29977  0.52998  Biso   1.000  C
  C4       1.0000 0.08094  0.98045  0.14616  Biso   1.000  C
  C5       1.0000 0.83050  0.53335  0.46182  Biso   1.000  C
  C6       1.0000 0.50080  0.29697  0.91950  Biso   1.000  C
  C7       1.0000 0.97226  0.47165  0.28882  Biso   1.000  C
  C8       1.0000 0.20386  0.04994  0.96550  Biso   1.000  C
  C9       1.0000 0.52888  0.79729  0.52087  Biso   1.000  C
  C10      1.0000 0.47178  0.48917  0.15476  Biso   1.000  C
  C11      1.0000 0.70088  0.03277  0.48865  Biso   1.000  C
  C12      1.0000 0.03099  0.80421  0.91291  Biso   1.000  C
  C13      1.0000 0.45810  0.98298  0.65343  Biso   1.000  C
  C14      1.0000 0.69332  0.41011  0.96136  Biso   1.000  C
  C15      1.0000 0.01355  0.65904  0.41224  Biso   1.000  C
  C16      1.0000 0.96207  0.98495  0.78992  Biso   1.000  C
  C17      1.0000 0.20523  0.43279  0.47842  Biso   1.000  C
  C18      1.0000 0.53546  0.66335  0.02243  Biso   1.000  C
  C19      1.0000 0.06189  0.47845  0.65343  Biso   1.000  C
  C20      1.0000 0.85029  0.91253  0.97922  Biso   1.000  C
  C21      1.0000 0.52743  0.15933  0.41893  Biso   1.000  C
  C22      1.0000 0.56236  0.48540  0.78853  Biso   1.000  C
  C23      1.0000 0.33553  0.92676  0.46182  Biso   1.000  C
  C24      1.0000 0.01643  0.15783  0.02844  Biso   1.000  C
  C25      1.0000 0.33779  0.03453  0.47072  Biso   1.000  C
  C26      1.0000 0.51591  0.29765  0.02692  Biso   1.000  C
  C27      1.0000 0.08142  0.47535  0.29337  Biso   1.000  C
  C28      1.0000 0.83677  0.02086  0.97059  Biso   1.000  C
  C29      1.0000 0.03401  0.29515  0.41985  Biso   1.000  C
  C30      1.0000 0.58044  0.48001  0.14786  Biso   1.000  C
  C31      1.0000 0.20261  0.54101  0.47854  Biso   1.000  C
  C32      1.0000 0.03587  0.79723  0.02179  Biso   1.000  C
  C33      1.0000 0.47413  0.98492  0.28823  Biso   1.000  C
  C34      1.0000 0.70104  0.52062  0.95485  Biso   1.000  C
  C35      1.0000 0.50487  0.80298  0.41742  Biso   1.000  C
  C36      1.0000 0.97365  0.96609  0.15437  Biso   1.000  C
  C37      1.0000 0.69988  0.92683  0.46763  Biso   1.000  C
  C38      1.0000 0.52994  0.65996  0.91101  Biso   1.000  C
  C39      1.0000 0.95334  0.48761  0.64853  Biso   1.000  C
  C40      1.0000 0.20830  0.94141  0.95470  Biso   1.000  C
  C41      1.0000 0.01419  0.66455  0.52108  Biso   1.000  C
  C42      1.0000 0.45326  0.48196  0.79581  Biso   1.000  C
  C43      1.0000 0.83414  0.42396  0.45967  Biso   1.000  C
  C44      1.0000 0.00995  0.16082  0.92078  Biso   1.000  C
  C45      1.0000 0.56737  0.97099  0.65865  Biso   1.000  C
  C46      1.0000 0.33752  0.44068  0.98616  Biso   1.000  C
  C47      1.0000 0.52089  0.15608  0.52874  Biso   1.000  C
  C48      1.0000 0.07006  0.98615  0.78450  Biso   1.000  C
  C49      1.0000 0.01833  0.04147  0.78841  Biso   1.000  C
  C50      1.0000 0.84356  0.96970  0.03064  Biso   1.000  C
  C51      1.0000 0.08908  0.80637  0.96911  Biso   1.000  C
  C52      1.0000 0.51894  0.03351  0.65658  Biso   1.000  C
  C53      1.0000 0.34009  0.98838  0.41089  Biso   1.000  C
  C54      1.0000 0.57020  0.79849  0.45402  Biso   1.000  C
  C55      1.0000 0.50562  0.53480  0.78719  Biso   1.000  C
  C56      1.0000 0.70217  0.46704  0.01260  Biso   1.000  C
  C57      1.0000 0.45560  0.30047  0.98019  Biso   1.000  C
  C58      1.0000 0.00756  0.53717  0.64996  Biso   1.000  C
  C59      1.0000 0.20698  0.48723  0.42459  Biso   1.000  C
  C60      1.0000 0.96947  0.29760  0.46751  Biso   1.000  C
  C61      1.0000 0.03127  0.91952  0.14777  Biso   1.000  C
  C62      1.0000 0.20232  0.99807  0.90373  Biso   1.000  C
  C63      1.0000 0.96037  0.15412  0.97912  Biso   1.000  C
  C64      1.0000 0.52735  0.92810  0.29184  Biso   1.000  C
  C65      1.0000 0.69676  0.96942  0.53380  Biso   1.000  C
  C66      1.0000 0.46837  0.15573  0.47263  Biso   1.000  C
  C67      1.0000 0.52533  0.42860  0.15285  Biso   1.000  C
  C68      1.0000 0.33662  0.49530  0.92641  Biso   1.000  C
  C69      1.0000 0.58844  0.65666  0.96229  Biso   1.000  C
  C70      1.0000 0.02625  0.41917  0.28873  Biso   1.000  C
  C71      1.0000 0.83328  0.47549  0.51405  Biso   1.000  C
  C72      1.0000 0.07045  0.66226  0.46737  Biso   1.000  C
  C73      1.0000 0.02263  0.52873  0.28790  Biso   1.000  C
  C74      1.0000 0.33831  0.97740  0.51821  Biso   1.000  C
  C75      1.0000 0.56092  0.29010  0.96226  Biso   1.000  C
  C76      1.0000 0.53184  0.53658  0.15257  Biso   1.000  C
  C77      1.0000 0.84304  0.96390  0.92137  Biso   1.000  C
  C78      1.0000 0.07616  0.30464  0.47866  Biso   1.000  C
  C79      1.0000 0.52716  0.03500  0.29227  Biso   1.000  C
  C80      1.0000 0.19878  0.48931  0.53430  Biso   1.000  C
  C81      1.0000 0.98086  0.79692  0.96783  Biso   1.000  C
  C82      1.0000 0.01908  0.02516  0.15110  Biso   1.000  C
  C83      1.0000 0.69790  0.46400  0.90280  Biso   1.000  C
  C84      1.0000 0.46604  0.80444  0.48193  Biso   1.000  C
  C85      1.0000 0.00738  0.42931  0.65220  Biso   1.000  C
  C86      1.0000 0.70310  0.98439  0.42560  Biso   1.000  C
  C87      1.0000 0.47930  0.66549  0.97049  Biso   1.000  C
  C88      1.0000 0.50871  0.42760  0.79587  Biso   1.000  C
  C89      1.0000 0.20596  0.99252  0.01397  Biso   1.000  C
  C90      1.0000 0.96025  0.65746  0.46433  Biso   1.000  C
  C91      1.0000 0.51216  0.92471  0.65165  Biso   1.000  C
  C92      1.0000 0.83553  0.47820  0.40565  Biso   1.000  C
  C93      1.0000 0.06747  0.16475  0.97422  Biso   1.000  C
  C94      1.0000 0.01798  0.93184  0.78633  Biso   1.000  C
  C95      1.0000 0.34185  0.49864  0.03695  Biso   1.000  C
  C96      1.0000 0.57605  0.16135  0.48003  Biso   1.000  C
  C97      1.0000 0.70091  0.06457  0.49187  Biso   1.000  C
  C98      1.0000 0.53606  0.66304  0.05562  Biso   1.000  C
  C99      1.0000 0.09424  0.47746  0.65529  Biso   1.000  C
  C100     1.0000 0.20186  0.08184  0.96434  Biso   1.000  C
  C101     1.0000 0.01079  0.65809  0.38044  Biso   1.000  C
  C102     1.0000 0.59558  0.48725  0.78763  Biso   1.000  C
  C103     1.0000 0.82937  0.56550  0.46295  Biso   1.000  C
  C104     1.0000 0.01486  0.15734  0.06098  Biso   1.000  C
  C105     1.0000 0.42709  0.99193  0.65073  Biso   1.000  C
  C106     1.0000 0.34157  0.58061  0.97712  Biso   1.000  C
  C107     1.0000 0.52516  0.16079  0.38704  Biso   1.000  C
  C108     1.0000 0.92992  0.98191  0.79306  Biso   1.000  C
  C109     1.0000 0.33573  0.89496  0.46298  Biso   1.000  C
  C110     1.0000 0.49954  0.29903  0.88755  Biso   1.000  C
  C111     1.0000 0.94021  0.46554  0.28586  Biso   1.000  C
  C112     1.0000 0.85181  0.87998  0.97830  Biso   1.000  C
  C113     1.0000 0.01655  0.29857  0.56264  Biso   1.000  C
  C114     1.0000 0.43988  0.49225  0.15672  Biso   1.000  C
  C115     1.0000 0.20411  0.39997  0.47936  Biso   1.000  C
  C116     1.0000 0.02409  0.80440  0.88232  Biso   1.000  C
  C117     1.0000 0.61489  0.97954  0.29403  Biso   1.000  C
  C118     1.0000 0.69088  0.37844  0.95967  Biso   1.000  C
  C119     1.0000 0.52585  0.79736  0.55323  Biso   1.000  C
  C120     1.0000 0.11332  0.98619  0.14572  Biso   1.000  C
  C121     1.0000 0.84435  0.96863  0.06376  Biso   1.000  C
  C122     1.0000 0.12190  0.81018  0.97030  Biso   1.000  C
  C123     1.0000 0.01749  0.07277  0.78961  Biso   1.000  C
  C124     1.0000 0.34314  0.99329  0.37852  Biso   1.000  C
  C125     1.0000 0.60194  0.79885  0.45290  Biso   1.000  C
  C126     1.0000 0.52427  0.06468  0.65781  Biso   1.000  C
  C127     1.0000 0.70323  0.47136  0.04445  Biso   1.000  C
  C128     1.0000 0.42480  0.30517  0.98103  Biso   1.000  C
  C129     1.0000 0.50466  0.56644  0.78558  Biso   1.000  C
  C130     1.0000 0.20646  0.49398  0.39426  Biso   1.000  C
  C131     1.0000 0.93592  0.29776  0.46451  Biso   1.000  C
  C132     1.0000 0.00687  0.57058  0.64912  Biso   1.000  C
  C133     1.0000 0.20148  0.00011  0.87170  Biso   1.000  C
  C134     1.0000 0.92734  0.15141  0.98169  Biso   1.000  C
  C135     1.0000 0.02908  0.88774  0.14748  Biso   1.000  C
  C136     1.0000 0.69866  0.96835  0.56607  Biso   1.000  C
  C137     1.0000 0.43690  0.15855  0.47158  Biso   1.000  C
  C138     1.0000 0.52782  0.89667  0.29212  Biso   1.000  C
  C139     1.0000 0.33150  0.49764  0.89402  Biso   1.000  C
  C140     1.0000 0.61913  0.65402  0.95478  Biso   1.000  C
  C141     1.0000 0.52497  0.39680  0.15283  Biso   1.000  C
  C142     1.0000 0.83275  0.47687  0.54764  Biso   1.000  C
  C143     1.0000 0.10211  0.66409  0.46929  Biso   1.000  C
  C144     1.0000 0.02854  0.38758  0.28943  Biso   1.000  C
  C145     1.0000 0.34457  0.50366  0.06859  Biso   1.000  C
  C146     1.0000 0.10941  0.30439  0.48042  Biso   1.000  C
  C147     1.0000 0.52255  0.06706  0.29045  Biso   1.000  C
  C148     1.0000 0.83895  0.47984  0.37414  Biso   1.000  C
  C149     1.0000 0.59430  0.28809  0.95812  Biso   1.000  C
  C150     1.0000 0.01332  0.05786  0.15228  Biso   1.000  C
  C151     1.0000 0.20759  0.99187  0.04463  Biso   1.000  C
  C152     1.0000 0.43331  0.80478  0.47971  Biso   1.000  C
  C153     1.0000 0.01791  0.55978  0.28815  Biso   1.000  C
  C154     1.0000 0.70459  0.98561  0.39433  Biso   1.000  C
  C155     1.0000 0.94941  0.79070  0.97292  Biso   1.000  C
  C156     1.0000 0.53139  0.56919  0.15169  Biso   1.000  C
  C157     1.0000 0.69736  0.46859  0.87082  Biso   1.000  C
  C158     1.0000 0.92896  0.65870  0.46610  Biso   1.000  C
  C159     1.0000 0.51338  0.89249  0.64824  Biso   1.000  C
  C160     1.0000 0.19592  0.48911  0.56686  Biso   1.000  C
  C161     1.0000 0.44752  0.66583  0.97212  Biso   1.000  C
  C162     1.0000 0.01663  0.89978  0.78507  Biso   1.000  C
  C163     1.0000 0.84068  0.95873  0.88982  Biso   1.000  C
  C164     1.0000 0.60801  0.16365  0.48596  Biso   1.000  C
  C165     1.0000 0.00878  0.39738  0.65401  Biso   1.000  C
  C166     1.0000 0.33769  0.97948  0.54907  Biso   1.000  C
  C167     1.0000 0.10012  0.16876  0.97515  Biso   1.000  C
  C168     1.0000 0.51245  0.39587  0.79382  Biso   1.000  C
  C169     1.0000 0.04270  0.79504  0.05392  Biso   1.000  C
  C170     1.0000 0.10132  0.98994  0.78122  Biso   1.000  C
  C171     1.0000 0.83564  0.05415  0.97171  Biso   1.000  C
  C172     1.0000 0.50387  0.80305  0.38564  Biso   1.000  C
  C173     1.0000 0.59791  0.96485  0.65853  Biso   1.000  C
  C174     1.0000 0.33791  0.06671  0.47387  Biso   1.000  C
  C175     1.0000 0.51783  0.29836  0.05938  Biso   1.000  C
  C176     1.0000 0.42153  0.48524  0.79350  Biso   1.000  C
  C177     1.0000 0.70504  0.55309  0.95202  Biso   1.000  C
  C178     1.0000 0.03603  0.29247  0.38781  Biso   1.000  C
  C179     1.0000 0.92192  0.49084  0.64725  Biso   1.000  C
  C180     1.0000 0.20253  0.57396  0.47587  Biso   1.000  C
  C181     1.0000 0.00720  0.16092  0.88891  Biso   1.000  C
  C182     1.0000 0.94136  0.96107  0.15471  Biso   1.000  C
  C183     1.0000 0.21022  0.90974  0.95748  Biso   1.000  C
  C184     1.0000 0.52400  0.15655  0.56036  Biso   1.000  C
  C185     1.0000 0.44214  0.98651  0.28565  Biso   1.000  C
  C186     1.0000 0.69981  0.89580  0.45628  Biso   1.000  C
  C187     1.0000 0.52896  0.66096  0.87963  Biso   1.000  C
  C188     1.0000 0.61288  0.48520  0.14411  Biso   1.000  C
  C189     1.0000 0.33545  0.40727  0.98696  Biso   1.000  C
  C190     1.0000 0.01328  0.66496  0.55169  Biso   1.000  C
  C191     1.0000 0.11307  0.47952  0.29637  Biso   1.000  C
  C192     1.0000 0.83585  0.39204  0.45647  Biso   1.000  C
  C193     1.0000 0.86601  0.96173  0.87377  Biso   1.000  C
  C194     1.0000 0.93170  0.81620  0.97652  Biso   1.000  C
  C195     1.0000 0.02179  0.88376  0.81081  Biso   1.000  C
  C196     1.0000 0.36438  0.98223  0.56588  Biso   1.000  C
  C197     1.0000 0.41723  0.83109  0.47913  Biso   1.000  C
  C198     1.0000 0.51739  0.87787  0.62138  Biso   1.000  C
  C199     1.0000 0.67079  0.47434  0.85669  Biso   1.000  C
  C200     1.0000 0.61193  0.31384  0.95789  Biso   1.000  C
  C201     1.0000 0.51004  0.37906  0.82197  Biso   1.000  C
  C202     1.0000 0.16799  0.48124  0.58040  Biso   1.000  C
  C203     1.0000 0.12671  0.33213  0.47887  Biso   1.000  C
  C204     1.0000 0.00894  0.37968  0.62833  Biso   1.000  C
  C205     1.0000 0.18065  0.98655  0.06078  Biso   1.000  C
  C206     1.0000 0.11704  0.14189  0.97466  Biso   1.000  C
  C207     1.0000 0.01399  0.07672  0.12679  Biso   1.000  C
  C208     1.0000 0.67795  0.98709  0.37716  Biso   1.000  C
  C209     1.0000 0.62161  0.13611  0.48895  Biso   1.000  C
  C210     1.0000 0.52177  0.08292  0.31755  Biso   1.000  C
  C211     1.0000 0.37189  0.50003  0.08455  Biso   1.000  C
  C212     1.0000 0.42861  0.63945  0.97461  Biso   1.000  C
  C213     1.0000 0.53450  0.58484  0.12508  Biso   1.000  C
  C214     1.0000 0.86690  0.47825  0.36141  Biso   1.000  C
  C215     1.0000 0.91184  0.63245  0.46316  Biso   1.000  C
  C216     1.0000 0.01541  0.57665  0.31482  Biso   1.000  C
  C217     1.0000 0.11847  0.99333  0.80776  Biso   1.000  C
  C218     1.0000 0.86191  0.07012  0.97350  Biso   1.000  C
  C219     1.0000 0.04105  0.82222  0.06951  Biso   1.000  C
  C220     1.0000 0.61488  0.96277  0.63155  Biso   1.000  C
  C221     1.0000 0.36496  0.08271  0.47489  Biso   1.000  C
  C222     1.0000 0.50565  0.83088  0.36982  Biso   1.000  C
  C223     1.0000 0.40724  0.48901  0.82067  Biso   1.000  C
  C224     1.0000 0.67924  0.57234  0.95150  Biso   1.000  C
  C225     1.0000 0.51965  0.32625  0.07646  Biso   1.000  C
  C226     1.0000 0.90726  0.48790  0.61915  Biso   1.000  C
  C227     1.0000 0.17458  0.58825  0.47587  Biso   1.000  C
  C228     1.0000 0.03510  0.31918  0.37162  Biso   1.000  C
  C229     1.0000 0.92440  0.96373  0.12843  Biso   1.000  C
  C230     1.0000 0.18434  0.89256  0.95663  Biso   1.000  C
  C231     1.0000 0.00650  0.13631  0.87063  Biso   1.000  C
  C232     1.0000 0.42477  0.98811  0.31210  Biso   1.000  C
  C233     1.0000 0.67158  0.88069  0.45414  Biso   1.000  C
  C234     1.0000 0.52825  0.13001  0.57805  Biso   1.000  C
  C235     1.0000 0.62770  0.48295  0.11605  Biso   1.000  C
  C236     1.0000 0.36131  0.39079  0.98801  Biso   1.000  C
  C237     1.0000 0.51886  0.63516  0.86414  Biso   1.000  C
  C238     1.0000 0.12917  0.48104  0.32410  Biso   1.000  C
  C239     1.0000 0.86326  0.37799  0.45976  Biso   1.000  C
  C240     1.0000 0.01262  0.63773  0.56878  Biso   1.000  C
  C241     1.0000 0.61269  0.48274  0.81334  Biso   1.000  C
  C242     1.0000 0.85624  0.58170  0.46316  Biso   1.000  C
  C243     1.0000 0.52605  0.82481  0.56840  Biso   1.000  C
  C244     1.0000 0.11167  0.47791  0.62895  Biso   1.000  C
  C245     1.0000 0.37105  0.59434  0.97576  Biso   1.000  C
  C246     1.0000 0.02436  0.83130  0.86624  Biso   1.000  C
  C247     1.0000 0.91418  0.97467  0.81992  Biso   1.000  C
  C248     1.0000 0.67259  0.08043  0.49254  Biso   1.000  C
  C249     1.0000 0.01122  0.32541  0.57740  Biso   1.000  C
  C250     1.0000 0.41308  0.99046  0.62307  Biso   1.000  C
  C251     1.0000 0.17339  0.09469  0.96646  Biso   1.000  C
  C252     1.0000 0.50110  0.32631  0.87249  Biso   1.000  C
  C253     1.0000 0.42248  0.49633  0.13152  Biso   1.000  C
  C254     1.0000 0.17684  0.38447  0.47670  Biso   1.000  C
  C255     1.0000 0.52177  0.13522  0.36961  Biso   1.000  C
  C256     1.0000 0.92220  0.46830  0.31227  Biso   1.000  C
  C257     1.0000 0.66314  0.36290  0.95738  Biso   1.000  C
  C258     1.0000 0.01598  0.12962  0.07721  Biso   1.000  C
  C259     1.0000 0.12988  0.98485  0.11831  Biso   1.000  C
  C260     1.0000 0.36378  0.88096  0.46835  Biso   1.000  C
  C261     1.0000 0.01327  0.63122  0.36456  Biso   1.000  C
  C262     1.0000 0.62947  0.98442  0.32131  Biso   1.000  C
  C263     1.0000 0.87900  0.86497  0.97374  Biso   1.000  C
  C264     1.0000 0.53879  0.63606  0.07121  Biso   1.000  C
  C265     1.0000 0.01494  0.08649  0.81690  Biso   1.000  C
  C266     1.0000 0.87174  0.96496  0.07899  Biso   1.000  C
  C267     1.0000 0.13508  0.83797  0.96851  Biso   1.000  C
  C268     1.0000 0.52434  0.08030  0.63118  Biso   1.000  C
  C269     1.0000 0.37098  0.99089  0.36531  Biso   1.000  C
  C270     1.0000 0.61723  0.82652  0.45143  Biso   1.000  C
  C271     1.0000 0.50769  0.58272  0.81280  Biso   1.000  C
  C272     1.0000 0.67691  0.47639  0.06182  Biso   1.000  C
  C273     1.0000 0.41219  0.33435  0.98323  Biso   1.000  C
  C274     1.0000 0.01080  0.58603  0.62076  Biso   1.000  C
  C275     1.0000 0.17949  0.48866  0.37821  Biso   1.000  C
  C276     1.0000 0.91982  0.32556  0.46243  Biso   1.000  C
  C277     1.0000 0.03421  0.87220  0.12144  Biso   1.000  C
  C278     1.0000 0.17353  0.99705  0.85647  Biso   1.000  C
  C279     1.0000 0.91250  0.12384  0.98415  Biso   1.000  C
  C280     1.0000 0.52022  0.88096  0.31876  Biso   1.000  C
  C281     1.0000 0.67112  0.96381  0.58184  Biso   1.000  C
  C282     1.0000 0.41992  0.13230  0.47263  Biso   1.000  C
  C283     1.0000 0.52035  0.37996  0.12612  Biso   1.000  C
  C284     1.0000 0.35887  0.49525  0.87676  Biso   1.000  C
  C285     1.0000 0.63259  0.62561  0.95043  Biso   1.000  C
  C286     1.0000 0.03317  0.37196  0.31610  Biso   1.000  C
  C287     1.0000 0.86001  0.48060  0.56522  Biso   1.000  C
  C288     1.0000 0.11758  0.63811  0.46919  Biso   1.000  C
  C289     1.0000 0.36368  0.84984  0.47221  Biso   1.000  C
  C290     1.0000 0.50805  0.32612  0.84154  Biso   1.000  C
  C291     1.0000 0.89200  0.47023  0.30894  Biso   1.000  C
  C292     1.0000 0.87794  0.83351  0.97423  Biso   1.000  C
  C293     1.0000 0.01177  0.32656  0.60947  Biso   1.000  C
  C294     1.0000 0.39227  0.49925  0.13609  Biso   1.000  C
  C295     1.0000 0.17979  0.35308  0.47537  Biso   1.000  C
  C296     1.0000 0.02365  0.83108  0.83422  Biso   1.000  C
  C297     1.0000 0.66049  0.98493  0.32364  Biso   1.000  C
  C298     1.0000 0.66492  0.33216  0.95971  Biso   1.000  C
  C299     1.0000 0.52102  0.82474  0.60000  Biso   1.000  C
  C300     1.0000 0.16083  0.98914  0.11620  Biso   1.000  C
  C301     1.0000 0.67464  0.11276  0.49136  Biso   1.000  C
  C302     1.0000 0.53750  0.63756  0.10394  Biso   1.000  C
  C303     1.0000 0.14319  0.48113  0.63121  Biso   1.000  C
  C304     1.0000 0.17055  0.12633  0.97004  Biso   1.000  C
  C305     1.0000 0.01320  0.62983  0.33401  Biso   1.000  C
  C306     1.0000 0.64414  0.48301  0.80820  Biso   1.000  C
  C307     1.0000 0.85829  0.61257  0.46525  Biso   1.000  C
  C308     1.0000 0.01664  0.13006  0.10821  Biso   1.000  C
  C309     1.0000 0.38208  0.99223  0.62123  Biso   1.000  C
  C310     1.0000 0.37325  0.62481  0.97684  Biso   1.000  C
  C311     1.0000 0.52304  0.13608  0.33886  Biso   1.000  C
  C312     1.0000 0.88379  0.97158  0.82074  Biso   1.000  C
  C313     1.0000 0.17868  0.49350  0.34671  Biso   1.000  C
  C314     1.0000 0.38800  0.13561  0.47440  Biso   1.000  C
  C315     1.0000 0.52074  0.34893  0.12811  Biso   1.000  C
  C316     1.0000 0.68036  0.47969  0.09312  Biso   1.000  C
  C317     1.0000 0.88029  0.12343  0.98338  Biso   1.000  C
  C318     1.0000 0.03236  0.34056  0.31727  Biso   1.000  C
  C319     1.0000 0.37364  0.99667  0.33354  Biso   1.000  C
  C320     1.0000 0.14972  0.64072  0.47156  Biso   1.000  C
  C321     1.0000 0.03481  0.84138  0.12305  Biso   1.000  C
  C322     1.0000 0.87076  0.96518  0.11067  Biso   1.000  C
  C323     1.0000 0.66432  0.62565  0.95108  Biso   1.000  C
  C324     1.0000 0.52110  0.85031  0.31816  Biso   1.000  C
  C325     1.0000 0.85786  0.48358  0.59610  Biso   1.000  C
  C326     1.0000 0.64861  0.82790  0.45410  Biso   1.000  C
  C327     1.0000 0.51143  0.61402  0.81169  Biso   1.000  C
  C328     1.0000 0.35587  0.49225  0.84495  Biso   1.000  C
  C329     1.0000 0.16578  0.83987  0.96832  Biso   1.000  C
  C330     1.0000 0.01180  0.61701  0.62159  Biso   1.000  C
  C331     1.0000 0.66963  0.96711  0.61303  Biso   1.000  C
  C332     1.0000 0.88844  0.32547  0.46547  Biso   1.000  C
  C333     1.0000 0.01021  0.11828  0.81789  Biso   1.000  C
  C334     1.0000 0.17224  0.00265  0.82599  Biso   1.000  C
  C335     1.0000 0.37999  0.33731  0.98337  Biso   1.000  C
  C336     1.0000 0.52798  0.11187  0.63177  Biso   1.000  C
  C337     1.0000 0.66874  0.47920  0.82577  Biso   1.000  C
  C338     1.0000 0.88034  0.63438  0.46464  Biso   1.000  C
  C339     1.0000 0.51730  0.84636  0.62079  Biso   1.000  C
  C340     1.0000 0.16592  0.48359  0.61081  Biso   1.000  C
  C341     1.0000 0.39790  0.64330  0.97544  Biso   1.000  C
  C342     1.0000 0.02056  0.85281  0.81252  Biso   1.000  C
  C343     1.0000 0.86360  0.96716  0.84311  Biso   1.000  C
  C344     1.0000 0.65366  0.13531  0.48886  Biso   1.000  C
  C345     1.0000 0.01040  0.34860  0.63004  Biso   1.000  C
  C346     1.0000 0.36304  0.98786  0.59776  Biso   1.000  C
  C347     1.0000 0.14749  0.14704  0.97280  Biso   1.000  C
  C348     1.0000 0.51235  0.34803  0.81994  Biso   1.000  C
  C349     1.0000 0.37066  0.50176  0.11532  Biso   1.000  C
  C350     1.0000 0.15804  0.33176  0.47675  Biso   1.000  C
  C351     1.0000 0.52181  0.11388  0.31653  Biso   1.000  C
  C352     1.0000 0.86937  0.47474  0.32896  Biso   1.000  C
  C353     1.0000 0.64232  0.31128  0.96032  Biso   1.000  C
  C354     1.0000 0.01508  0.10739  0.12901  Biso   1.000  C
  C355     1.0000 0.18179  0.99230  0.09302  Biso   1.000  C
  C356     1.0000 0.38583  0.82957  0.47660  Biso   1.000  C
  C357     1.0000 0.01388  0.60742  0.31276  Biso   1.000  C
  C358     1.0000 0.68109  0.98662  0.34571  Biso   1.000  C
  C359     1.0000 0.90029  0.81338  0.97539  Biso   1.000  C
  C360     1.0000 0.53563  0.61698  0.12665  Biso   1.000  C
  C361     1.0000 0.00745  0.13916  0.83973  Biso   1.000  C
  C362     1.0000 0.89306  0.96409  0.13114  Biso   1.000  C
  C363     1.0000 0.18611  0.86208  0.96334  Biso   1.000  C
  C364     1.0000 0.52930  0.13235  0.60900  Biso   1.000  C
  C365     1.0000 0.39472  0.99385  0.31117  Biso   1.000  C
  C366     1.0000 0.67107  0.84943  0.45530  Biso   1.000  C
  C367     1.0000 0.51733  0.63516  0.83393  Biso   1.000  C
  C368     1.0000 0.65937  0.48099  0.11533  Biso   1.000  C
  C369     1.0000 0.35930  0.36008  0.98532  Biso   1.000  C
  C370     1.0000 0.01318  0.63860  0.60008  Biso   1.000  C
  C371     1.0000 0.15851  0.49017  0.32497  Biso   1.000  C
  C372     1.0000 0.86549  0.34616  0.46506  Biso   1.000  C
  C373     1.0000 0.03578  0.81972  0.10135  Biso   1.000  C
  C374     1.0000 0.14953  0.99998  0.80558  Biso   1.000  C
  C375     1.0000 0.85982  0.10068  0.97871  Biso   1.000  C
  C376     1.0000 0.51431  0.82844  0.34033  Biso   1.000  C
  C377     1.0000 0.64734  0.96523  0.63346  Biso   1.000  C
  C378     1.0000 0.36602  0.11472  0.47521  Biso   1.000  C
  C379     1.0000 0.52011  0.32597  0.10725  Biso   1.000  C
  C380     1.0000 0.37600  0.48900  0.82235  Biso   1.000  C
  C381     1.0000 0.68295  0.60308  0.95131  Biso   1.000  C
  C382     1.0000 0.03223  0.31873  0.33972  Biso   1.000  C
  C383     1.0000 0.87771  0.48747  0.61812  Biso   1.000  C
  C384     1.0000 0.17224  0.62071  0.47514  Biso   1.000  C
  C385     1.0000 0.19620  0.14393  0.97186  Biso   1.000  C
  C386     1.0000 0.01627  0.15612  0.12589  Biso   1.000  C
  C387     1.0000 0.17667  0.99406  0.14327  Biso   1.000  C
  C388     1.0000 0.70162  0.12831  0.49083  Biso   1.000  C
  C389     1.0000 0.52332  0.16274  0.32355  Biso   1.000  C
  C390     1.0000 0.67938  0.98394  0.29744  Biso   1.000  C
  C391     1.0000 0.34762  0.64357  0.97339  Biso   1.000  C
  C392     1.0000 0.53720  0.66448  0.11933  Biso   1.000  C
  C393     1.0000 0.37694  0.50251  0.16425  Biso   1.000  C
  C394     1.0000 0.83159  0.62891  0.46865  Biso   1.000  C
  C395     1.0000 0.01480  0.65614  0.31684  Biso   1.000  C
  C396     1.0000 0.87869  0.46857  0.28079  Biso   1.000  C
  C397     1.0000 0.85135  0.81740  0.97428  Biso   1.000  C
  C398     1.0000 0.02093  0.80400  0.81845  Biso   1.000  C
  C399     1.0000 0.86674  0.97263  0.79458  Biso   1.000  C
  C400     1.0000 0.33723  0.83348  0.46895  Biso   1.000  C
  C401     1.0000 0.51909  0.79856  0.61572  Biso   1.000  C
  C402     1.0000 0.36526  0.99754  0.64654  Biso   1.000  C
  C403     1.0000 0.69088  0.31536  0.96044  Biso   1.000  C
  C404     1.0000 0.51129  0.29987  0.82528  Biso   1.000  C
  C405     1.0000 0.65758  0.48580  0.78002  Biso   1.000  C
  C406     1.0000 0.20607  0.33661  0.47576  Biso   1.000  C
  C407     1.0000 0.01542  0.30071  0.62531  Biso   1.000  C
  C408     1.0000 0.15713  0.48389  0.65933  Biso   1.000  C
  C409     1.0000 0.16258  0.00275  0.77827  Biso   1.000  C
  C410     1.0000 0.83278  0.11529  0.98096  Biso   1.000  C
  C411     1.0000 0.03361  0.79262  0.11767  Biso   1.000  C
  C412     1.0000 0.66048  0.96729  0.66128  Biso   1.000  C
  C413     1.0000 0.33886  0.13118  0.47424  Biso   1.000  C
  C414     1.0000 0.51647  0.80107  0.32552  Biso   1.000  C
  C415     1.0000 0.35889  0.48702  0.79619  Biso   1.000  C
  C416     1.0000 0.71206  0.61592  0.95277  Biso   1.000  C
  C417     1.0000 0.51935  0.29954  0.12339  Biso   1.000  C
  C418     1.0000 0.85956  0.48919  0.64431  Biso   1.000  C
  C419     1.0000 0.19717  0.63857  0.47876  Biso   1.000  C
  C420     1.0000 0.03133  0.29136  0.32545  Biso   1.000  C
  C421     1.0000 0.87893  0.96319  0.15937  Biso   1.000  C
  C422     1.0000 0.21398  0.84922  0.96826  Biso   1.000  C
  C423     1.0000 0.00861  0.16704  0.82531  Biso   1.000  C
  C424     1.0000 0.37964  0.99765  0.28335  Biso   1.000  C
  C425     1.0000 0.69695  0.83329  0.46153  Biso   1.000  C
  C426     1.0000 0.52825  0.15915  0.62339  Biso   1.000  C
  C427     1.0000 0.67788  0.48385  0.14201  Biso   1.000  C
  C428     1.0000 0.33139  0.34555  0.98411  Biso   1.000  C
  C429     1.0000 0.52421  0.66048  0.81732  Biso   1.000  C
  C430     1.0000 0.17483  0.49725  0.29863  Biso   1.000  C
  C431     1.0000 0.83899  0.32956  0.46925  Biso   1.000  C
  C432     1.0000 0.01047  0.66580  0.61556  Biso   1.000  C
  C433     1.0000 0.01130  0.13482  0.79193  Biso   1.000  C
  C434     1.0000 0.84355  0.96648  0.12743  Biso   1.000  C
  C435     1.0000 0.18501  0.81503  0.97257  Biso   1.000  C
  C436     1.0000 0.52734  0.12768  0.65841  Biso   1.000  C
  C437     1.0000 0.34827  0.00329  0.31585  Biso   1.000  C
  C438     1.0000 0.66386  0.80117  0.45847  Biso   1.000  C
  C439     1.0000 0.51449  0.62938  0.78495  Biso   1.000  C
  C440     1.0000 0.70790  0.48014  0.10837  Biso   1.000  C
  C441     1.0000 0.36208  0.31038  0.98373  Biso   1.000  C
  C442     1.0000 0.00980  0.63267  0.64875  Biso   1.000  C
  C443     1.0000 0.20486  0.50200  0.33205  Biso   1.000  C
  C444     1.0000 0.87250  0.29859  0.46916  Biso   1.000  C
  C445     1.0000 0.03009  0.82624  0.14990  Biso   1.000  C
  C446     1.0000 0.19794  0.00950  0.80900  Biso   1.000  C
  C447     1.0000 0.86287  0.14977  0.98438  Biso   1.000  C
  C448     1.0000 0.52530  0.83375  0.29141  Biso   1.000  C
  C449     1.0000 0.69561  0.96865  0.62940  Biso   1.000  C
  C450     1.0000 0.37379  0.16329  0.47386  Biso   1.000  C
  C451     1.0000 0.52306  0.33435  0.15577  Biso   1.000  C
  C452     1.0000 0.32816  0.49287  0.83110  Biso   1.000  C
  C453     1.0000 0.68140  0.65071  0.95121  Biso   1.000  C
  C454     1.0000 0.02994  0.32415  0.29156  Biso   1.000  C
  C455     1.0000 0.83082  0.48273  0.61009  Biso   1.000  C
  C456     1.0000 0.16263  0.66891  0.47224  Biso   1.000  C
  C457     1.0000 0.01335  0.62191  0.28541  Biso   1.000  C
  C458     1.0000 0.33348  0.98932  0.61169  Biso   1.000  C
  C459     1.0000 0.65742  0.28324  0.96121  Biso   1.000  C
  C460     1.0000 0.53292  0.63292  0.15307  Biso   1.000  C
  C461     1.0000 0.83530  0.96681  0.82866  Biso   1.000  C
  C462     1.0000 0.17214  0.30492  0.47593  Biso   1.000  C
  C463     1.0000 0.52311  0.13066  0.29078  Biso   1.000  C
  C464     1.0000 0.19087  0.48770  0.62744  Biso   1.000  C
  C465     1.0000 0.88484  0.78588  0.97300  Biso   1.000  C
  C466     1.0000 0.01536  0.12140  0.15673  Biso   1.000  C
  C467     1.0000 0.69359  0.47883  0.80874  Biso   1.000  C
  C468     1.0000 0.36989  0.80218  0.47519  Biso   1.000  C
  C469     1.0000 0.01242  0.33445  0.65753  Biso   1.000  C
  C470     1.0000 0.71005  0.98788  0.33168  Biso   1.000  C
  C471     1.0000 0.38430  0.67189  0.97392  Biso   1.000  C
  C472     1.0000 0.51828  0.33225  0.79335  Biso   1.000  C
  C473     1.0000 0.20791  0.99587  0.10833  Biso   1.000  C
  C474     1.0000 0.86569  0.66146  0.46787  Biso   1.000  C
  C475     1.0000 0.51372  0.83033  0.64827  Biso   1.000  C
  C476     1.0000 0.84454  0.47567  0.31059  Biso   1.000  C
  C477     1.0000 0.16227  0.17495  0.97682  Biso   1.000  C
  C478     1.0000 0.01726  0.83647  0.78675  Biso   1.000  C
  C479     1.0000 0.34514  0.50574  0.13197  Biso   1.000  C
  C480     1.0000 0.67089  0.16174  0.48743  Biso   1.000  C
  C481     1.0000 0.38527  0.77584  0.47976  Biso   1.000  C
  C482     1.0000 0.52049  0.34878  0.76599  Biso   1.000  C
  C483     1.0000 0.81622  0.47894  0.32348  Biso   1.000  C
  C484     1.0000 0.90189  0.76121  0.97012  Biso   1.000  C
  C485     1.0000 0.00909  0.35141  0.68419  Biso   1.000  C
  C486     1.0000 0.31819  0.51108  0.11601  Biso   1.000  C
  C487     1.0000 0.15401  0.27798  0.47905  Biso   1.000  C
  C488     1.0000 0.01492  0.85158  0.75914  Biso   1.000  C
  C489     1.0000 0.73761  0.99055  0.34835  Biso   1.000  C
  C490     1.0000 0.64066  0.25719  0.96474  Biso   1.000  C
  C491     1.0000 0.51186  0.84514  0.67653  Biso   1.000  C
  C492     1.0000 0.23471  0.99870  0.09125  Biso   1.000  C
  C493     1.0000 0.65604  0.19020  0.48511  Biso   1.000  C
  C494     1.0000 0.52623  0.61716  0.17895  Biso   1.000  C
  C495     1.0000 0.21878  0.49438  0.61442  Biso   1.000  C
  C496     1.0000 0.14546  0.20087  0.98046  Biso   1.000  C
  C497     1.0000 0.01465  0.60482  0.25852  Biso   1.000  C
  C498     1.0000 0.72182  0.47431  0.82284  Biso   1.000  C
  C499     1.0000 0.88283  0.68774  0.47062  Biso   1.000  C
  C500     1.0000 0.01281  0.10272  0.18347  Biso   1.000  C
  C501     1.0000 0.30713  0.98303  0.59556  Biso   1.000  C
  C502     1.0000 0.40250  0.69769  0.97261  Biso   1.000  C
  C503     1.0000 0.52145  0.11455  0.26376  Biso   1.000  C
  C504     1.0000 0.81057  0.95890  0.84519  Biso   1.000  C
  C505     1.0000 0.63954  0.49071  0.75433  Biso   1.000  C
  C506     1.0000 0.80384  0.61328  0.47088  Biso   1.000  C
  C507     1.0000 0.51818  0.77160  0.60116  Biso   1.000  C
  C508     1.0000 0.14102  0.48027  0.68521  Biso   1.000  C
  C509     1.0000 0.31885  0.62978  0.97263  Biso   1.000  C
  C510     1.0000 0.01982  0.77712  0.83434  Biso   1.000  C
  C511     1.0000 0.88135  0.98131  0.76787  Biso   1.000  C
  C512     1.0000 0.72940  0.11033  0.48983  Biso   1.000  C
  C513     1.0000 0.01898  0.27281  0.61122  Biso   1.000  C
  C514     1.0000 0.37903  0.00383  0.67329  Biso   1.000  C
  C515     1.0000 0.22483  0.13111  0.96709  Biso   1.000  C
  C516     1.0000 0.50783  0.27198  0.84028  Biso   1.000  C
  C517     1.0000 0.39469  0.50097  0.18968  Biso   1.000  C
  C518     1.0000 0.23356  0.35213  0.47624  Biso   1.000  C
  C519     1.0000 0.52563  0.18982  0.34124  Biso   1.000  C
  C520     1.0000 0.89612  0.46440  0.25518  Biso   1.000  C
  C521     1.0000 0.71773  0.33139  0.95609  Biso   1.000  C
  C522     1.0000 0.01544  0.18375  0.10920  Biso   1.000  C
  C523     1.0000 0.16099  0.99552  0.17096  Biso   1.000  C
  C524     1.0000 0.30795  0.84626  0.46420  Biso   1.000  C
  C525     1.0000 0.01069  0.68341  0.33218  Biso   1.000  C
  C526     1.0000 0.66436  0.97888  0.27001  Biso   1.000  C
  C527     1.0000 0.82447  0.83130  0.97926  Biso   1.000  C
  C528     1.0000 0.53545  0.69120  0.10135  Biso   1.000  C
  C529     1.0000 0.80625  0.09867  0.97707  Biso   1.000  C
  C530     1.0000 0.03995  0.76508  0.10108  Biso   1.000  C
  C531     1.0000 0.14549  0.99987  0.75065  Biso   1.000  C
  C532     1.0000 0.31076  0.11336  0.47527  Biso   1.000  C
  C533     1.0000 0.50974  0.77287  0.33909  Biso   1.000  C
  C534     1.0000 0.64553  0.96795  0.68876  Biso   1.000  C
  C535     1.0000 0.73769  0.59789  0.95211  Biso   1.000  C
  C536     1.0000 0.51242  0.27230  0.10773  Biso   1.000  C
  C537     1.0000 0.37347  0.48107  0.76820  Biso   1.000  C
  C538     1.0000 0.22544  0.62349  0.47820  Biso   1.000  C
  C539     1.0000 0.03089  0.26501  0.34206  Biso   1.000  C
  C540     1.0000 0.87366  0.49403  0.67178  Biso   1.000  C
  C541     1.0000 0.23957  0.86785  0.96873  Biso   1.000  C
  C542     1.0000 0.00827  0.19323  0.84310  Biso   1.000  C
  C543     1.0000 0.89727  0.95722  0.18496  Biso   1.000  C
  C544     1.0000 0.72536  0.84925  0.46288  Biso   1.000  C
  C545     1.0000 0.52478  0.18639  0.60723  Biso   1.000  C
  C546     1.0000 0.39712  0.99559  0.25607  Biso   1.000  C
  C547     1.0000 0.30429  0.36332  0.98458  Biso   1.000  C
  C548     1.0000 0.53331  0.68699  0.83290  Biso   1.000  C
  C549     1.0000 0.66321  0.48807  0.16921  Biso   1.000  C
  C550     1.0000 0.81154  0.34459  0.46299  Biso   1.000  C
  C551     1.0000 0.01381  0.69314  0.59898  Biso   1.000  C
  C552     1.0000 0.16134  0.49317  0.27155  Biso   1.000  C
  C553     1.0000 0.01204  0.12067  0.76414  Biso   1.000  C
  C554     1.0000 0.81694  0.96979  0.11199  Biso   1.000  C
  C555     1.0000 0.17130  0.78641  0.97482  Biso   1.000  C
  C556     1.0000 0.52752  0.11109  0.68535  Biso   1.000  C
  C557     1.0000 0.32165  0.00920  0.33284  Biso   1.000  C
  C558     1.0000 0.64925  0.77253  0.45885  Biso   1.000  C
  C559     1.0000 0.50702  0.61447  0.75919  Biso   1.000  C
  C560     1.0000 0.73446  0.47703  0.08954  Biso   1.000  C
  C561     1.0000 0.37551  0.28304  0.98152  Biso   1.000  C
  C562     1.0000 0.00714  0.61683  0.67419  Biso   1.000  C
  C563     1.0000 0.23038  0.50789  0.34878  Biso   1.000  C
  C564     1.0000 0.88854  0.27145  0.47037  Biso   1.000  C
  C565     1.0000 0.02581  0.84275  0.17596  Biso   1.000  C
  C566     1.0000 0.22547  0.00763  0.82347  Biso   1.000  C
  C567     1.0000 0.87771  0.17723  0.98306  Biso   1.000  C
  C568     1.0000 0.52853  0.85089  0.26419  Biso   1.000  C
  C569     1.0000 0.72356  0.96971  0.61452  Biso   1.000  C
  C570     1.0000 0.39010  0.19017  0.47183  Biso   1.000  C
  C571     1.0000 0.52953  0.35167  0.18231  Biso   1.000  C
  C572     1.0000 0.30209  0.49619  0.84812  Biso   1.000  C
  C573     1.0000 0.66753  0.67828  0.95331  Biso   1.000  C
  C574     1.0000 0.02503  0.33912  0.26383  Biso   1.000  C
  C575     1.0000 0.80489  0.47543  0.59532  Biso   1.000  C
  C576     1.0000 0.14479  0.69512  0.47232  Biso   1.000  C
  C577     1.0000 0.31781  0.50855  0.08454  Biso   1.000  C
  C578     1.0000 0.12324  0.27838  0.48168  Biso   1.000  C
  C579     1.0000 0.52127  0.08172  0.26315  Biso   1.000  C
  C580     1.0000 0.81338  0.48049  0.35520  Biso   1.000  C
  C581     1.0000 0.60828  0.26023  0.96321  Biso   1.000  C
  C582     1.0000 0.01057  0.07107  0.18066  Biso   1.000  C
  C583     1.0000 0.23390  0.99958  0.06008  Biso   1.000  C
  C584     1.0000 0.41771  0.77793  0.48154  Biso   1.000  C
  C585     1.0000 0.01646  0.57343  0.26029  Biso   1.000  C
  C586     1.0000 0.73501  0.98840  0.38029  Biso   1.000  C
  C587     1.0000 0.93477  0.76226  0.97098  Biso   1.000  C
  C588     1.0000 0.52551  0.58515  0.17804  Biso   1.000  C
  C589     1.0000 0.72407  0.46883  0.85420  Biso   1.000  C
  C590     1.0000 0.91591  0.68582  0.47142  Biso   1.000  C
  C591     1.0000 0.51274  0.87629  0.67536  Biso   1.000  C
  C592     1.0000 0.22133  0.49387  0.58359  Biso   1.000  C
  C593     1.0000 0.43468  0.69411  0.97214  Biso   1.000  C
  C594     1.0000 0.01359  0.88201  0.75831  Biso   1.000  C
  C595     1.0000 0.81288  0.95656  0.87600  Biso   1.000  C
  C596     1.0000 0.62389  0.18898  0.48565  Biso   1.000  C
  C597     1.0000 0.00679  0.38281  0.68136  Biso   1.000  C
  C598     1.0000 0.30886  0.97873  0.56429  Biso   1.000  C
  C599     1.0000 0.11469  0.19743  0.97600  Biso   1.000  C
  C600     1.0000 0.51890  0.38029  0.76585  Biso   1.000  C
  C601     1.0000 0.22710  0.00544  0.85421  Biso   1.000  C
  C602     1.0000 0.90990  0.17811  0.98334  Biso   1.000  C
  C603     1.0000 0.02543  0.87372  0.17514  Biso   1.000  C
  C604     1.0000 0.72606  0.97089  0.58313  Biso   1.000  C
  C605     1.0000 0.42163  0.18727  0.46993  Biso   1.000  C
  C606     1.0000 0.53315  0.88189  0.26456  Biso   1.000  C
  C607     1.0000 0.30307  0.49800  0.87942  Biso   1.000  C
  C608     1.0000 0.63692  0.68070  0.95417  Biso   1.000  C
  C609     1.0000 0.53220  0.38306  0.17942  Biso   1.000  C
  C610     1.0000 0.80500  0.47336  0.56394  Biso   1.000  C
  C611     1.0000 0.11445  0.69320  0.47147  Biso   1.000  C
  C612     1.0000 0.02488  0.37106  0.26289  Biso   1.000  C
  C613     1.0000 0.81758  0.97023  0.07972  Biso   1.000  C
  C614     1.0000 0.13974  0.78419  0.97203  Biso   1.000  C
  C615     1.0000 0.01570  0.08965  0.76307  Biso   1.000  C
  C616     1.0000 0.31884  0.00420  0.36305  Biso   1.000  C
  C617     1.0000 0.61731  0.77194  0.45521  Biso   1.000  C
  C618     1.0000 0.52860  0.07960  0.68505  Biso   1.000  C
  C619     1.0000 0.73244  0.47313  0.05870  Biso   1.000  C
  C620     1.0000 0.40653  0.27974  0.97949  Biso   1.000  C
  C621     1.0000 0.50531  0.58163  0.75884  Biso   1.000  C
  C622     1.0000 0.23164  0.50463  0.37912  Biso   1.000  C
  C623     1.0000 0.92004  0.27100  0.46692  Biso   1.000  C
  C624     1.0000 0.00476  0.58644  0.67610  Biso   1.000  C
  C625     1.0000 0.00722  0.18920  0.87489  Biso   1.000  C
  C626     1.0000 0.92816  0.95541  0.18232  Biso   1.000  C
  C627     1.0000 0.23767  0.89762  0.96177  Biso   1.000  C
  C628     1.0000 0.52360  0.18364  0.57471  Biso   1.000  C
  C629     1.0000 0.42859  0.99230  0.25787  Biso   1.000  C
  C630     1.0000 0.72603  0.88101  0.46032  Biso   1.000  C
  C631     1.0000 0.53586  0.68726  0.86494  Biso   1.000  C
  C632     1.0000 0.63089  0.48880  0.16971  Biso   1.000  C
  C633     1.0000 0.30649  0.39444  0.98580  Biso   1.000  C
  C634     1.0000 0.01612  0.69245  0.56800  Biso   1.000  C
  C635     1.0000 0.13113  0.48431  0.26996  Biso   1.000  C
  C636     1.0000 0.80963  0.37438  0.45606  Biso   1.000  C
  C637     1.0000 0.04295  0.76655  0.06855  Biso   1.000  C
  C638     1.0000 0.11525  0.99412  0.75352  Biso   1.000  C
  C639     1.0000 0.80750  0.06845  0.97348  Biso   1.000  C
  C640     1.0000 0.50364  0.77478  0.37047  Biso   1.000  C
  C641     1.0000 0.61301  0.96499  0.68644  Biso   1.000  C
  C642     1.0000 0.31099  0.08186  0.47437  Biso   1.000  C
  C643     1.0000 0.51199  0.27153  0.07601  Biso   1.000  C
  C644     1.0000 0.40472  0.48038  0.76763  Biso   1.000  C
  C645     1.0000 0.73365  0.56667  0.95197  Biso   1.000  C
  C646     1.0000 0.03290  0.26510  0.37436  Biso   1.000  C
  C647     1.0000 0.90404  0.49537  0.67434  Biso   1.000  C
  C648     1.0000 0.22901  0.59252  0.47741  Biso   1.000  C
  C649     1.0000 0.00844  0.68426  0.36330  Biso   1.000  C
  C650     1.0000 0.40963  0.00104  0.67588  Biso   1.000  C
  C651     1.0000 0.71793  0.36310  0.95838  Biso   1.000  C
  C652     1.0000 0.53404  0.69027  0.07002  Biso   1.000  C
  C653     1.0000 0.91258  0.98559  0.76737  Biso   1.000  C
  C654     1.0000 0.23134  0.38395  0.47863  Biso   1.000  C
  C655     1.0000 0.52806  0.18868  0.37275  Biso   1.000  C
  C656     1.0000 0.10926  0.47712  0.68312  Biso   1.000  C
  C657     1.0000 0.82498  0.86283  0.98153  Biso   1.000  C
  C658     1.0000 0.01647  0.18407  0.07766  Biso   1.000  C
  C659     1.0000 0.60822  0.49285  0.75896  Biso   1.000  C
  C660     1.0000 0.30834  0.87803  0.46098  Biso   1.000  C
  C661     1.0000 0.02248  0.27288  0.57893  Biso   1.000  C
  C662     1.0000 0.63245  0.97746  0.26802  Biso   1.000  C
  C663     1.0000 0.31608  0.59903  0.97619  Biso   1.000  C
  C664     1.0000 0.50180  0.27275  0.87087  Biso   1.000  C
  C665     1.0000 0.12868  0.99380  0.17139  Biso   1.000  C
  C666     1.0000 0.80234  0.58123  0.46664  Biso   1.000  C
  C667     1.0000 0.52147  0.77135  0.57021  Biso   1.000  C
  C668     1.0000 0.92758  0.46400  0.25803  Biso   1.000  C
  C669     1.0000 0.22770  0.09974  0.96219  Biso   1.000  C
  C670     1.0000 0.02217  0.77738  0.86562  Biso   1.000  C
  C671     1.0000 0.42509  0.49455  0.18517  Biso   1.000  C
  C672     1.0000 0.72812  0.08023  0.49130  Biso   1.000  C
  C673     1.0000 0.20992  0.01073  0.76290  Biso   1.000  C
  C674     1.0000 0.81584  0.16103  0.98140  Biso   1.000  C
  C675     1.0000 0.02503  0.77922  0.16342  Biso   1.000  C
  C676     1.0000 0.70649  0.96921  0.67635  Biso   1.000  C
  C677     1.0000 0.32618  0.17899  0.47516  Biso   1.000  C
  C678     1.0000 0.52222  0.78642  0.27964  Biso   1.000  C
  C679     1.0000 0.31110  0.48983  0.78429  Biso   1.000  C
  C680     1.0000 0.72953  0.66269  0.94962  Biso   1.000  C
  C681     1.0000 0.52551  0.28849  0.17084  Biso   1.000  C
  C682     1.0000 0.81247  0.49007  0.65561  Biso   1.000  C
  C683     1.0000 0.20735  0.68709  0.47835  Biso   1.000  C
  C684     1.0000 0.02614  0.27857  0.27668  Biso   1.000  C
  C685     1.0000 0.83399  0.96784  0.17544  Biso   1.000  C
  C686     1.0000 0.23391  0.80400  0.97165  Biso   1.000  C
  C687     1.0000 0.01114  0.18216  0.77924  Biso   1.000  C
  C688     1.0000 0.33302  0.00432  0.26898  Biso   1.000  C
  C689     1.0000 0.71114  0.78747  0.46414  Biso   1.000  C
  C690     1.0000 0.52760  0.17653  0.66995  Biso   1.000  C
  C691     1.0000 0.72492  0.47984  0.15387  Biso   1.000  C
  C692     1.0000 0.31495  0.30077  0.98243  Biso   1.000  C
  C693     1.0000 0.52227  0.67694  0.77030  Biso   1.000  C
  C694     1.0000 0.22200  0.50518  0.28684  Biso   1.000  C
  C695     1.0000 0.82612  0.28289  0.47386  Biso   1.000  C
  C696     1.0000 0.01032  0.67971  0.66278  Biso   1.000  C
  C697     1.0000 0.72552  0.98107  0.28452  Biso   1.000  C
  C698     1.0000 0.33758  0.69023  0.97407  Biso   1.000  C
  C699     1.0000 0.01457  0.29062  0.67299  Biso   1.000  C
  C700     1.0000 0.22348  0.00027  0.15574  Biso   1.000  C
  C701     1.0000 0.81909  0.67683  0.46730  Biso   1.000  C
  C702     1.0000 0.51817  0.28554  0.77882  Biso   1.000  C
  C703     1.0000 0.83260  0.47277  0.26179  Biso   1.000  C
  C704     1.0000 0.20893  0.18941  0.97660  Biso   1.000  C
  C705     1.0000 0.51570  0.78416  0.66301  Biso   1.000  C
  C706     1.0000 0.33188  0.50872  0.18017  Biso   1.000  C
  C707     1.0000 0.71781  0.17513  0.48705  Biso   1.000  C
  C708     1.0000 0.01567  0.79048  0.77234  Biso   1.000  C
  C709     1.0000 0.31931  0.99826  0.65783  Biso   1.000  C
  C710     1.0000 0.70309  0.26787  0.96746  Biso   1.000  C
  C711     1.0000 0.01412  0.66783  0.27023  Biso   1.000  C
  C712     1.0000 0.81932  0.97181  0.78154  Biso   1.000  C
  C713     1.0000 0.21865  0.28992  0.47271  Biso   1.000  C
  C714     1.0000 0.53256  0.68064  0.16489  Biso   1.000  C
  C715     1.0000 0.20274  0.48760  0.67389  Biso   1.000  C
  C716     1.0000 0.83967  0.77172  0.97015  Biso   1.000  C
  C717     1.0000 0.52393  0.17980  0.27727  Biso   1.000  C
  C718     1.0000 0.70449  0.48596  0.76188  Biso   1.000  C
  C719     1.0000 0.32282  0.78758  0.47718  Biso   1.000  C
  C720     1.0000 0.01418  0.16940  0.17229  Biso   1.000  C
  C721     1.0000 0.54343  0.78875  0.25532  Biso   1.000  C
  C722     1.0000 0.31627  0.50467  0.75596  Biso   1.000  C
  C723     1.0000 0.80068  0.28875  0.49305  Biso   1.000  C
  C724     1.0000 0.00567  0.75449  0.16004  Biso   1.000  C
  C725     1.0000 0.78495  0.50423  0.64925  Biso   1.000  C
  C726     1.0000 0.29085  0.30275  0.96331  Biso   1.000  C
  C727     1.0000 0.00430  0.25620  0.28101  Biso   1.000  C
  C728     1.0000 0.23278  0.03134  0.76333  Biso   1.000  C
  C729     1.0000 0.73339  0.78783  0.48739  Biso   1.000  C
  C730     1.0000 0.50819  0.29141  0.19662  Biso   1.000  C
  C731     1.0000 0.72940  0.94729  0.67647  Biso   1.000  C
  C732     1.0000 0.26203  0.80682  0.95628  Biso   1.000  C
  C733     1.0000 0.51182  0.17234  0.69938  Biso   1.000  C
  C734     1.0000 0.71995  0.46352  0.18112  Biso   1.000  C
  C735     1.0000 0.20470  0.71591  0.46386  Biso   1.000  C
  C736     1.0000 0.99055  0.20614  0.78046  Biso   1.000  C
  C737     1.0000 0.25122  0.49067  0.28980  Biso   1.000  C
  C738     1.0000 0.75806  0.65688  0.96025  Biso   1.000  C
  C739     1.0000 0.02751  0.67824  0.68982  Biso   1.000  C
  C740     1.0000 0.80748  0.95066  0.17648  Biso   1.000  C
  C741     1.0000 0.30081  0.17544  0.45629  Biso   1.000  C
  C742     1.0000 0.53269  0.67335  0.74201  Biso   1.000  C
  C743     1.0000 0.30247  0.99450  0.27448  Biso   1.000  C
  C744     1.0000 0.81422  0.18832  0.99694  Biso   1.000  C
  C745     1.0000 0.03342  0.69286  0.27364  Biso   1.000  C
  C746     1.0000 0.29282  0.01513  0.65222  Biso   1.000  C
  C747     1.0000 0.72807  0.27241  0.98626  Biso   1.000  C
  C748     1.0000 0.55386  0.70275  0.16659  Biso   1.000  C
  C749     1.0000 0.82303  0.96210  0.75126  Biso   1.000  C
  C750     1.0000 0.24501  0.29179  0.49007  Biso   1.000  C
  C751     1.0000 0.53898  0.17649  0.24999  Biso   1.000  C
  C752     1.0000 0.22915  0.47014  0.67372  Biso   1.000  C
  C753     1.0000 0.81631  0.77668  0.95010  Biso   1.000  C
  C754     1.0000 0.02733  0.16534  0.20110  Biso   1.000  C
  C755     1.0000 0.69733  0.47415  0.73355  Biso   1.000  C
  C756     1.0000 0.29609  0.79332  0.49345  Biso   1.000  C
  C757     1.0000 0.99622  0.26637  0.67216  Biso   1.000  C
  C758     1.0000 0.72378  0.99253  0.25545  Biso   1.000  C
  C759     1.0000 0.30926  0.68720  0.98843  Biso   1.000  C
  C760     1.0000 0.53906  0.28797  0.75510  Biso   1.000  C
  C761     1.0000 0.25007  0.01932  0.15248  Biso   1.000  C
  C762     1.0000 0.82207  0.70193  0.44813  Biso   1.000  C
  C763     1.0000 0.49416  0.78267  0.68717  Biso   1.000  C
  C764     1.0000 0.80829  0.49213  0.26137  Biso   1.000  C
  C765     1.0000 0.23631  0.18523  0.99255  Biso   1.000  C
  C766     1.0000 0.99716  0.79353  0.74805  Biso   1.000  C
  C767     1.0000 0.33742  0.52605  0.20573  Biso   1.000  C
  C768     1.0000 0.71510  0.20021  0.46844  Biso   1.000  C
  C769     1.0000 0.51043  0.70406  0.77887  Biso   1.000  C
  C770     1.0000 0.81615  0.47688  0.68401  Biso   1.000  C
  C771     1.0000 0.70947  0.76266  0.44432  Biso   1.000  C
  C772     1.0000 0.99393  0.70589  0.65887  Biso   1.000  C
  C773     1.0000 0.28256  0.47539  0.78974  Biso   1.000  C
  C774     1.0000 0.23020  0.77887  0.99013  Biso   1.000  C
  C775     1.0000 0.03188  0.18032  0.75539  Biso   1.000  C
  C776     1.0000 0.70674  0.99228  0.69784  Biso   1.000  C
  C777     1.0000 0.82829  0.25486  0.45906  Biso   1.000  C
  C778     1.0000 0.54065  0.20501  0.66507  Biso   1.000  C
  C779     1.0000 0.21051  0.98839  0.74082  Biso   1.000  C
  C780     1.0000 0.31509  0.27687  0.00174  Biso   1.000  C
  C781     1.0000 0.54210  0.26217  0.16544  Biso   1.000  C
  C782     1.0000 0.21885  0.52161  0.26120  Biso   1.000  C
  C783     1.0000 0.32816  0.20477  0.49251  Biso   1.000  C
  C784     1.0000 0.04210  0.28115  0.25004  Biso   1.000  C
  C785     1.0000 0.75431  0.49122  0.14862  Biso   1.000  C
  C786     1.0000 0.79007  0.15545  0.96336  Biso   1.000  C
  C787     1.0000 0.03926  0.78021  0.18994  Biso   1.000  C
  C788     1.0000 0.33920  0.01469  0.24042  Biso   1.000  C
  C789     1.0000 0.23211  0.68336  0.49776  Biso   1.000  C
  C790     1.0000 0.50251  0.76038  0.27911  Biso   1.000  C
  C791     1.0000 0.83809  0.98968  0.19829  Biso   1.000  C
  C792     1.0000 0.72682  0.69147  0.93523  Biso   1.000  C
  C793     1.0000 0.50711  0.20561  0.28226  Biso   1.000  C
  C794     1.0000 0.30406  0.49163  0.17658  Biso   1.000  C
  C795     1.0000 0.21620  0.26339  0.45500  Biso   1.000  C
  C796     1.0000 0.99825  0.19585  0.16760  Biso   1.000  C
  C797     1.0000 0.83514  0.45384  0.23614  Biso   1.000  C
  C798     1.0000 0.69948  0.23944  0.95415  Biso   1.000  C
  C799     1.0000 0.99640  0.66489  0.24419  Biso   1.000  C
  C800     1.0000 0.22085  0.98320  0.18248  Biso   1.000  C
  C801     1.0000 0.32607  0.75806  0.46359  Biso   1.000  C
  C802     1.0000 0.50999  0.68021  0.18564  Biso   1.000  C
  C803     1.0000 0.75351  0.96623  0.29220  Biso   1.000  C
  C804     1.0000 0.84173  0.74276  0.98296  Biso   1.000  C
  C805     1.0000 0.53697  0.76206  0.66283  Biso   1.000  C
  C806     1.0000 0.73278  0.49909  0.76600  Biso   1.000  C
  C807     1.0000 0.79135  0.67443  0.48443  Biso   1.000  C
  C808     1.0000 0.03205  0.76416  0.77577  Biso   1.000  C
  C809     1.0000 0.19830  0.50746  0.69822  Biso   1.000  C
  C810     1.0000 0.34370  0.71821  0.96221  Biso   1.000  C
  C811     1.0000 0.03350  0.29438  0.69991  Biso   1.000  C
  C812     1.0000 0.79079  0.98176  0.78933  Biso   1.000  C
  C813     1.0000 0.74381  0.17167  0.50338  Biso   1.000  C
  C814     1.0000 0.49801  0.26237  0.77721  Biso   1.000  C
  C815     1.0000 0.32439  0.98523  0.68628  Biso   1.000  C
  C816     1.0000 0.20635  0.21765  0.96106  Biso   1.000  C
  C817     1.0000 0.99446  0.22944  0.76134  Biso   1.000  C
  C818     1.0000 0.78876  0.95149  0.19972  Biso   1.000  C
  C819     1.0000 0.28156  0.78478  0.95871  Biso   1.000  C
  C820     1.0000 0.51229  0.19308  0.71977  Biso   1.000  C
  C821     1.0000 0.28209  0.99621  0.25244  Biso   1.000  C
  C822     1.0000 0.75398  0.76587  0.48906  Biso   1.000  C
  C823     1.0000 0.52863  0.69452  0.72224  Biso   1.000  C
  C824     1.0000 0.74237  0.45739  0.19973  Biso   1.000  C
  C825     1.0000 0.27064  0.28119  0.96349  Biso   1.000  C
  C826     1.0000 0.02847  0.69962  0.70981  Biso   1.000  C
  C827     1.0000 0.27357  0.49413  0.26961  Biso   1.000  C
  C828     1.0000 0.77885  0.26650  0.49380  Biso   1.000  C
  C829     1.0000 0.00371  0.73333  0.18125  Biso   1.000  C
  C830     1.0000 0.25650  0.03004  0.74559  Biso   1.000  C
  C831     1.0000 0.79122  0.20706  0.99575  Biso   1.000  C
  C832     1.0000 0.54701  0.76594  0.23600  Biso   1.000  C
  C833     1.0000 0.75020  0.94794  0.69763  Biso   1.000  C
  C834     1.0000 0.28026  0.19701  0.45342  Biso   1.000  C
  C835     1.0000 0.50415  0.26788  0.21485  Biso   1.000  C
  C836     1.0000 0.29508  0.50408  0.73528  Biso   1.000  C
  C837     1.0000 0.77899  0.67764  0.96269  Biso   1.000  C
  C838     1.0000 0.99934  0.23753  0.25758  Biso   1.000  C
  C839     1.0000 0.76374  0.50080  0.66987  Biso   1.000  C
  C840     1.0000 0.22684  0.73580  0.46590  Biso   1.000  C
  C841     1.0000 0.23344  0.98830  0.72157  Biso   1.000  C
  C842     1.0000 0.76856  0.17581  0.96064  Biso   1.000  C
  C843     1.0000 0.03631  0.75967  0.21158  Biso   1.000  C
  C844     1.0000 0.72870  0.99197  0.71822  Biso   1.000  C
  C845     1.0000 0.30712  0.22506  0.48987  Biso   1.000  C
  C846     1.0000 0.50633  0.73933  0.25842  Biso   1.000  C
  C847     1.0000 0.26031  0.47686  0.76882  Biso   1.000  C
  C848     1.0000 0.74888  0.71248  0.93958  Biso   1.000  C
  C849     1.0000 0.54123  0.24042  0.18664  Biso   1.000  C
  C850     1.0000 0.79448  0.47592  0.70460  Biso   1.000  C
  C851     1.0000 0.25281  0.70533  0.49776  Biso   1.000  C
  C852     1.0000 0.03548  0.26176  0.22661  Biso   1.000  C
  C853     1.0000 0.81594  0.99402  0.21888  Biso   1.000  C
  C854     1.0000 0.25059  0.75767  0.99179  Biso   1.000  C
  C855     1.0000 0.03444  0.20460  0.73810  Biso   1.000  C
  C856     1.0000 0.31824  0.01719  0.21885  Biso   1.000  C
  C857     1.0000 0.73100  0.74163  0.44666  Biso   1.000  C
  C858     1.0000 0.53560  0.22679  0.68543  Biso   1.000  C
  C859     1.0000 0.77500  0.48725  0.17212  Biso   1.000  C
  C860     1.0000 0.29526  0.25519  0.00150  Biso   1.000  C
  C861     1.0000 0.51098  0.72663  0.75831  Biso   1.000  C
  C862     1.0000 0.23991  0.52244  0.23991  Biso   1.000  C
  C863     1.0000 0.80746  0.23368  0.46277  Biso   1.000  C
  C864     1.0000 0.99390  0.72691  0.68102  Biso   1.000  C
  C865     1.0000 0.71774  0.47430  0.71136  Biso   1.000  C
  C866     1.0000 0.79971  0.72345  0.44783  Biso   1.000  C
  C867     1.0000 0.49447  0.76144  0.70840  Biso   1.000  C
  C868     1.0000 0.25004  0.47288  0.69417  Biso   1.000  C
  C869     1.0000 0.28981  0.70967  0.98726  Biso   1.000  C
  C870     1.0000 0.99469  0.77201  0.72751  Biso   1.000  C
  C871     1.0000 0.80020  0.96308  0.73127  Biso   1.000  C
  C872     1.0000 0.73573  0.22159  0.46918  Biso   1.000  C
  C873     1.0000 0.99662  0.24644  0.69380  Biso   1.000  C
  C874     1.0000 0.27291  0.01752  0.67565  Biso   1.000  C
  C875     1.0000 0.25730  0.20714  0.99377  Biso   1.000  C
  C876     1.0000 0.54102  0.26664  0.73393  Biso   1.000  C
  C877     1.0000 0.31523  0.52531  0.22750  Biso   1.000  C
  C878     1.0000 0.26685  0.27103  0.48874  Biso   1.000  C
  C879     1.0000 0.53959  0.19628  0.22820  Biso   1.000  C
  C880     1.0000 0.78748  0.48992  0.23975  Biso   1.000  C
  C881     1.0000 0.74795  0.24931  0.99134  Biso   1.000  C
  C882     1.0000 0.02968  0.19004  0.21972  Biso   1.000  C
  C883     1.0000 0.27020  0.02073  0.17447  Biso   1.000  C
  C884     1.0000 0.27463  0.77353  0.49439  Biso   1.000  C
  C885     1.0000 0.03443  0.71356  0.25152  Biso   1.000  C
  C886     1.0000 0.74602  0.98865  0.23562  Biso   1.000  C
  C887     1.0000 0.79686  0.75407  0.94683  Biso   1.000  C
  C888     1.0000 0.55361  0.72139  0.19004  Biso   1.000  C
  C889     1.0000 0.77473  0.96330  0.27039  Biso   1.000  C
  C890     1.0000 0.32324  0.74007  0.95987  Biso   1.000  C
  C891     1.0000 0.03185  0.27325  0.72193  Biso   1.000  C
  C892     1.0000 0.24216  0.98615  0.20424  Biso   1.000  C
  C893     1.0000 0.77046  0.69607  0.48325  Biso   1.000  C
  C894     1.0000 0.49942  0.24225  0.75618  Biso   1.000  C
  C895     1.0000 0.81560  0.45385  0.21369  Biso   1.000  C
  C896     1.0000 0.22738  0.23823  0.96301  Biso   1.000  C
  C897     1.0000 0.53919  0.74208  0.68554  Biso   1.000  C
  C898     1.0000 0.28264  0.49599  0.19767  Biso   1.000  C
  C899     1.0000 0.76411  0.19385  0.50223  Biso   1.000  C
  C900     1.0000 0.03061  0.74409  0.75296  Biso   1.000  C
  C901     1.0000 0.30352  0.98916  0.70861  Biso   1.000  C
  C902     1.0000 0.71979  0.21801  0.95845  Biso   1.000  C
  C903     1.0000 0.00017  0.68633  0.22238  Biso   1.000  C
  C904     1.0000 0.76957  0.98315  0.76874  Biso   1.000  C
  C905     1.0000 0.23882  0.24493  0.45314  Biso   1.000  C
  C906     1.0000 0.50945  0.69833  0.20859  Biso   1.000  C
  C907     1.0000 0.21960  0.50936  0.71910  Biso   1.000  C
  C908     1.0000 0.82364  0.72116  0.97770  Biso   1.000  C
  C909     1.0000 0.50974  0.22670  0.26108  Biso   1.000  C
  C910     1.0000 0.75312  0.49547  0.74457  Biso   1.000  C
  C911     1.0000 0.30270  0.73881  0.46621  Biso   1.000  C
  C912     1.0000 0.00062  0.21827  0.18630  Biso   1.000  C
  C913     1.0000 0.76838  0.48718  0.69586  Biso   1.000  C
  C914     1.0000 0.75278  0.74325  0.46846  Biso   1.000  C
  C915     1.0000 0.51953  0.72164  0.72987  Biso   1.000  C
  C916     1.0000 0.26704  0.49303  0.74239  Biso   1.000  C
  C917     1.0000 0.27607  0.75959  0.97505  Biso   1.000  C
  C918     1.0000 0.01066  0.72360  0.70717  Biso   1.000  C
  C919     1.0000 0.74921  0.97086  0.71811  Biso   1.000  C
  C920     1.0000 0.78419  0.24030  0.48055  Biso   1.000  C
  C921     1.0000 0.01661  0.22769  0.74105  Biso   1.000  C
  C922     1.0000 0.25505  0.00844  0.72395  Biso   1.000  C
  C923     1.0000 0.27249  0.25749  0.98282  Biso   1.000  C
  C924     1.0000 0.52290  0.22072  0.71280  Biso   1.000  C
  C925     1.0000 0.26703  0.51076  0.24540  Biso   1.000  C
  C926     1.0000 0.28401  0.22329  0.46955  Biso   1.000  C
  C927     1.0000 0.52094  0.24304  0.21070  Biso   1.000  C
  C928     1.0000 0.76944  0.46882  0.19522  Biso   1.000  C
  C929     1.0000 0.76710  0.20046  0.97851  Biso   1.000  C
  C930     1.0000 0.01596  0.24018  0.23224  Biso   1.000  C
  C931     1.0000 0.28953  0.00750  0.22448  Biso   1.000  C
  C932     1.0000 0.25189  0.72862  0.47986  Biso   1.000  C
  C933     1.0000 0.01813  0.73570  0.20790  Biso   1.000  C
  C934     1.0000 0.79312  0.97267  0.22077  Biso   1.000  C
  C935     1.0000 0.77425  0.70512  0.95403  Biso   1.000  C
  C936     1.0000 0.52731  0.74228  0.23631  Biso   1.000  C
  C937     1.0000 0.74415  0.22317  0.97613  Biso   1.000  C
  C938     1.0000 0.01692  0.71093  0.22761  Biso   1.000  C
  C939     1.0000 0.27902  0.00645  0.70292  Biso   1.000  C
  C940     1.0000 0.26210  0.24617  0.47148  Biso   1.000  C
  C941     1.0000 0.53136  0.71931  0.21187  Biso   1.000  C
  C942     1.0000 0.77302  0.97367  0.73979  Biso   1.000  C
  C943     1.0000 0.79984  0.72635  0.95877  Biso   1.000  C
  C944     1.0000 0.52390  0.22165  0.23463  Biso   1.000  C
  C945     1.0000 0.24522  0.49284  0.71683  Biso   1.000  C
  C946     1.0000 0.27666  0.74718  0.47865  Biso   1.000  C
  C947     1.0000 0.01495  0.21518  0.21225  Biso   1.000  C
  C948     1.0000 0.74557  0.48494  0.71769  Biso   1.000  C
  C949     1.0000 0.29685  0.73539  0.97400  Biso   1.000  C
  C950     1.0000 0.01409  0.25009  0.71850  Biso   1.000  C
  C951     1.0000 0.77103  0.97398  0.24308  Biso   1.000  C
  C952     1.0000 0.77454  0.72027  0.46566  Biso   1.000  C
  C953     1.0000 0.52128  0.24299  0.73476  Biso   1.000  C
  C954     1.0000 0.26691  0.00353  0.19989  Biso   1.000  C
  C955     1.0000 0.25177  0.23353  0.97912  Biso   1.000  C
  C956     1.0000 0.51863  0.74445  0.70793  Biso   1.000  C
  C957     1.0000 0.79100  0.46909  0.21759  Biso   1.000  C
  C958     1.0000 0.76040  0.21792  0.48503  Biso   1.000  C
  C959     1.0000 0.01252  0.74760  0.72918  Biso   1.000  C
  C960     1.0000 0.28852  0.51299  0.22108  Biso   1.000  C
  Cu1      1.0000 0.00953  0.48381  0.62327  Biso   1.000  Cu
  Cu2      1.0000 0.67304  0.98047  0.47989  Biso   1.000  Cu
  Cu3      1.0000 0.53180  0.63722  0.96817  Biso   1.000  Cu
  Cu4      1.0000 0.50809  0.48212  0.81970  Biso   1.000  Cu
  Cu5      1.0000 0.17660  0.99364  0.95965  Biso   1.000  Cu
  Cu6      1.0000 0.01445  0.63446  0.46823  Biso   1.000  Cu
  Cu7      1.0000 0.51651  0.98011  0.62988  Biso   1.000  Cu
  Cu8      1.0000 0.86137  0.48050  0.45865  Biso   1.000  Cu
  Cu9      1.0000 0.01722  0.13244  0.97477  Biso   1.000  Cu
  Cu10     1.0000 0.01713  0.98645  0.81590  Biso   1.000  Cu
  Cu11     1.0000 0.36579  0.49282  0.98174  Biso   1.000  Cu
  Cu12     1.0000 0.52405  0.12939  0.47312  Biso   1.000  Cu
  Cu13     1.0000 0.02352  0.47254  0.31739  Biso   1.000  Cu
  Cu14     1.0000 0.36531  0.98011  0.46565  Biso   1.000  Cu
  Cu15     1.0000 0.51107  0.32369  0.97336  Biso   1.000  Cu
  Cu16     1.0000 0.52302  0.48404  0.12484  Biso   1.000  Cu
  Cu17     1.0000 0.87151  0.97085  0.97455  Biso   1.000  Cu
  Cu18     1.0000 0.02306  0.32700  0.47344  Biso   1.000  Cu
  Cu19     1.0000 0.52547  0.98238  0.31995  Biso   1.000  Cu
  Cu20     1.0000 0.17634  0.48862  0.47781  Biso   1.000  Cu
  Cu21     1.0000 0.03289  0.82851  0.96778  Biso   1.000  Cu
  Cu22     1.0000 0.02556  0.97323  0.12264  Biso   1.000  Cu
  Cu23     1.0000 0.67247  0.46548  0.95728  Biso   1.000  Cu
  Cu24     1.0000 0.51994  0.82595  0.46665  Biso   1.000  Cu
  Cu25     1.0000 0.23266  0.99651  0.96018  Biso   1.000  Cu
  Cu26     1.0000 0.01107  0.18674  0.97467  Biso   1.000  Cu
  Cu27     1.0000 0.02741  0.97254  0.17820  Biso   1.000  Cu
  Cu28     1.0000 0.72728  0.97777  0.48200  Biso   1.000  Cu
  Cu29     1.0000 0.52186  0.18297  0.47405  Biso   1.000  Cu
  Cu30     1.0000 0.52920  0.98159  0.26576  Biso   1.000  Cu
  Cu31     1.0000 0.31183  0.49541  0.98378  Biso   1.000  Cu
  Cu32     1.0000 0.53377  0.68964  0.96554  Biso   1.000  Cu
  Cu33     1.0000 0.52894  0.48315  0.17884  Biso   1.000  Cu
  Cu34     1.0000 0.80761  0.47623  0.46017  Biso   1.000  Cu
  Cu35     1.0000 0.01486  0.68701  0.46629  Biso   1.000  Cu
  Cu36     1.0000 0.02871  0.47353  0.26288  Biso   1.000  Cu
  Cu37     1.0000 0.81592  0.96227  0.97681  Biso   1.000  Cu
  Cu38     1.0000 0.03697  0.77370  0.96535  Biso   1.000  Cu
  Cu39     1.0000 0.01578  0.98621  0.76166  Biso   1.000  Cu
  Cu40     1.0000 0.31126  0.98139  0.46512  Biso   1.000  Cu
  Cu41     1.0000 0.51662  0.77258  0.46951  Biso   1.000  Cu
  Cu42     1.0000 0.50939  0.97712  0.68172  Biso   1.000  Cu
  Cu43     1.0000 0.72515  0.46395  0.95713  Biso   1.000  Cu
  Cu44     1.0000 0.50491  0.26661  0.97615  Biso   1.000  Cu
  Cu45     1.0000 0.50617  0.47944  0.76404  Biso   1.000  Cu
  Cu46     1.0000 0.23002  0.48732  0.48145  Biso   1.000  Cu
  Cu47     1.0000 0.02467  0.27299  0.47504  Biso   1.000  Cu
  Cu48     1.0000 0.00566  0.48500  0.67696  Biso   1.000  Cu
  H1       1.0000 0.25562  0.77748  0.51016  Biso   1.000  H
  H2       1.0000 0.55734  0.26691  0.71727  Biso   1.000  H
  H3       1.0000 0.76883  0.50618  0.23997  Biso   1.000  H
  H4       1.0000 0.77678  0.75777  0.93485  Biso   1.000  H
  H5       1.0000 0.98279  0.22714  0.69347  Biso   1.000  H
  H6       1.0000 0.32053  0.53362  0.24844  Biso   1.000  H
  H7       1.0000 0.28502  0.27246  0.50362  Biso   1.000  H
  H8       1.0000 0.97925  0.77474  0.71049  Biso   1.000  H
  H9       1.0000 0.74019  0.99607  0.21400  Biso   1.000  H
  H10      1.0000 0.76738  0.25325  0.00438  Biso   1.000  H
  H11      1.0000 0.47792  0.76121  0.72524  Biso   1.000  H
  H12      1.0000 0.28914  0.03620  0.17348  Biso   1.000  H
  H13      1.0000 0.73266  0.24052  0.45522  Biso   1.000  H
  H14      1.0000 0.57002  0.73719  0.19309  Biso   1.000  H
  H15      1.0000 0.26859  0.45780  0.69226  Biso   1.000  H
  H16      1.0000 0.27744  0.20172  0.00535  Biso   1.000  H
  H17      1.0000 0.04885  0.73228  0.25577  Biso   1.000  H
  H18      1.0000 0.70962  0.46752  0.68954  Biso   1.000  H
  H19      1.0000 0.79847  0.74194  0.43491  Biso   1.000  H
  H20      1.0000 0.04298  0.18841  0.23835  Biso   1.000  H
  H21      1.0000 0.25273  0.02874  0.67238  Biso   1.000  H
  H22      1.0000 0.26783  0.70490  0.99497  Biso   1.000  H
  H23      1.0000 0.55104  0.18983  0.20862  Biso   1.000  H
  H24      1.0000 0.80198  0.95520  0.70807  Biso   1.000  H
  H25      1.0000 0.27385  0.04631  0.74860  Biso   1.000  H
  H26      1.0000 0.79097  0.22545  0.01073  Biso   1.000  H
  H27      1.0000 0.98920  0.71474  0.17885  Biso   1.000  H
  H28      1.0000 0.76556  0.93090  0.70077  Biso   1.000  H
  H29      1.0000 0.26482  0.19197  0.43736  Biso   1.000  H
  H30      1.0000 0.56387  0.76934  0.21966  Biso   1.000  H
  H31      1.0000 0.29805  0.51206  0.71443  Biso   1.000  H
  H32      1.0000 0.79980  0.67177  0.97101  Biso   1.000  H
  H33      1.0000 0.48880  0.26695  0.23185  Biso   1.000  H
  H34      1.0000 0.74199  0.50839  0.66497  Biso   1.000  H
  H35      1.0000 0.22688  0.75554  0.45546  Biso   1.000  H
  H36      1.0000 0.98254  0.22096  0.25728  Biso   1.000  H
  H37      1.0000 0.76907  0.93715  0.19967  Biso   1.000  H
  H38      1.0000 0.30338  0.78754  0.94796  Biso   1.000  H
  H39      1.0000 0.98160  0.24873  0.76170  Biso   1.000  H
  H40      1.0000 0.25972  0.98946  0.25415  Biso   1.000  H
  H41      1.0000 0.76922  0.76759  0.50718  Biso   1.000  H
  H42      1.0000 0.50381  0.18738  0.74189  Biso   1.000  H
  H43      1.0000 0.73877  0.44164  0.21743  Biso   1.000  H
  H44      1.0000 0.25267  0.28553  0.94916  Biso   1.000  H
  H45      1.0000 0.53451  0.68956  0.69938  Biso   1.000  H
  H46      1.0000 0.29608  0.48454  0.27390  Biso   1.000  H
  H47      1.0000 0.75737  0.26894  0.50500  Biso   1.000  H
  H48      1.0000 0.04006  0.69155  0.72913  Biso   1.000  H
  H49      1.0000 0.23490  0.53422  0.22045  Biso   1.000  H
  H50      1.0000 0.31135  0.24433  0.50237  Biso   1.000  H
  H51      1.0000 0.55286  0.22181  0.18364  Biso   1.000  H
  H52      1.0000 0.79773  0.49616  0.17151  Biso   1.000  H
  H53      1.0000 0.75165  0.17003  0.94432  Biso   1.000  H
  H54      1.0000 0.04536  0.26634  0.20526  Biso   1.000  H
  H55      1.0000 0.32582  0.02709  0.19862  Biso   1.000  H
  H56      1.0000 0.27014  0.70345  0.51372  Biso   1.000  H
  H57      1.0000 0.04670  0.76147  0.23274  Biso   1.000  H
  H58      1.0000 0.81663  0.01225  0.23568  Biso   1.000  H
  H59      1.0000 0.74631  0.73535  0.93611  Biso   1.000  H
  H60      1.0000 0.49456  0.71949  0.26178  Biso   1.000  H
  H61      1.0000 0.79772  0.46777  0.72702  Biso   1.000  H
  H62      1.0000 0.72959  0.72379  0.43141  Biso   1.000  H
  H63      1.0000 0.50638  0.74828  0.76336  Biso   1.000  H
  H64      1.0000 0.23895  0.46720  0.77200  Biso   1.000  H
  H65      1.0000 0.24860  0.74063  0.00980  Biso   1.000  H
  H66      1.0000 0.98394  0.74726  0.67619  Biso   1.000  H
  H67      1.0000 0.72959  0.00680  0.73609  Biso   1.000  H
  H68      1.0000 0.81203  0.21274  0.45252  Biso   1.000  H
  H69      1.0000 0.05063  0.20571  0.72138  Biso   1.000  H
  H70      1.0000 0.23480  0.97065  0.70398  Biso   1.000  H
  H71      1.0000 0.29840  0.23740  0.01532  Biso   1.000  H
  H72      1.0000 0.54562  0.24721  0.68024  Biso   1.000  H
  H73      1.0000 0.77560  0.50391  0.74981  Biso   1.000  H
  H74      1.0000 0.75016  0.69490  0.49611  Biso   1.000  H
  H75      1.0000 0.55844  0.72728  0.68493  Biso   1.000  H
  H76      1.0000 0.21549  0.52305  0.73705  Biso   1.000  H
  H77      1.0000 0.33092  0.75845  0.94730  Biso   1.000  H
  H78      1.0000 0.03940  0.72237  0.75829  Biso   1.000  H
  H79      1.0000 0.74790  0.99070  0.77693  Biso   1.000  H
  H80      1.0000 0.78562  0.19096  0.51157  Biso   1.000  H
  H81      1.0000 0.04558  0.27693  0.74078  Biso   1.000  H
  H82      1.0000 0.30842  0.97867  0.73129  Biso   1.000  H
  H83      1.0000 0.22461  0.25853  0.95133  Biso   1.000  H
  H84      1.0000 0.48140  0.22557  0.75570  Biso   1.000  H
  H85      1.0000 0.26027  0.48775  0.19688  Biso   1.000  H
  H86      1.0000 0.23869  0.22863  0.43566  Biso   1.000  H
  H87      1.0000 0.50152  0.24915  0.26750  Biso   1.000  H
  H88      1.0000 0.81779  0.44256  0.19335  Biso   1.000  H
  H89      1.0000 0.71630  0.19751  0.94603  Biso   1.000  H
  H90      1.0000 0.98739  0.23716  0.18168  Biso   1.000  H
  H91      1.0000 0.23898  0.97236  0.22259  Biso   1.000  H
  H92      1.0000 0.30280  0.71905  0.45491  Biso   1.000  H
  H93      1.0000 0.98815  0.68296  0.20280  Biso   1.000  H
  H94      1.0000 0.79526  0.95284  0.27606  Biso   1.000  H
  H95      1.0000 0.82274  0.70115  0.98949  Biso   1.000  H
  H96      1.0000 0.49148  0.69879  0.22308  Biso   1.000  H
  H97      1.0000 0.88682  0.96047  0.88416  Biso   1.000  H
  H98      1.0000 0.94294  0.83766  0.97468  Biso   1.000  H
  H99      1.0000 0.02292  0.89516  0.83079  Biso   1.000  H
  H100     1.0000 0.38561  0.97881  0.55507  Biso   1.000  H
  H101     1.0000 0.42778  0.85225  0.48092  Biso   1.000  H
  H102     1.0000 0.52148  0.88946  0.59993  Biso   1.000  H
  H103     1.0000 0.65128  0.47334  0.86978  Biso   1.000  H
  H104     1.0000 0.60433  0.33621  0.95674  Biso   1.000  H
  H105     1.0000 0.50617  0.39211  0.84196  Biso   1.000  H
  H106     1.0000 0.15008  0.47465  0.56719  Biso   1.000  H
  H107     1.0000 0.11489  0.35198  0.47864  Biso   1.000  H
  H108     1.0000 0.00897  0.38750  0.60679  Biso   1.000  H
  H109     1.0000 0.16074  0.97890  0.05022  Biso   1.000  H
  H110     1.0000 0.10686  0.12033  0.97244  Biso   1.000  H
  H111     1.0000 0.01404  0.06868  0.10419  Biso   1.000  H
  H112     1.0000 0.65755  0.98665  0.38740  Biso   1.000  H
  H113     1.0000 0.61019  0.11588  0.49129  Biso   1.000  H
  H114     1.0000 0.52127  0.07028  0.33682  Biso   1.000  H
  H115     1.0000 0.39247  0.49656  0.07376  Biso   1.000  H
  H116     1.0000 0.43721  0.61745  0.97561  Biso   1.000  H
  H117     1.0000 0.53565  0.57539  0.10303  Biso   1.000  H
  H118     1.0000 0.88668  0.47287  0.37618  Biso   1.000  H
  H119     1.0000 0.92175  0.61088  0.46077  Biso   1.000  H
  H120     1.0000 0.01328  0.56634  0.33714  Biso   1.000  H
  H121     1.0000 0.11036  0.98660  0.82867  Biso   1.000  H
  H122     1.0000 0.88299  0.05999  0.96943  Biso   1.000  H
  H123     1.0000 0.04294  0.84230  0.05746  Biso   1.000  H
  H124     1.0000 0.60404  0.96166  0.61004  Biso   1.000  H
  H125     1.0000 0.38560  0.07154  0.47818  Biso   1.000  H
  H126     1.0000 0.49905  0.85173  0.37925  Biso   1.000  H
  H127     1.0000 0.41740  0.49083  0.84201  Biso   1.000  H
  H128     1.0000 0.65816  0.56243  0.95308  Biso   1.000  H
  H129     1.0000 0.52012  0.34559  0.06403  Biso   1.000  H
  H130     1.0000 0.91888  0.48758  0.59874  Biso   1.000  H
  H131     1.0000 0.15430  0.57723  0.47731  Biso   1.000  H
  H132     1.0000 0.03566  0.33825  0.38596  Biso   1.000  H
  H133     1.0000 0.93266  0.96741  0.10604  Biso   1.000  H
  H134     1.0000 0.16355  0.90316  0.95351  Biso   1.000  H
  H135     1.0000 0.00677  0.11525  0.87978  Biso   1.000  H
  H136     1.0000 0.43424  0.98850  0.33272  Biso   1.000  H
  H137     1.0000 0.65022  0.89421  0.45317  Biso   1.000  H
  H138     1.0000 0.52889  0.11002  0.56634  Biso   1.000  H
  H139     1.0000 0.61624  0.48017  0.09653  Biso   1.000  H
  H140     1.0000 0.38132  0.40106  0.99392  Biso   1.000  H
  H141     1.0000 0.51241  0.61496  0.87304  Biso   1.000  H
  H142     1.0000 0.11693  0.47586  0.34402  Biso   1.000  H
  H143     1.0000 0.88364  0.39082  0.45818  Biso   1.000  H
  H144     1.0000 0.01489  0.61782  0.55695  Biso   1.000  H
  H145     1.0000 0.60417  0.47947  0.83492  Biso   1.000  H
  H146     1.0000 0.87891  0.57033  0.46053  Biso   1.000  H
  H147     1.0000 0.52838  0.84450  0.55607  Biso   1.000  H
  H148     1.0000 0.10265  0.48032  0.60773  Biso   1.000  H
  H149     1.0000 0.39061  0.58247  0.97448  Biso   1.000  H
  H150     1.0000 0.02257  0.85215  0.87610  Biso   1.000  H
  H151     1.0000 0.92755  0.97312  0.83964  Biso   1.000  H
  H152     1.0000 0.65187  0.06806  0.49004  Biso   1.000  H
  H153     1.0000 0.00604  0.34499  0.56392  Biso   1.000  H
  H154     1.0000 0.42619  0.98636  0.60451  Biso   1.000  H
  H155     1.0000 0.15316  0.08170  0.96437  Biso   1.000  H
  H156     1.0000 0.49486  0.34557  0.88332  Biso   1.000  H
  H157     1.0000 0.43079  0.49404  0.10935  Biso   1.000  H
  H158     1.0000 0.15711  0.39616  0.47613  Biso   1.000  H
  H159     1.0000 0.51957  0.11468  0.38043  Biso   1.000  H
  H160     1.0000 0.93236  0.47059  0.33384  Biso   1.000  H
  H161     1.0000 0.64342  0.37469  0.95264  Biso   1.000  H
  H162     1.0000 0.01430  0.10975  0.06372  Biso   1.000  H
  H163     1.0000 0.11866  0.98041  0.09739  Biso   1.000  H
  H164     1.0000 0.38378  0.89321  0.47090  Biso   1.000  H
  H165     1.0000 0.01578  0.60982  0.37631  Biso   1.000  H
  H166     1.0000 0.61592  0.98360  0.34126  Biso   1.000  H
  H167     1.0000 0.89867  0.87723  0.96935  Biso   1.000  H
  H168     1.0000 0.53875  0.61510  0.06054  Biso   1.000  H
  H169     1.0000 0.01806  0.07429  0.83549  Biso   1.000  H
  H170     1.0000 0.89177  0.96339  0.06826  Biso   1.000  H
  H171     1.0000 0.12426  0.85963  0.96571  Biso   1.000  H
  H172     1.0000 0.52207  0.06945  0.61003  Biso   1.000  H
  H173     1.0000 0.39093  0.98837  0.37931  Biso   1.000  H
  H174     1.0000 0.60567  0.84602  0.44735  Biso   1.000  H
  H175     1.0000 0.50921  0.57200  0.83311  Biso   1.000  H
  H176     1.0000 0.65653  0.47447  0.05178  Biso   1.000  H
  H177     1.0000 0.42489  0.35414  0.98596  Biso   1.000  H
  H178     1.0000 0.01170  0.57171  0.60267  Biso   1.000  H
  H179     1.0000 0.16149  0.48029  0.39010  Biso   1.000  H
  H180     1.0000 0.92900  0.34670  0.46276  Biso   1.000  H
  H181     1.0000 0.03771  0.88251  0.10115  Biso   1.000  H
  H182     1.0000 0.15312  0.99253  0.86720  Biso   1.000  H
  H183     1.0000 0.92317  0.10281  0.98211  Biso   1.000  H
  H184     1.0000 0.51453  0.89605  0.33599  Biso   1.000  H
  H185     1.0000 0.65074  0.96164  0.56964  Biso   1.000  H
  H186     1.0000 0.42856  0.11123  0.46924  Biso   1.000  H
  H187     1.0000 0.51562  0.38895  0.10575  Biso   1.000  H
  H188     1.0000 0.37972  0.49666  0.88705  Biso   1.000  H
  H189     1.0000 0.61813  0.60719  0.94911  Biso   1.000  H
  H190     1.0000 0.03337  0.38296  0.33599  Biso   1.000  H
  H191     1.0000 0.87981  0.48048  0.55522  Biso   1.000  H
  H192     1.0000 0.10486  0.61859  0.46907  Biso   1.000  H
  H193     1.0000 0.28853  0.83176  0.46166  Biso   1.000  H
  H194     1.0000 0.51087  0.25091  0.82935  Biso   1.000  H
  H195     1.0000 0.88711  0.46703  0.23350  Biso   1.000  H
  H196     1.0000 0.80509  0.82048  0.98344  Biso   1.000  H
  H197     1.0000 0.02281  0.25348  0.62432  Biso   1.000  H
  H198     1.0000 0.38911  0.50498  0.21340  Biso   1.000  H
  H199     1.0000 0.25429  0.34111  0.47578  Biso   1.000  H
  H200     1.0000 0.01584  0.75629  0.82288  Biso   1.000  H
  H201     1.0000 0.67420  0.97557  0.24884  Biso   1.000  H
  H202     1.0000 0.73831  0.31935  0.95243  Biso   1.000  H
  H203     1.0000 0.51237  0.75086  0.61134  Biso   1.000  H
  H204     1.0000 0.17195  0.99769  0.19245  Biso   1.000  H
  H205     1.0000 0.75051  0.12007  0.48691  Biso   1.000  H
  H206     1.0000 0.53292  0.71283  0.11116  Biso   1.000  H
  H207     1.0000 0.14902  0.48176  0.70733  Biso   1.000  H
  H208     1.0000 0.24616  0.14004  0.96726  Biso   1.000  H
  H209     1.0000 0.01286  0.70261  0.32029  Biso   1.000  H
  H210     1.0000 0.64870  0.49416  0.73329  Biso   1.000  H
  H211     1.0000 0.78385  0.62717  0.47460  Biso   1.000  H
  H212     1.0000 0.01593  0.20514  0.11947  Biso   1.000  H
  H213     1.0000 0.36902  0.01403  0.69105  Biso   1.000  H
  H214     1.0000 0.29786  0.64083  0.96909  Biso   1.000  H
  H215     1.0000 0.52660  0.21193  0.33286  Biso   1.000  H
  H216     1.0000 0.86959  0.98824  0.74931  Biso   1.000  H
  H217     1.0000 0.24934  0.51666  0.33983  Biso   1.000  H
  H218     1.0000 0.37871  0.20939  0.46903  Biso   1.000  H
  H219     1.0000 0.53662  0.34158  0.20316  Biso   1.000  H
  H220     1.0000 0.75732  0.47733  0.09879  Biso   1.000  H
  H221     1.0000 0.86491  0.19570  0.98340  Biso   1.000  H
  H222     1.0000 0.02086  0.32637  0.24363  Biso   1.000  H
  H223     1.0000 0.30309  0.01694  0.32207  Biso   1.000  H
  H224     1.0000 0.15434  0.71606  0.47275  Biso   1.000  H
  H225     1.0000 0.02064  0.83224  0.19626  Biso   1.000  H
  H226     1.0000 0.79542  0.97216  0.12431  Biso   1.000  H
  H227     1.0000 0.67966  0.69858  0.95247  Biso   1.000  H
  H228     1.0000 0.53018  0.83987  0.24382  Biso   1.000  H
  H229     1.0000 0.78523  0.47210  0.60526  Biso   1.000  H
  H230     1.0000 0.66133  0.75260  0.46064  Biso   1.000  H
  H231     1.0000 0.50159  0.62902  0.74163  Biso   1.000  H
  H232     1.0000 0.28140  0.49737  0.83737  Biso   1.000  H
  H233     1.0000 0.18309  0.76747  0.97848  Biso   1.000  H
  H234     1.0000 0.00304  0.62831  0.69455  Biso   1.000  H
  H235     1.0000 0.74395  0.96948  0.62863  Biso   1.000  H
  H236     1.0000 0.87501  0.25306  0.47287  Biso   1.000  H
  H237     1.0000 0.01096  0.13082  0.74368  Biso   1.000  H
  H238     1.0000 0.24421  0.00553  0.80984  Biso   1.000  H
  H239     1.0000 0.36306  0.26319  0.97774  Biso   1.000  H
  H240     1.0000 0.52830  0.12225  0.70692  Biso   1.000  H
  H241     1.0000 0.74182  0.47614  0.81044  Biso   1.000  H
  H242     1.0000 0.87253  0.70896  0.47181  Biso   1.000  H
  H243     1.0000 0.50918  0.83345  0.69793  Biso   1.000  H
  H244     1.0000 0.23576  0.50120  0.62740  Biso   1.000  H
  H245     1.0000 0.39352  0.72004  0.97511  Biso   1.000  H
  H246     1.0000 0.01761  0.84222  0.73872  Biso   1.000  H
  H247     1.0000 0.78990  0.95583  0.83437  Biso   1.000  H
  H248     1.0000 0.66683  0.21019  0.48244  Biso   1.000  H
  H249     1.0000 0.01058  0.34377  0.70639  Biso   1.000  H
  H250     1.0000 0.28520  0.98166  0.60423  Biso   1.000  H
  H251     1.0000 0.15358  0.22204  0.98486  Biso   1.000  H
  H252     1.0000 0.52314  0.33674  0.74498  Biso   1.000  H
  H253     1.0000 0.29803  0.51326  0.12801  Biso   1.000  H
  H254     1.0000 0.16605  0.25721  0.48085  Biso   1.000  H
  H255     1.0000 0.52337  0.12601  0.24319  Biso   1.000  H
  H256     1.0000 0.79730  0.47942  0.30886  Biso   1.000  H
  H257     1.0000 0.64951  0.23685  0.97016  Biso   1.000  H
  H258     1.0000 0.01175  0.11156  0.20651  Biso   1.000  H
  H259     1.0000 0.25528  0.00487  0.10159  Biso   1.000  H
  H260     1.0000 0.37568  0.75424  0.47978  Biso   1.000  H
  H261     1.0000 0.01366  0.61696  0.23743  Biso   1.000  H
  H262     1.0000 0.75702  0.99447  0.33646  Biso   1.000  H
  H263     1.0000 0.89175  0.73978  0.96917  Biso   1.000  H
  H264     1.0000 0.52430  0.62764  0.20156  Biso   1.000  H
  H265     1.0000 0.00929  0.21300  0.83093  Biso   1.000  H
  H266     1.0000 0.88526  0.95384  0.20512  Biso   1.000  H
  H267     1.0000 0.26016  0.85988  0.97544  Biso   1.000  H
  H268     1.0000 0.52429  0.20810  0.61738  Biso   1.000  H
  H269     1.0000 0.38884  0.99866  0.23383  Biso   1.000  H
  H270     1.0000 0.74722  0.83934  0.46509  Biso   1.000  H
  H271     1.0000 0.53805  0.70849  0.82081  Biso   1.000  H
  H272     1.0000 0.67668  0.49107  0.18634  Biso   1.000  H
  H273     1.0000 0.28190  0.35461  0.98458  Biso   1.000  H
  H274     1.0000 0.01564  0.71375  0.60793  Biso   1.000  H
  H275     1.0000 0.17144  0.49570  0.25052  Biso   1.000  H
  H276     1.0000 0.79057  0.33236  0.46236  Biso   1.000  H
  H277     1.0000 0.04021  0.74441  0.11156  Biso   1.000  H
  H278     1.0000 0.15347  0.00403  0.72809  Biso   1.000  H
  H279     1.0000 0.78652  0.11038  0.97577  Biso   1.000  H
  H280     1.0000 0.51287  0.75224  0.32840  Biso   1.000  H
  H281     1.0000 0.65758  0.97175  0.70907  Biso   1.000  H
  H282     1.0000 0.29035  0.12543  0.47339  Biso   1.000  H
  H283     1.0000 0.50826  0.25207  0.11982  Biso   1.000  H
  H284     1.0000 0.36228  0.47818  0.74832  Biso   1.000  H
  H285     1.0000 0.76097  0.60481  0.95056  Biso   1.000  H
  H286     1.0000 0.02943  0.24420  0.32966  Biso   1.000  H
  H287     1.0000 0.86178  0.50100  0.68935  Biso   1.000  H
  H288     1.0000 0.24444  0.63678  0.47744  Biso   1.000  H
  H289     1.0000 0.09865  0.21517  0.97827  Biso   1.000  H
  H290     1.0000 0.00811  0.05793  0.19961  Biso   1.000  H
  H291     1.0000 0.25332  0.99952  0.04748  Biso   1.000  H
  H292     1.0000 0.61291  0.21059  0.48734  Biso   1.000  H
  H293     1.0000 0.51934  0.06941  0.24283  Biso   1.000  H
  H294     1.0000 0.75705  0.98868  0.38989  Biso   1.000  H
  H295     1.0000 0.44884  0.71347  0.97396  Biso   1.000  H
  H296     1.0000 0.52169  0.57245  0.19626  Biso   1.000  H
  H297     1.0000 0.29593  0.51414  0.07464  Biso   1.000  H
  H298     1.0000 0.92867  0.70665  0.47416  Biso   1.000  H
  H299     1.0000 0.00889  0.55918  0.24136  Biso   1.000  H
  H300     1.0000 0.79134  0.48481  0.36134  Biso   1.000  H
  H301     1.0000 0.94864  0.74294  0.96951  Biso   1.000  H
  H302     1.0000 0.01321  0.89404  0.73865  Biso   1.000  H
  H303     1.0000 0.79191  0.95698  0.88769  Biso   1.000  H
  H304     1.0000 0.42958  0.75731  0.48336  Biso   1.000  H
  H305     1.0000 0.51306  0.88621  0.69618  Biso   1.000  H
  H306     1.0000 0.29098  0.97647  0.54999  Biso   1.000  H
  H307     1.0000 0.59546  0.23919  0.96531  Biso   1.000  H
  H308     1.0000 0.51713  0.39165  0.74436  Biso   1.000  H
  H309     1.0000 0.74555  0.46609  0.86475  Biso   1.000  H
  H310     1.0000 0.11052  0.25834  0.48217  Biso   1.000  H
  H311     1.0000 0.00572  0.39256  0.70326  Biso   1.000  H
  H312     1.0000 0.24246  0.49817  0.57303  Biso   1.000  H
  H313     1.0000 0.24799  0.00598  0.86438  Biso   1.000  H
  H314     1.0000 0.91930  0.20028  0.98103  Biso   1.000  H
  H315     1.0000 0.02157  0.88639  0.19453  Biso   1.000  H
  H316     1.0000 0.74710  0.97532  0.57296  Biso   1.000  H
  H317     1.0000 0.43536  0.20533  0.46858  Biso   1.000  H
  H318     1.0000 0.53782  0.89208  0.24406  Biso   1.000  H
  H319     1.0000 0.28339  0.50231  0.88812  Biso   1.000  H
  H320     1.0000 0.62716  0.70141  0.95553  Biso   1.000  H
  H321     1.0000 0.53802  0.39421  0.19901  Biso   1.000  H
  H322     1.0000 0.78464  0.47045  0.55163  Biso   1.000  H
  H323     1.0000 0.10258  0.71337  0.46802  Biso   1.000  H
  H324     1.0000 0.01760  0.37991  0.24259  Biso   1.000  H
  H325     1.0000 0.79716  0.97003  0.06903  Biso   1.000  H
  H326     1.0000 0.12931  0.76407  0.97571  Biso   1.000  H
  H327     1.0000 0.01644  0.08106  0.74164  Biso   1.000  H
  H328     1.0000 0.29870  0.00714  0.37424  Biso   1.000  H
  H329     1.0000 0.60551  0.75192  0.45190  Biso   1.000  H
  H330     1.0000 0.52723  0.06792  0.70558  Biso   1.000  H
  H331     1.0000 0.75430  0.47239  0.04786  Biso   1.000  H
  H332     1.0000 0.41507  0.25718  0.97673  Biso   1.000  H
  H333     1.0000 0.50263  0.57007  0.73740  Biso   1.000  H
  H334     1.0000 0.25238  0.51026  0.38884  Biso   1.000  H
  H335     1.0000 0.93025  0.24986  0.46763  Biso   1.000  H
  H336     1.0000 0.99877  0.57627  0.69715  Biso   1.000  H
  H337     1.0000 0.00851  0.20789  0.88955  Biso   1.000  H
  H338     1.0000 0.94173  0.94934  0.20046  Biso   1.000  H
  H339     1.0000 0.25553  0.91290  0.96764  Biso   1.000  H
  H340     1.0000 0.51960  0.20341  0.56164  Biso   1.000  H
  H341     1.0000 0.44044  0.98754  0.23792  Biso   1.000  H
  H342     1.0000 0.74630  0.89359  0.46472  Biso   1.000  H
  H343     1.0000 0.54414  0.70550  0.87626  Biso   1.000  H
  H344     1.0000 0.62290  0.49553  0.19060  Biso   1.000  H
  H345     1.0000 0.28679  0.40876  0.98385  Biso   1.000  H
  H346     1.0000 0.01830  0.71314  0.55803  Biso   1.000  H
  H347     1.0000 0.12414  0.48131  0.24639  Biso   1.000  H
  H348     1.0000 0.78863  0.38618  0.45295  Biso   1.000  H
  H349     1.0000 0.04546  0.74689  0.05574  Biso   1.000  H
  H350     1.0000 0.10326  0.99092  0.73341  Biso   1.000  H
  H351     1.0000 0.78814  0.05600  0.97264  Biso   1.000  H
  H352     1.0000 0.49861  0.75595  0.38333  Biso   1.000  H
  H353     1.0000 0.59983  0.96389  0.70697  Biso   1.000  H
  H354     1.0000 0.29078  0.06898  0.47580  Biso   1.000  H
  H355     1.0000 0.50667  0.25144  0.06480  Biso   1.000  H
  H356     1.0000 0.41434  0.47665  0.74613  Biso   1.000  H
  H357     1.0000 0.75437  0.55362  0.95110  Biso   1.000  H
  H358     1.0000 0.03081  0.24441  0.38668  Biso   1.000  H
  H359     1.0000 0.91307  0.49914  0.69444  Biso   1.000  H
  H360     1.0000 0.25174  0.58489  0.47924  Biso   1.000  H
  H361     1.0000 0.00485  0.70625  0.37252  Biso   1.000  H
  H362     1.0000 0.41810  0.00282  0.69736  Biso   1.000  H
  H363     1.0000 0.74055  0.37448  0.95845  Biso   1.000  H
  H364     1.0000 0.53190  0.70980  0.05719  Biso   1.000  H
  H365     1.0000 0.92144  0.99591  0.74778  Biso   1.000  H
  H366     1.0000 0.25123  0.39403  0.47854  Biso   1.000  H
  H367     1.0000 0.52910  0.20909  0.38387  Biso   1.000  H
  H368     1.0000 0.09511  0.47600  0.70245  Biso   1.000  H
  H369     1.0000 0.80429  0.87346  0.98591  Biso   1.000  H
  H370     1.0000 0.01516  0.20439  0.06631  Biso   1.000  H
  H371     1.0000 0.59725  0.49807  0.74004  Biso   1.000  H
  H372     1.0000 0.28650  0.88482  0.45610  Biso   1.000  H
  H373     1.0000 0.02532  0.25299  0.56754  Biso   1.000  H
  H374     1.0000 0.62085  0.97359  0.24822  Biso   1.000  H
  H375     1.0000 0.29369  0.58987  0.97666  Biso   1.000  H
  H376     1.0000 0.49909  0.25217  0.88202  Biso   1.000  H
  H377     1.0000 0.11618  0.99712  0.19068  Biso   1.000  H
  H378     1.0000 0.78161  0.57129  0.46888  Biso   1.000  H
  H379     1.0000 0.51491  0.75192  0.55812  Biso   1.000  H
  H380     1.0000 0.94142  0.46317  0.23860  Biso   1.000  H
  H381     1.0000 0.24951  0.09183  0.95612  Biso   1.000  H
  H382     1.0000 0.02076  0.75666  0.87700  Biso   1.000  H
  H383     1.0000 0.43895  0.49145  0.20458  Biso   1.000  H
  H384     1.0000 0.74824  0.06847  0.48997  Biso   1.000  H
  H385     1.0000 0.25666  0.47570  0.30819  Biso   1.000  H
  H386     1.0000 0.29773  0.15471  0.44469  Biso   1.000  H
  H387     1.0000 0.49417  0.31115  0.20080  Biso   1.000  H
  H388     1.0000 0.70011  0.45146  0.18321  Biso   1.000  H
  H389     1.0000 0.83077  0.19295  0.01449  Biso   1.000  H
  H390     1.0000 0.99052  0.25783  0.30018  Biso   1.000  H
  H391     1.0000 0.29641  0.98208  0.29474  Biso   1.000  H
  H392     1.0000 0.18711  0.72023  0.44934  Biso   1.000  H
  H393     1.0000 0.99084  0.75177  0.14105  Biso   1.000  H
  H394     1.0000 0.80220  0.93325  0.15925  Biso   1.000  H
  H395     1.0000 0.76556  0.63615  0.97097  Biso   1.000  H
  H396     1.0000 0.55943  0.80585  0.25697  Biso   1.000  H
  H397     1.0000 0.78180  0.51538  0.62882  Biso   1.000  H
  H398     1.0000 0.73438  0.80744  0.50060  Biso   1.000  H
  H399     1.0000 0.54366  0.65368  0.73365  Biso   1.000  H
  H400     1.0000 0.33533  0.51818  0.75406  Biso   1.000  H
  H401     1.0000 0.26764  0.82627  0.94379  Biso   1.000  H
  H402     1.0000 0.04072  0.65834  0.69259  Biso   1.000  H
  H403     1.0000 0.72750  0.92955  0.66076  Biso   1.000  H
  H404     1.0000 0.80018  0.30687  0.50661  Biso   1.000  H
  H405     1.0000 0.97493  0.20806  0.79863  Biso   1.000  H
  H406     1.0000 0.22986  0.04824  0.77789  Biso   1.000  H
  H407     1.0000 0.28945  0.32195  0.94878  Biso   1.000  H
  H408     1.0000 0.50198  0.15207  0.70703  Biso   1.000  H
  H409     1.0000 0.30312  0.47598  0.15954  Biso   1.000  H
  H410     1.0000 0.19845  0.25873  0.44034  Biso   1.000  H
  H411     1.0000 0.49440  0.21062  0.30139  Biso   1.000  H
  H412     1.0000 0.85519  0.43959  0.23099  Biso   1.000  H
  H413     1.0000 0.67997  0.23568  0.94043  Biso   1.000  H
  H414     1.0000 0.98231  0.19849  0.14950  Biso   1.000  H
  H415     1.0000 0.20154  0.97096  0.18600  Biso   1.000  H
  H416     1.0000 0.34597  0.75446  0.45077  Biso   1.000  H
  H417     1.0000 0.98172  0.64690  0.24272  Biso   1.000  H
  H418     1.0000 0.75736  0.95832  0.31399  Biso   1.000  H
  H419     1.0000 0.85980  0.73788  0.00007  Biso   1.000  H
  H420     1.0000 0.49136  0.66610  0.18466  Biso   1.000  H
  H421     1.0000 0.73526  0.51319  0.78518  Biso   1.000  H
  H422     1.0000 0.78940  0.65809  0.50093  Biso   1.000  H
  H423     1.0000 0.55419  0.75986  0.64761  Biso   1.000  H
  H424     1.0000 0.18074  0.52270  0.69896  Biso   1.000  H
  H425     1.0000 0.36446  0.72415  0.95115  Biso   1.000  H
  H426     1.0000 0.04727  0.75947  0.79387  Biso   1.000  H
  H427     1.0000 0.78788  0.99027  0.81138  Biso   1.000  H
  H428     1.0000 0.74698  0.15244  0.51618  Biso   1.000  H
  H429     1.0000 0.04773  0.31300  0.70081  Biso   1.000  H
  H430     1.0000 0.34272  0.97161  0.68962  Biso   1.000  H
  H431     1.0000 0.18786  0.22348  0.94572  Biso   1.000  H
  H432     1.0000 0.47979  0.25804  0.79413  Biso   1.000  H
  H433     1.0000 0.28871  0.02486  0.63061  Biso   1.000  H
  H434     1.0000 0.73239  0.29221  0.99812  Biso   1.000  H
  H435     1.0000 0.04832  0.69384  0.29117  Biso   1.000  H
  H436     1.0000 0.84313  0.95270  0.74366  Biso   1.000  H
  H437     1.0000 0.24743  0.31072  0.50340  Biso   1.000  H
  H438     1.0000 0.57308  0.70310  0.15194  Biso   1.000  H
  H439     1.0000 0.23246  0.45361  0.65616  Biso   1.000  H
  H440     1.0000 0.81483  0.79620  0.93753  Biso   1.000  H
  H441     1.0000 0.55061  0.15739  0.24403  Biso   1.000  H
  H442     1.0000 0.67664  0.46250  0.73094  Biso   1.000  H
  H443     1.0000 0.29293  0.81243  0.50731  Biso   1.000  H
  H444     1.0000 0.03533  0.14464  0.20501  Biso   1.000  H
  H445     1.0000 0.70321  0.00338  0.24874  Biso   1.000  H
  H446     1.0000 0.30378  0.66804  0.00123  Biso   1.000  H
  H447     1.0000 0.98144  0.26396  0.65455  Biso   1.000  H
  H448     1.0000 0.25156  0.03177  0.13265  Biso   1.000  H
  H449     1.0000 0.83695  0.70158  0.43128  Biso   1.000  H
  H450     1.0000 0.55485  0.30633  0.75413  Biso   1.000  H
  H451     1.0000 0.80707  0.50845  0.27699  Biso   1.000  H
  H452     1.0000 0.24050  0.16661  0.00528  Biso   1.000  H
  H453     1.0000 0.47643  0.79743  0.68532  Biso   1.000  H
  H454     1.0000 0.35728  0.53914  0.20777  Biso   1.000  H
  H455     1.0000 0.69632  0.20043  0.45348  Biso   1.000  H
  H456     1.0000 0.98359  0.81182  0.74359  Biso   1.000  H
  H457     1.0000 0.69205  0.76048  0.42775  Biso   1.000  H
  H458     1.0000 0.50062  0.70676  0.79908  Biso   1.000  H
  H459     1.0000 0.83608  0.46445  0.68693  Biso   1.000  H
  H460     1.0000 0.21225  0.77757  0.00431  Biso   1.000  H
  H461     1.0000 0.97831  0.70953  0.64177  Biso   1.000  H
  H462     1.0000 0.27681  0.46486  0.80880  Biso   1.000  H
  H463     1.0000 0.84695  0.25115  0.44454  Biso   1.000  H
  H464     1.0000 0.04816  0.16314  0.75338  Biso   1.000  H
  H465     1.0000 0.69065  0.00924  0.69651  Biso   1.000  H
  H466     1.0000 0.33442  0.27521  0.01508  Biso   1.000  H
  H467     1.0000 0.55416  0.21190  0.64701  Biso   1.000  H
  H468     1.0000 0.19279  0.97298  0.73863  Biso   1.000  H
  H469     1.0000 0.34558  0.21066  0.50839  Biso   1.000  H
  H470     1.0000 0.55298  0.25977  0.14551  Biso   1.000  H
  H471     1.0000 0.19730  0.53137  0.25826  Biso   1.000  H
  H472     1.0000 0.78648  0.13662  0.94995  Biso   1.000  H
  H473     1.0000 0.05862  0.29734  0.24810  Biso   1.000  H
  H474     1.0000 0.75965  0.50534  0.13046  Biso   1.000  H
  H475     1.0000 0.23306  0.66464  0.51179  Biso   1.000  H
  H476     1.0000 0.05404  0.79783  0.19679  Biso   1.000  H
  H477     1.0000 0.36098  0.02426  0.23454  Biso   1.000  H
  H478     1.0000 0.70920  0.70013  0.92151  Biso   1.000  H
  H479     1.0000 0.48450  0.75787  0.29540  Biso   1.000  H
  H480     1.0000 0.85702  0.00267  0.20025  Biso   1.000  H
  N1       1.0000 0.69769  0.15566  0.48905  Biso   1.000  N
  N2       1.0000 0.53494  0.66067  0.14668  Biso   1.000  N
  N3       1.0000 0.18381  0.48751  0.65435  Biso   1.000  N
  N4       1.0000 0.18963  0.17045  0.97575  Biso   1.000  N
  N5       1.0000 0.01296  0.64948  0.29011  Biso   1.000  N
  N6       1.0000 0.68576  0.48406  0.78276  Biso   1.000  N
  N7       1.0000 0.83816  0.65607  0.46898  Biso   1.000  N
  N8       1.0000 0.01582  0.14960  0.15352  Biso   1.000  N
  N9       1.0000 0.33896  0.99536  0.63851  Biso   1.000  N
  N10      1.0000 0.35639  0.66975  0.97369  Biso   1.000  N
  N11      1.0000 0.52275  0.15825  0.29511  Biso   1.000  N
  N12      1.0000 0.83981  0.97064  0.80063  Biso   1.000  N
  N13      1.0000 0.34263  0.80633  0.47297  Biso   1.000  N
  N14      1.0000 0.51654  0.30500  0.79834  Biso   1.000  N
  N15      1.0000 0.85175  0.47265  0.28293  Biso   1.000  N
  N16      1.0000 0.85804  0.79142  0.97256  Biso   1.000  N
  N17      1.0000 0.01503  0.30747  0.65165  Biso   1.000  N
  N18      1.0000 0.35012  0.50535  0.15961  Biso   1.000  N
  N19      1.0000 0.19954  0.30934  0.47433  Biso   1.000  N
  N20      1.0000 0.01785  0.80985  0.79185  Biso   1.000  N
  N21      1.0000 0.70658  0.98454  0.30395  Biso   1.000  N
  N22      1.0000 0.68539  0.28769  0.96258  Biso   1.000  N
  N23      1.0000 0.51535  0.80374  0.64248  Biso   1.000  N
  N24      1.0000 0.20388  0.99665  0.13577  Biso   1.000  N
  N25      1.0000 0.83351  0.48811  0.63718  Biso   1.000  N
  N26      1.0000 0.69144  0.80625  0.46209  Biso   1.000  N
  N27      1.0000 0.52046  0.65684  0.78964  Biso   1.000  N
  N28      1.0000 0.33187  0.49064  0.80354  Biso   1.000  N
  N29      1.0000 0.21199  0.82126  0.97077  Biso   1.000  N
  N30      1.0000 0.00974  0.66066  0.64346  Biso   1.000  N
  N31      1.0000 0.68822  0.96910  0.65619  Biso   1.000  N
  N32      1.0000 0.84552  0.30271  0.47081  Biso   1.000  N
  N33      1.0000 0.01099  0.16220  0.79745  Biso   1.000  N
  N34      1.0000 0.19002  0.00887  0.78234  Biso   1.000  N
  N35      1.0000 0.33547  0.31804  0.98284  Biso   1.000  N
  N36      1.0000 0.52773  0.15527  0.65113  Biso   1.000  N
  N37      1.0000 0.20152  0.50252  0.30456  Biso   1.000  N
  N38      1.0000 0.34502  0.15862  0.47542  Biso   1.000  N
  N39      1.0000 0.52313  0.30684  0.15062  Biso   1.000  N
  N40      1.0000 0.70447  0.48175  0.13594  Biso   1.000  N
  N41      1.0000 0.83610  0.14274  0.98204  Biso   1.000  N
  N42      1.0000 0.02985  0.29686  0.29738  Biso   1.000  N
  N43      1.0000 0.35275  0.00333  0.28818  Biso   1.000  N
  N44      1.0000 0.19011  0.66591  0.47434  Biso   1.000  N
  N45      1.0000 0.02907  0.79876  0.14436  Biso   1.000  N
  N46      1.0000 0.85149  0.96566  0.15443  Biso   1.000  N
  N47      1.0000 0.70793  0.64397  0.95060  Biso   1.000  N
  N48      1.0000 0.52200  0.80690  0.29831  Biso   1.000  N
  O1       1.0000 0.36558  0.53587  0.98237  Biso   1.000  O
  O2       1.0000 0.01278  0.32336  0.51654  Biso   1.000  O
  O3       1.0000 0.56848  0.98327  0.31769  Biso   1.000  O
  O4       1.0000 0.85422  0.52116  0.45651  Biso   1.000  O
  O5       1.0000 0.50470  0.32172  0.93151  Biso   1.000  O
  O6       1.0000 0.06927  0.97634  0.12224  Biso   1.000  O
  O7       1.0000 0.17913  0.03647  0.96462  Biso   1.000  O
  O8       1.0000 0.52913  0.82223  0.50694  Biso   1.000  O
  O9       1.0000 0.98215  0.47271  0.31370  Biso   1.000  O
  O10      1.0000 0.67582  0.02213  0.48414  Biso   1.000  O
  O11      1.0000 0.02990  0.82684  0.92587  Biso   1.000  O
  O12      1.0000 0.48217  0.48855  0.12969  Biso   1.000  O
  O13      1.0000 0.66955  0.42377  0.96254  Biso   1.000  O
  O14      1.0000 0.01749  0.63597  0.42466  Biso   1.000  O
  O15      1.0000 0.47292  0.97827  0.63091  Biso   1.000  O
  O16      1.0000 0.18116  0.44618  0.47491  Biso   1.000  O
  O17      1.0000 0.53219  0.63940  0.01036  Biso   1.000  O
  O18      1.0000 0.97611  0.98706  0.81388  Biso   1.000  O
  O19      1.0000 0.87379  0.92669  0.97687  Biso   1.000  O
  O20      1.0000 0.52747  0.13459  0.43184  Biso   1.000  O
  O21      1.0000 0.05013  0.48025  0.62917  Biso   1.000  O
  O22      1.0000 0.35983  0.93766  0.46171  Biso   1.000  O
  O23      1.0000 0.01963  0.13388  0.01623  Biso   1.000  O
  O24      1.0000 0.54875  0.48200  0.81247  Biso   1.000  O
  O25      1.0000 0.98605  0.96713  0.12911  Biso   1.000  O
  O26      1.0000 0.18358  0.95187  0.95387  Biso   1.000  O
  O27      1.0000 0.01456  0.13785  0.93471  Biso   1.000  O
  O28      1.0000 0.48342  0.98055  0.31347  Biso   1.000  O
  O29      1.0000 0.67673  0.93898  0.47187  Biso   1.000  O
  O30      1.0000 0.52389  0.13245  0.51648  Biso   1.000  O
  O31      1.0000 0.56636  0.48358  0.12476  Biso   1.000  O
  O32      1.0000 0.36264  0.45154  0.98453  Biso   1.000  O
  O33      1.0000 0.52844  0.63635  0.92397  Biso   1.000  O
  O34      1.0000 0.06562  0.47439  0.31516  Biso   1.000  O
  O35      1.0000 0.85758  0.43916  0.46348  Biso   1.000  O
  O36      1.0000 0.01244  0.64034  0.50914  Biso   1.000  O
  O37      1.0000 0.05882  0.98149  0.80904  Biso   1.000  O
  O38      1.0000 0.86092  0.00983  0.97063  Biso   1.000  O
  O39      1.0000 0.03123  0.82174  0.01090  Biso   1.000  O
  O40      1.0000 0.55835  0.97792  0.63473  Biso   1.000  O
  O41      1.0000 0.36098  0.02220  0.47126  Biso   1.000  O
  O42      1.0000 0.50686  0.82692  0.42929  Biso   1.000  O
  O43      1.0000 0.46571  0.48182  0.81938  Biso   1.000  O
  O44      1.0000 0.67578  0.50916  0.95429  Biso   1.000  O
  O45      1.0000 0.51668  0.32180  0.01382  Biso   1.000  O
  O46      1.0000 0.96649  0.48495  0.62465  Biso   1.000  O
  O47      1.0000 0.17769  0.52955  0.47785  Biso   1.000  O
  O48      1.0000 0.02993  0.31970  0.43152  Biso   1.000  O
  O49      1.0000 0.03168  0.93182  0.12363  Biso   1.000  O
  O50      1.0000 0.17850  0.99941  0.91710  Biso   1.000  O
  O51      1.0000 0.97666  0.13168  0.97968  Biso   1.000  O
  O52      1.0000 0.53129  0.94053  0.31570  Biso   1.000  O
  O53      1.0000 0.67345  0.97233  0.52103  Biso   1.000  O
  O54      1.0000 0.48076  0.13167  0.47114  Biso   1.000  O
  O55      1.0000 0.52210  0.44126  0.12901  Biso   1.000  O
  O56      1.0000 0.36219  0.49600  0.93750  Biso   1.000  O
  O57      1.0000 0.57393  0.63401  0.96693  Biso   1.000  O
  O58      1.0000 0.02648  0.43216  0.31352  Biso   1.000  O
  O59      1.0000 0.85834  0.47941  0.50161  Biso   1.000  O
  O60      1.0000 0.05808  0.63702  0.46855  Biso   1.000  O
  O61      1.0000 0.02188  0.02833  0.81166  Biso   1.000  O
  O62      1.0000 0.86799  0.97501  0.01697  Biso   1.000  O
  O63      1.0000 0.07315  0.82932  0.96725  Biso   1.000  O
  O64      1.0000 0.51794  0.02155  0.63262  Biso   1.000  O
  O65      1.0000 0.36377  0.98516  0.42529  Biso   1.000  O
  O66      1.0000 0.55801  0.82292  0.45536  Biso   1.000  O
  O67      1.0000 0.50787  0.52371  0.81271  Biso   1.000  O
  O68      1.0000 0.67736  0.46853  0.00081  Biso   1.000  O
  O69      1.0000 0.47108  0.32320  0.98054  Biso   1.000  O
  O70      1.0000 0.01074  0.52414  0.62694  Biso   1.000  O
  O71      1.0000 0.18328  0.48767  0.43634  Biso   1.000  O
  O72      1.0000 0.98154  0.32139  0.46669  Biso   1.000  O
  O73      1.0000 0.01011  0.44036  0.62717  Biso   1.000  O
  O74      1.0000 0.67890  0.98357  0.43698  Biso   1.000  O
  O75      1.0000 0.49102  0.64167  0.97278  Biso   1.000  O
  O76      1.0000 0.50684  0.44013  0.82029  Biso   1.000  O
  O77      1.0000 0.18083  0.99411  0.00272  Biso   1.000  O
  O78      1.0000 0.97054  0.63187  0.46546  Biso   1.000  O
  O79      1.0000 0.51641  0.93749  0.62956  Biso   1.000  O
  O80      1.0000 0.85938  0.47871  0.41781  Biso   1.000  O
  O81      1.0000 0.05706  0.13877  0.97242  Biso   1.000  O
  O82      1.0000 0.01661  0.94388  0.81113  Biso   1.000  O
  O83      1.0000 0.36566  0.49543  0.02305  Biso   1.000  O
  O84      1.0000 0.56434  0.13626  0.47796  Biso   1.000  O
  O85      1.0000 0.02085  0.51712  0.31238  Biso   1.000  O
  O86      1.0000 0.36294  0.97698  0.50666  Biso   1.000  O
  O87      1.0000 0.54951  0.31477  0.96243  Biso   1.000  O
  O88      1.0000 0.52484  0.52536  0.12874  Biso   1.000  O
  O89      1.0000 0.86700  0.97150  0.93160  Biso   1.000  O
  O90      1.0000 0.06395  0.32919  0.48060  Biso   1.000  O
  O91      1.0000 0.52164  0.02254  0.31565  Biso   1.000  O
  O92      1.0000 0.17525  0.48889  0.52060  Biso   1.000  O
  O93      1.0000 0.99047  0.82252  0.96743  Biso   1.000  O
  O94      1.0000 0.02331  0.01421  0.12618  Biso   1.000  O
  O95      1.0000 0.67426  0.46246  0.91557  Biso   1.000  O
  O96      1.0000 0.47964  0.82871  0.48283  Biso   1.000  O
  O97      1.0000 0.48112  0.17905  0.46980  Biso   1.000  O
  O98      1.0000 0.52814  0.44116  0.17666  Biso   1.000  O
  O99      1.0000 0.23140  0.48471  0.43713  Biso   1.000  O
  O100     1.0000 0.97087  0.17829  0.97848  Biso   1.000  O
  O101     1.0000 0.02511  0.43133  0.26435  Biso   1.000  O
  O102     1.0000 0.72508  0.46148  0.99909  Biso   1.000  O
  O103     1.0000 0.05710  0.68556  0.46595  Biso   1.000  O
  O104     1.0000 0.03111  0.93141  0.17260  Biso   1.000  O
  O105     1.0000 0.31427  0.98743  0.42274  Biso   1.000  O
  O106     1.0000 0.57784  0.68166  0.96110  Biso   1.000  O
  O107     1.0000 0.52282  0.93894  0.26675  Biso   1.000  O
  O108     1.0000 0.81957  0.96762  0.01816  Biso   1.000  O
  O109     1.0000 0.55761  0.77453  0.45742  Biso   1.000  O
  O110     1.0000 0.50658  0.52072  0.76400  Biso   1.000  O
  O111     1.0000 0.80894  0.47511  0.50149  Biso   1.000  O
  O112     1.0000 0.07885  0.78036  0.96803  Biso   1.000  O
  O113     1.0000 0.00559  0.52556  0.67509  Biso   1.000  O
  O114     1.0000 0.31390  0.49307  0.94177  Biso   1.000  O
  O115     1.0000 0.98300  0.27431  0.46974  Biso   1.000  O
  O116     1.0000 0.01530  0.03002  0.76324  Biso   1.000  O
  O117     1.0000 0.72200  0.97053  0.52227  Biso   1.000  O
  O118     1.0000 0.46368  0.27375  0.97996  Biso   1.000  O
  O119     1.0000 0.51614  0.01963  0.68029  Biso   1.000  O
  O120     1.0000 0.22736  0.99825  0.91568  Biso   1.000  O
  O121     1.0000 0.04777  0.47808  0.67768  Biso   1.000  O
  O122     1.0000 0.72392  0.01826  0.48821  Biso   1.000  O
  O123     1.0000 0.53716  0.68733  0.00917  Biso   1.000  O
  O124     1.0000 0.54905  0.48643  0.76517  Biso   1.000  O
  O125     1.0000 0.22935  0.03809  0.96579  Biso   1.000  O
  O126     1.0000 0.01402  0.68348  0.42391  Biso   1.000  O
  O127     1.0000 0.46730  0.98160  0.67937  Biso   1.000  O
  O128     1.0000 0.80731  0.51923  0.46512  Biso   1.000  O
  O129     1.0000 0.01459  0.18190  0.01595  Biso   1.000  O
  O130     1.0000 0.97302  0.98655  0.76537  Biso   1.000  O
  O131     1.0000 0.31674  0.53576  0.97952  Biso   1.000  O
  O132     1.0000 0.52656  0.18284  0.43293  Biso   1.000  O
  O133     1.0000 0.98544  0.47585  0.26487  Biso   1.000  O
  O134     1.0000 0.31121  0.94013  0.46179  Biso   1.000  O
  O135     1.0000 0.49960  0.27283  0.93287  Biso   1.000  O
  O136     1.0000 0.48720  0.48627  0.17742  Biso   1.000  O
  O137     1.0000 0.82521  0.92298  0.98516  Biso   1.000  O
  O138     1.0000 0.01944  0.27590  0.51571  Biso   1.000  O
  O139     1.0000 0.57005  0.97868  0.26918  Biso   1.000  O
  O140     1.0000 0.22947  0.44591  0.48292  Biso   1.000  O
  O141     1.0000 0.03664  0.78021  0.92460  Biso   1.000  O
  O142     1.0000 0.06822  0.97899  0.16944  Biso   1.000  O
  O143     1.0000 0.71727  0.42177  0.95722  Biso   1.000  O
  O144     1.0000 0.52967  0.77249  0.50904  Biso   1.000  O
  O145     1.0000 0.57098  0.47706  0.17298  Biso   1.000  O
  O146     1.0000 0.22631  0.52897  0.48025  Biso   1.000  O
  O147     1.0000 0.51757  0.17952  0.51701  Biso   1.000  O
  O148     1.0000 0.07149  0.47398  0.26774  Biso   1.000  O
  O149     1.0000 0.72432  0.50581  0.95805  Biso   1.000  O
  O150     1.0000 0.00760  0.18463  0.93397  Biso   1.000  O
  O151     1.0000 0.98567  0.96904  0.17877  Biso   1.000  O
  O152     1.0000 0.31277  0.02186  0.47069  Biso   1.000  O
  O153     1.0000 0.01402  0.68883  0.50928  Biso   1.000  O
  O154     1.0000 0.48740  0.98623  0.26512  Biso   1.000  O
  O155     1.0000 0.81361  0.00593  0.97079  Biso   1.000  O
  O156     1.0000 0.52978  0.68402  0.92374  Biso   1.000  O
  O157     1.0000 0.46422  0.47906  0.77159  Biso   1.000  O
  O158     1.0000 0.80890  0.43508  0.45824  Biso   1.000  O
  O159     1.0000 0.50740  0.77776  0.42917  Biso   1.000  O
  O160     1.0000 0.96351  0.48842  0.67367  Biso   1.000  O
  O161     1.0000 0.31376  0.45307  0.98510  Biso   1.000  O
  O162     1.0000 0.03824  0.77312  0.00830  Biso   1.000  O
  O163     1.0000 0.05642  0.98650  0.76064  Biso   1.000  O
  O164     1.0000 0.72430  0.93701  0.47330  Biso   1.000  O
  O165     1.0000 0.03160  0.27064  0.43262  Biso   1.000  O
  O166     1.0000 0.55337  0.97054  0.68245  Biso   1.000  O
  O167     1.0000 0.23219  0.95459  0.95507  Biso   1.000  O
  O168     1.0000 0.50948  0.27196  0.01673  Biso   1.000  O
  O169     1.0000 0.01973  0.01319  0.17630  Biso   1.000  O
  O170     1.0000 0.22965  0.99292  0.00117  Biso   1.000  O
  O171     1.0000 0.05360  0.18818  0.97667  Biso   1.000  O
  O172     1.0000 0.53447  0.02180  0.26991  Biso   1.000  O
  O173     1.0000 0.72789  0.98225  0.43854  Biso   1.000  O
  O174     1.0000 0.56255  0.18460  0.47736  Biso   1.000  O
  O175     1.0000 0.53576  0.52481  0.17710  Biso   1.000  O
  O176     1.0000 0.31684  0.49746  0.02673  Biso   1.000  O
  O177     1.0000 0.49145  0.68836  0.96558  Biso   1.000  O
  O178     1.0000 0.02997  0.51709  0.26437  Biso   1.000  O
  O179     1.0000 0.81027  0.47730  0.41766  Biso   1.000  O
  O180     1.0000 0.97457  0.68112  0.46265  Biso   1.000  O
  O181     1.0000 0.01801  0.94545  0.76213  Biso   1.000  O
  O182     1.0000 0.82061  0.95881  0.93592  Biso   1.000  O
  O183     1.0000 0.99450  0.77379  0.96325  Biso   1.000  O
  O184     1.0000 0.50641  0.93686  0.67528  Biso   1.000  O
  O185     1.0000 0.31439  0.97759  0.50631  Biso   1.000  O
  O186     1.0000 0.47667  0.77912  0.47985  Biso   1.000  O
  O187     1.0000 0.51009  0.43973  0.77119  Biso   1.000  O
  O188     1.0000 0.72298  0.46200  0.91352  Biso   1.000  O
  O189     1.0000 0.54772  0.26640  0.96850  Biso   1.000  O
  O190     1.0000 0.00495  0.44242  0.67560  Biso   1.000  O
  O191     1.0000 0.22383  0.48832  0.52336  Biso   1.000  O
  O192     1.0000 0.06500  0.27936  0.47558  Biso   1.000  O
