data_image0
_cell_length_a       46.7493
_cell_length_b       46.7197
_cell_length_c       46.5848
_cell_angle_alpha    90
_cell_angle_beta     90
_cell_angle_gamma    90

_symmetry_space_group_name_H-M    "P 1"
_symmetry_int_tables_number       1

loop_
  _symmetry_equiv_pos_as_xyz
  'x, y, z'

loop_
  _atom_site_label
  _atom_site_occupancy
  _atom_site_fract_x
  _atom_site_fract_y
  _atom_site_fract_z
  _atom_site_thermal_displace_type
  _atom_site_B_iso_or_equiv
  _atom_site_type_symbol
  C1       1.0000 0.56992  0.98114  0.31869  Biso   1.000  C
  C2       1.0000 0.33048  0.54622  0.99066  Biso   1.000  C
  C3       1.0000 0.01083  0.30850  0.55330  Biso   1.000  C
  C4       1.0000 0.06711  0.99545  0.17472  Biso   1.000  C
  C5       1.0000 0.83535  0.54760  0.48911  Biso   1.000  C
  C6       1.0000 0.51849  0.31453  0.93803  Biso   1.000  C
  C7       1.0000 0.96623  0.49591  0.31175  Biso   1.000  C
  C8       1.0000 0.19722  0.04432  0.99733  Biso   1.000  C
  C9       1.0000 0.51988  0.80442  0.55666  Biso   1.000  C
  C10      1.0000 0.46166  0.48355  0.17114  Biso   1.000  C
  C11      1.0000 0.69854  0.04842  0.49035  Biso   1.000  C
  C12      1.0000 0.01663  0.81051  0.93453  Biso   1.000  C
  C13      1.0000 0.46267  0.98858  0.67955  Biso   1.000  C
  C14      1.0000 0.69347  0.43856  0.98704  Biso   1.000  C
  C15      1.0000 0.01704  0.67287  0.43765  Biso   1.000  C
  C16      1.0000 0.95891  0.99423  0.81300  Biso   1.000  C
  C17      1.0000 0.19065  0.42667  0.48897  Biso   1.000  C
  C18      1.0000 0.50973  0.66743  0.05241  Biso   1.000  C
  C19      1.0000 0.06237  0.48689  0.67595  Biso   1.000  C
  C20      1.0000 0.83160  0.94039  0.00274  Biso   1.000  C
  C21      1.0000 0.51243  0.16701  0.43658  Biso   1.000  C
  C22      1.0000 0.56248  0.49218  0.81138  Biso   1.000  C
  C23      1.0000 0.33626  0.92680  0.50197  Biso   1.000  C
  C24      1.0000 0.01241  0.16947  0.05439  Biso   1.000  C
  C25      1.0000 0.33874  0.03610  0.50144  Biso   1.000  C
  C26      1.0000 0.50887  0.30859  0.05016  Biso   1.000  C
  C27      1.0000 0.07462  0.48582  0.31173  Biso   1.000  C
  C28      1.0000 0.83359  0.04675  0.99063  Biso   1.000  C
  C29      1.0000 0.01148  0.30532  0.44391  Biso   1.000  C
  C30      1.0000 0.57020  0.48827  0.17235  Biso   1.000  C
  C31      1.0000 0.19489  0.53438  0.50435  Biso   1.000  C
  C32      1.0000 0.00829  0.80909  0.04436  Biso   1.000  C
  C33      1.0000 0.46020  0.98876  0.31742  Biso   1.000  C
  C34      1.0000 0.69178  0.54629  0.99265  Biso   1.000  C
  C35      1.0000 0.52531  0.80610  0.44894  Biso   1.000  C
  C36      1.0000 0.96043  0.98222  0.16930  Biso   1.000  C
  C37      1.0000 0.69502  0.93947  0.49216  Biso   1.000  C
  C38      1.0000 0.51749  0.66818  0.94511  Biso   1.000  C
  C39      1.0000 0.95382  0.48843  0.67318  Biso   1.000  C
  C40      1.0000 0.19556  0.93683  0.99292  Biso   1.000  C
  C41      1.0000 0.01693  0.66973  0.54717  Biso   1.000  C
  C42      1.0000 0.45163  0.49496  0.81698  Biso   1.000  C
  C43      1.0000 0.83312  0.43893  0.48312  Biso   1.000  C
  C44      1.0000 0.01555  0.17040  0.94512  Biso   1.000  C
  C45      1.0000 0.56948  0.98482  0.67892  Biso   1.000  C
  C46      1.0000 0.32682  0.43731  0.99644  Biso   1.000  C
  C47      1.0000 0.51196  0.16858  0.54821  Biso   1.000  C
  C48      1.0000 0.06758  0.99075  0.81099  Biso   1.000  C
  C49      1.0000 0.01766  0.04895  0.81378  Biso   1.000  C
  C50      1.0000 0.83378  0.99674  0.04714  Biso   1.000  C
  C51      1.0000 0.06768  0.80944  0.99397  Biso   1.000  C
  C52      1.0000 0.51871  0.04033  0.67470  Biso   1.000  C
  C53      1.0000 0.33689  0.97994  0.44777  Biso   1.000  C
  C54      1.0000 0.57299  0.80688  0.50599  Biso   1.000  C
  C55      1.0000 0.50562  0.54649  0.81886  Biso   1.000  C
  C56      1.0000 0.69548  0.48999  0.04626  Biso   1.000  C
  C57      1.0000 0.45741  0.30972  0.99284  Biso   1.000  C
  C58      1.0000 0.01122  0.54367  0.67514  Biso   1.000  C
  C59      1.0000 0.19441  0.48990  0.44243  Biso   1.000  C
  C60      1.0000 0.95597  0.30919  0.49668  Biso   1.000  C
  C61      1.0000 0.01580  0.93406  0.17316  Biso   1.000  C
  C62      1.0000 0.19455  0.99267  0.94104  Biso   1.000  C
  C63      1.0000 0.96021  0.17258  0.99865  Biso   1.000  C
  C64      1.0000 0.50795  0.93106  0.32434  Biso   1.000  C
  C65      1.0000 0.69604  0.99229  0.54671  Biso   1.000  C
  C66      1.0000 0.46060  0.16709  0.49307  Biso   1.000  C
  C67      1.0000 0.51695  0.43205  0.17520  Biso   1.000  C
  C68      1.0000 0.32725  0.49152  0.93996  Biso   1.000  C
  C69      1.0000 0.56777  0.67083  0.00063  Biso   1.000  C
  C70      1.0000 0.01732  0.43319  0.31348  Biso   1.000  C
  C71      1.0000 0.83273  0.49588  0.54318  Biso   1.000  C
  C72      1.0000 0.07031  0.66632  0.49275  Biso   1.000  C
  C73      1.0000 0.02285  0.54077  0.31498  Biso   1.000  C
  C74      1.0000 0.33323  0.98012  0.55638  Biso   1.000  C
  C75      1.0000 0.56679  0.31705  0.99805  Biso   1.000  C
  C76      1.0000 0.51288  0.54091  0.17704  Biso   1.000  C
  C77      1.0000 0.82863  0.98796  0.93975  Biso   1.000  C
  C78      1.0000 0.06663  0.30561  0.50011  Biso   1.000  C
  C79      1.0000 0.51883  0.03827  0.31344  Biso   1.000  C
  C80      1.0000 0.19158  0.47190  0.54951  Biso   1.000  C
  C81      1.0000 0.95881  0.81089  0.99092  Biso   1.000  C
  C82      1.0000 0.01249  0.04005  0.17416  Biso   1.000  C
  C83      1.0000 0.69446  0.49941  0.93637  Biso   1.000  C
  C84      1.0000 0.46510  0.80282  0.49944  Biso   1.000  C
  C85      1.0000 0.00729  0.43688  0.67746  Biso   1.000  C
  C86      1.0000 0.70173  0.99516  0.43667  Biso   1.000  C
  C87      1.0000 0.45980  0.66980  0.99598  Biso   1.000  C
  C88      1.0000 0.50734  0.43823  0.80932  Biso   1.000  C
  C89      1.0000 0.19485  0.98871  0.05097  Biso   1.000  C
  C90      1.0000 0.96412  0.66824  0.49516  Biso   1.000  C
  C91      1.0000 0.50934  0.93449  0.67944  Biso   1.000  C
  C92      1.0000 0.83275  0.49042  0.43395  Biso   1.000  C
  C93      1.0000 0.06981  0.16868  0.00141  Biso   1.000  C
  C94      1.0000 0.01059  0.93900  0.80720  Biso   1.000  C
  C95      1.0000 0.33106  0.49311  0.04916  Biso   1.000  C
  C96      1.0000 0.56835  0.17209  0.49209  Biso   1.000  C
  C97      1.0000 0.69658  0.07949  0.48491  Biso   1.000  C
  C98      1.0000 0.50183  0.66772  0.08447  Biso   1.000  C
  C99      1.0000 0.09490  0.48360  0.67553  Biso   1.000  C
  C100     1.0000 0.19789  0.07569  0.99839  Biso   1.000  C
  C101     1.0000 0.01402  0.67118  0.40614  Biso   1.000  C
  C102     1.0000 0.59582  0.48933  0.80905  Biso   1.000  C
  C103     1.0000 0.83538  0.57883  0.49250  Biso   1.000  C
  C104     1.0000 0.01534  0.16955  0.08664  Biso   1.000  C
  C105     1.0000 0.43018  0.98497  0.68063  Biso   1.000  C
  C106     1.0000 0.33060  0.57921  0.98769  Biso   1.000  C
  C107     1.0000 0.51422  0.16820  0.40459  Biso   1.000  C
  C108     1.0000 0.92711  0.98865  0.81416  Biso   1.000  C
  C109     1.0000 0.33537  0.89509  0.50147  Biso   1.000  C
  C110     1.0000 0.51801  0.31266  0.90512  Biso   1.000  C
  C111     1.0000 0.93413  0.50117  0.31045  Biso   1.000  C
  C112     1.0000 0.83211  0.90897  0.00139  Biso   1.000  C
  C113     1.0000 0.01134  0.30951  0.58524  Biso   1.000  C
  C114     1.0000 0.42953  0.48363  0.17152  Biso   1.000  C
  C115     1.0000 0.19050  0.39534  0.48289  Biso   1.000  C
  C116     1.0000 0.01719  0.81227  0.90178  Biso   1.000  C
  C117     1.0000 0.60291  0.98099  0.31692  Biso   1.000  C
  C118     1.0000 0.69339  0.40657  0.98607  Biso   1.000  C
  C119     1.0000 0.51578  0.80485  0.58928  Biso   1.000  C
  C120     1.0000 0.10001  0.00092  0.17565  Biso   1.000  C
  C121     1.0000 0.83376  0.99379  0.07861  Biso   1.000  C
  C122     1.0000 0.09969  0.81054  0.99527  Biso   1.000  C
  C123     1.0000 0.02082  0.08055  0.81572  Biso   1.000  C
  C124     1.0000 0.33786  0.97862  0.41629  Biso   1.000  C
  C125     1.0000 0.60559  0.80844  0.50787  Biso   1.000  C
  C126     1.0000 0.51910  0.07358  0.67458  Biso   1.000  C
  C127     1.0000 0.69616  0.49401  0.07835  Biso   1.000  C
  C128     1.0000 0.42518  0.30906  0.99507  Biso   1.000  C
  C129     1.0000 0.49645  0.57709  0.81945  Biso   1.000  C
  C130     1.0000 0.19774  0.48593  0.41109  Biso   1.000  C
  C131     1.0000 0.92431  0.31076  0.49224  Biso   1.000  C
  C132     1.0000 0.01200  0.57483  0.67500  Biso   1.000  C
  C133     1.0000 0.19388  0.99542  0.90969  Biso   1.000  C
  C134     1.0000 0.92859  0.17140  0.99430  Biso   1.000  C
  C135     1.0000 0.01591  0.90184  0.17534  Biso   1.000  C
  C136     1.0000 0.69571  0.98887  0.57889  Biso   1.000  C
  C137     1.0000 0.42822  0.16341  0.48861  Biso   1.000  C
  C138     1.0000 0.50041  0.90015  0.32652  Biso   1.000  C
  C139     1.0000 0.32416  0.49096  0.90822  Biso   1.000  C
  C140     1.0000 0.59989  0.67168  0.00181  Biso   1.000  C
  C141     1.0000 0.51701  0.39960  0.17566  Biso   1.000  C
  C142     1.0000 0.83257  0.49425  0.57488  Biso   1.000  C
  C143     1.0000 0.10279  0.66533  0.49414  Biso   1.000  C
  C144     1.0000 0.01857  0.40130  0.31421  Biso   1.000  C
  C145     1.0000 0.33289  0.48884  0.08089  Biso   1.000  C
  C146     1.0000 0.09887  0.30347  0.49630  Biso   1.000  C
  C147     1.0000 0.51755  0.07062  0.31117  Biso   1.000  C
  C148     1.0000 0.83472  0.49554  0.40266  Biso   1.000  C
  C149     1.0000 0.59907  0.31536  0.00261  Biso   1.000  C
  C150     1.0000 0.01791  0.07263  0.17513  Biso   1.000  C
  C151     1.0000 0.19529  0.98797  0.08397  Biso   1.000  C
  C152     1.0000 0.43251  0.80250  0.49788  Biso   1.000  C
  C153     1.0000 0.02018  0.57208  0.31370  Biso   1.000  C
  C154     1.0000 0.70010  0.99418  0.40426  Biso   1.000  C
  C155     1.0000 0.92675  0.81369  0.99581  Biso   1.000  C
  C156     1.0000 0.51287  0.57313  0.17835  Biso   1.000  C
  C157     1.0000 0.69315  0.49823  0.90322  Biso   1.000  C
  C158     1.0000 0.93176  0.66898  0.49621  Biso   1.000  C
  C159     1.0000 0.50870  0.90231  0.68070  Biso   1.000  C
  C160     1.0000 0.19188  0.47216  0.58181  Biso   1.000  C
  C161     1.0000 0.42817  0.67068  0.99714  Biso   1.000  C
  C162     1.0000 0.00841  0.90780  0.80692  Biso   1.000  C
  C163     1.0000 0.82912  0.98575  0.90794  Biso   1.000  C
  C164     1.0000 0.59978  0.17205  0.48837  Biso   1.000  C
  C165     1.0000 0.01105  0.40519  0.67844  Biso   1.000  C
  C166     1.0000 0.33428  0.97203  0.58805  Biso   1.000  C
  C167     1.0000 0.10105  0.16952  0.99677  Biso   1.000  C
  C168     1.0000 0.50820  0.40660  0.81081  Biso   1.000  C
  C169     1.0000 0.00845  0.80907  0.07559  Biso   1.000  C
  C170     1.0000 0.09986  0.99480  0.80985  Biso   1.000  C
  C171     1.0000 0.83207  0.07947  0.99264  Biso   1.000  C
  C172     1.0000 0.52653  0.80680  0.41790  Biso   1.000  C
  C173     1.0000 0.60120  0.98934  0.67781  Biso   1.000  C
  C174     1.0000 0.33588  0.06843  0.49780  Biso   1.000  C
  C175     1.0000 0.50270  0.30790  0.08184  Biso   1.000  C
  C176     1.0000 0.42014  0.49698  0.81740  Biso   1.000  C
  C177     1.0000 0.69319  0.57756  0.99041  Biso   1.000  C
  C178     1.0000 0.01122  0.30656  0.41142  Biso   1.000  C
  C179     1.0000 0.92170  0.48346  0.67300  Biso   1.000  C
  C180     1.0000 0.19527  0.56729  0.50094  Biso   1.000  C
  C181     1.0000 0.01864  0.17138  0.91337  Biso   1.000  C
  C182     1.0000 0.92935  0.97481  0.17188  Biso   1.000  C
  C183     1.0000 0.19481  0.90667  0.99560  Biso   1.000  C
  C184     1.0000 0.50899  0.16775  0.58018  Biso   1.000  C
  C185     1.0000 0.42829  0.99161  0.31978  Biso   1.000  C
  C186     1.0000 0.69685  0.90751  0.49294  Biso   1.000  C
  C187     1.0000 0.51779  0.66776  0.91354  Biso   1.000  C
  C188     1.0000 0.60156  0.49045  0.17412  Biso   1.000  C
  C189     1.0000 0.32682  0.40482  0.99661  Biso   1.000  C
  C190     1.0000 0.02146  0.66949  0.57904  Biso   1.000  C
  C191     1.0000 0.10711  0.49118  0.31230  Biso   1.000  C
  C192     1.0000 0.83420  0.40794  0.47900  Biso   1.000  C
  C193     1.0000 0.85721  0.98898  0.89332  Biso   1.000  C
  C194     1.0000 0.91191  0.84041  0.99452  Biso   1.000  C
  C195     1.0000 0.00757  0.89253  0.83457  Biso   1.000  C
  C196     1.0000 0.36234  0.97717  0.60190  Biso   1.000  C
  C197     1.0000 0.41620  0.82855  0.49967  Biso   1.000  C
  C198     1.0000 0.51434  0.88508  0.65506  Biso   1.000  C
  C199     1.0000 0.66532  0.49798  0.88658  Biso   1.000  C
  C200     1.0000 0.61632  0.34120  0.00071  Biso   1.000  C
  C201     1.0000 0.51415  0.39073  0.83730  Biso   1.000  C
  C202     1.0000 0.16483  0.47073  0.59772  Biso   1.000  C
  C203     1.0000 0.11410  0.32995  0.49457  Biso   1.000  C
  C204     1.0000 0.00865  0.38798  0.65203  Biso   1.000  C
  C205     1.0000 0.16892  0.99431  0.10022  Biso   1.000  C
  C206     1.0000 0.11762  0.14206  0.99440  Biso   1.000  C
  C207     1.0000 0.01645  0.08976  0.15007  Biso   1.000  C
  C208     1.0000 0.67238  0.99234  0.38964  Biso   1.000  C
  C209     1.0000 0.61647  0.14544  0.49071  Biso   1.000  C
  C210     1.0000 0.51675  0.08625  0.33861  Biso   1.000  C
  C211     1.0000 0.36037  0.48671  0.09478  Biso   1.000  C
  C212     1.0000 0.41195  0.64432  0.99242  Biso   1.000  C
  C213     1.0000 0.50814  0.59008  0.15194  Biso   1.000  C
  C214     1.0000 0.86358  0.49667  0.38828  Biso   1.000  C
  C215     1.0000 0.91285  0.64353  0.49686  Biso   1.000  C
  C216     1.0000 0.01623  0.58842  0.34043  Biso   1.000  C
  C217     1.0000 0.11615  0.99734  0.83731  Biso   1.000  C
  C218     1.0000 0.85864  0.09488  0.99301  Biso   1.000  C
  C219     1.0000 0.00983  0.83584  0.09289  Biso   1.000  C
  C220     1.0000 0.61668  0.99248  0.64954  Biso   1.000  C
  C221     1.0000 0.36246  0.08375  0.49876  Biso   1.000  C
  C222     1.0000 0.52189  0.83344  0.40292  Biso   1.000  C
  C223     1.0000 0.40299  0.49542  0.84302  Biso   1.000  C
  C224     1.0000 0.66642  0.59417  0.99254  Biso   1.000  C
  C225     1.0000 0.50485  0.33368  0.09808  Biso   1.000  C
  C226     1.0000 0.90729  0.48309  0.64596  Biso   1.000  C
  C227     1.0000 0.16789  0.58536  0.49939  Biso   1.000  C
  C228     1.0000 0.01110  0.33396  0.39424  Biso   1.000  C
  C229     1.0000 0.91194  0.97988  0.14642  Biso   1.000  C
  C230     1.0000 0.16844  0.89011  0.99353  Biso   1.000  C
  C231     1.0000 0.02060  0.14429  0.89716  Biso   1.000  C
  C232     1.0000 0.41350  0.98916  0.34625  Biso   1.000  C
  C233     1.0000 0.67045  0.88974  0.49513  Biso   1.000  C
  C234     1.0000 0.51058  0.14016  0.59557  Biso   1.000  C
  C235     1.0000 0.61804  0.49096  0.14766  Biso   1.000  C
  C236     1.0000 0.35463  0.38991  0.99730  Biso   1.000  C
  C237     1.0000 0.51573  0.64138  0.89533  Biso   1.000  C
  C238     1.0000 0.12167  0.49197  0.34022  Biso   1.000  C
  C239     1.0000 0.85996  0.39072  0.48222  Biso   1.000  C
  C240     1.0000 0.01995  0.64226  0.59413  Biso   1.000  C
  C241     1.0000 0.61214  0.49311  0.83569  Biso   1.000  C
  C242     1.0000 0.86286  0.59337  0.49377  Biso   1.000  C
  C243     1.0000 0.51459  0.83148  0.60447  Biso   1.000  C
  C244     1.0000 0.11146  0.47760  0.64949  Biso   1.000  C
  C245     1.0000 0.35836  0.59517  0.98734  Biso   1.000  C
  C246     1.0000 0.01381  0.83910  0.88606  Biso   1.000  C
  C247     1.0000 0.91104  0.98800  0.84161  Biso   1.000  C
  C248     1.0000 0.66873  0.09561  0.48767  Biso   1.000  C
  C249     1.0000 0.00865  0.33659  0.59974  Biso   1.000  C
  C250     1.0000 0.41532  0.98333  0.65353  Biso   1.000  C
  C251     1.0000 0.17049  0.09140  0.99855  Biso   1.000  C
  C252     1.0000 0.51342  0.33973  0.89085  Biso   1.000  C
  C253     1.0000 0.41229  0.48452  0.14623  Biso   1.000  C
  C254     1.0000 0.16496  0.37783  0.49014  Biso   1.000  C
  C255     1.0000 0.51395  0.14075  0.38926  Biso   1.000  C
  C256     1.0000 0.91628  0.49790  0.33632  Biso   1.000  C
  C257     1.0000 0.66714  0.39193  0.99414  Biso   1.000  C
  C258     1.0000 0.01495  0.14158  0.10181  Biso   1.000  C
  C259     1.0000 0.11812  0.00155  0.15000  Biso   1.000  C
  C260     1.0000 0.36285  0.87912  0.49907  Biso   1.000  C
  C261     1.0000 0.01178  0.64308  0.39196  Biso   1.000  C
  C262     1.0000 0.61820  0.98975  0.34207  Biso   1.000  C
  C263     1.0000 0.85861  0.89256  0.99795  Biso   1.000  C
  C264     1.0000 0.50032  0.64075  0.09932  Biso   1.000  C
  C265     1.0000 0.02557  0.09506  0.84283  Biso   1.000  C
  C266     1.0000 0.86061  0.98987  0.09627  Biso   1.000  C
  C267     1.0000 0.11447  0.83823  0.99701  Biso   1.000  C
  C268     1.0000 0.51239  0.08863  0.64736  Biso   1.000  C
  C269     1.0000 0.36414  0.98336  0.39891  Biso   1.000  C
  C270     1.0000 0.61914  0.83585  0.50424  Biso   1.000  C
  C271     1.0000 0.49912  0.59350  0.84710  Biso   1.000  C
  C272     1.0000 0.66955  0.49454  0.09514  Biso   1.000  C
  C273     1.0000 0.40859  0.33690  0.99524  Biso   1.000  C
  C274     1.0000 0.01602  0.58925  0.64686  Biso   1.000  C
  C275     1.0000 0.17243  0.48692  0.39398  Biso   1.000  C
  C276     1.0000 0.90941  0.33765  0.48909  Biso   1.000  C
  C277     1.0000 0.01366  0.88507  0.14631  Biso   1.000  C
  C278     1.0000 0.16868  0.99691  0.89247  Biso   1.000  C
  C279     1.0000 0.91267  0.14437  0.99340  Biso   1.000  C
  C280     1.0000 0.50455  0.88387  0.35268  Biso   1.000  C
  C281     1.0000 0.66939  0.98930  0.59463  Biso   1.000  C
  C282     1.0000 0.41460  0.13586  0.49562  Biso   1.000  C
  C283     1.0000 0.51296  0.38400  0.14977  Biso   1.000  C
  C284     1.0000 0.35118  0.49082  0.89363  Biso   1.000  C
  C285     1.0000 0.61646  0.64480  0.99921  Biso   1.000  C
  C286     1.0000 0.01607  0.38485  0.34160  Biso   1.000  C
  C287     1.0000 0.85930  0.49130  0.59210  Biso   1.000  C
  C288     1.0000 0.11740  0.63810  0.49305  Biso   1.000  C
  C289     1.0000 0.36316  0.84679  0.50081  Biso   1.000  C
  C290     1.0000 0.51417  0.33904  0.85895  Biso   1.000  C
  C291     1.0000 0.88522  0.50121  0.33600  Biso   1.000  C
  C292     1.0000 0.85818  0.86140  0.99720  Biso   1.000  C
  C293     1.0000 0.00935  0.33589  0.63195  Biso   1.000  C
  C294     1.0000 0.38026  0.48300  0.14602  Biso   1.000  C
  C295     1.0000 0.16686  0.34678  0.48924  Biso   1.000  C
  C296     1.0000 0.01069  0.83827  0.85437  Biso   1.000  C
  C297     1.0000 0.65023  0.98898  0.33870  Biso   1.000  C
  C298     1.0000 0.66834  0.35936  0.99547  Biso   1.000  C
  C299     1.0000 0.50964  0.83269  0.63604  Biso   1.000  C
  C300     1.0000 0.14918  0.99963  0.15187  Biso   1.000  C
  C301     1.0000 0.66908  0.12623  0.48318  Biso   1.000  C
  C302     1.0000 0.50248  0.64197  0.13097  Biso   1.000  C
  C303     1.0000 0.14237  0.47673  0.65124  Biso   1.000  C
  C304     1.0000 0.17068  0.12262  0.99906  Biso   1.000  C
  C305     1.0000 0.01527  0.64157  0.36029  Biso   1.000  C
  C306     1.0000 0.64361  0.49467  0.83194  Biso   1.000  C
  C307     1.0000 0.86148  0.62506  0.49518  Biso   1.000  C
  C308     1.0000 0.01696  0.14256  0.13255  Biso   1.000  C
  C309     1.0000 0.38475  0.97671  0.65568  Biso   1.000  C
  C310     1.0000 0.35833  0.62617  0.99330  Biso   1.000  C
  C311     1.0000 0.51253  0.13994  0.35774  Biso   1.000  C
  C312     1.0000 0.88011  0.98914  0.83983  Biso   1.000  C
  C313     1.0000 0.17334  0.48942  0.36209  Biso   1.000  C
  C314     1.0000 0.38289  0.13658  0.49371  Biso   1.000  C
  C315     1.0000 0.51047  0.35247  0.15139  Biso   1.000  C
  C316     1.0000 0.67036  0.49812  0.12597  Biso   1.000  C
  C317     1.0000 0.88168  0.14699  0.99372  Biso   1.000  C
  C318     1.0000 0.01674  0.35333  0.34080  Biso   1.000  C
  C319     1.0000 0.36110  0.98516  0.36726  Biso   1.000  C
  C320     1.0000 0.14869  0.63876  0.49294  Biso   1.000  C
  C321     1.0000 0.01382  0.85362  0.14735  Biso   1.000  C
  C322     1.0000 0.85899  0.98524  0.12853  Biso   1.000  C
  C323     1.0000 0.64760  0.64735  0.99451  Biso   1.000  C
  C324     1.0000 0.50488  0.85298  0.35120  Biso   1.000  C
  C325     1.0000 0.85565  0.49059  0.62363  Biso   1.000  C
  C326     1.0000 0.65110  0.83730  0.50299  Biso   1.000  C
  C327     1.0000 0.50131  0.62391  0.84471  Biso   1.000  C
  C328     1.0000 0.35046  0.49142  0.86183  Biso   1.000  C
  C329     1.0000 0.14638  0.83656  0.99521  Biso   1.000  C
  C330     1.0000 0.01532  0.62097  0.64827  Biso   1.000  C
  C331     1.0000 0.66935  0.98918  0.62544  Biso   1.000  C
  C332     1.0000 0.87786  0.33830  0.48327  Biso   1.000  C
  C333     1.0000 0.02483  0.12754  0.84249  Biso   1.000  C
  C334     1.0000 0.16826  0.99507  0.86007  Biso   1.000  C
  C335     1.0000 0.37652  0.33790  0.99626  Biso   1.000  C
  C336     1.0000 0.51078  0.12104  0.64988  Biso   1.000  C
  C337     1.0000 0.66544  0.49695  0.85398  Biso   1.000  C
  C338     1.0000 0.88228  0.64672  0.49665  Biso   1.000  C
  C339     1.0000 0.51144  0.85456  0.65765  Biso   1.000  C
  C340     1.0000 0.16530  0.47354  0.62920  Biso   1.000  C
  C341     1.0000 0.38128  0.64646  0.99630  Biso   1.000  C
  C342     1.0000 0.00880  0.86020  0.83286  Biso   1.000  C
  C343     1.0000 0.85762  0.99004  0.86166  Biso   1.000  C
  C344     1.0000 0.64699  0.14707  0.48412  Biso   1.000  C
  C345     1.0000 0.01128  0.35715  0.65316  Biso   1.000  C
  C346     1.0000 0.36241  0.97364  0.63445  Biso   1.000  C
  C347     1.0000 0.14917  0.14334  0.99667  Biso   1.000  C
  C348     1.0000 0.51378  0.35980  0.83791  Biso   1.000  C
  C349     1.0000 0.35911  0.48262  0.12550  Biso   1.000  C
  C350     1.0000 0.14500  0.32652  0.49010  Biso   1.000  C
  C351     1.0000 0.51511  0.11716  0.33668  Biso   1.000  C
  C352     1.0000 0.86311  0.50153  0.35758  Biso   1.000  C
  C353     1.0000 0.64731  0.33774  0.00045  Biso   1.000  C
  C354     1.0000 0.01624  0.12082  0.15301  Biso   1.000  C
  C355     1.0000 0.17167  0.99734  0.13177  Biso   1.000  C
  C356     1.0000 0.38571  0.82606  0.49868  Biso   1.000  C
  C357     1.0000 0.01661  0.61936  0.34051  Biso   1.000  C
  C358     1.0000 0.67345  0.98934  0.35868  Biso   1.000  C
  C359     1.0000 0.88000  0.83984  0.99721  Biso   1.000  C
  C360     1.0000 0.50615  0.62109  0.15196  Biso   1.000  C
  C361     1.0000 0.02290  0.14763  0.86485  Biso   1.000  C
  C362     1.0000 0.88060  0.98097  0.14839  Biso   1.000  C
  C363     1.0000 0.16764  0.85739  0.99398  Biso   1.000  C
  C364     1.0000 0.51065  0.14179  0.62782  Biso   1.000  C
  C365     1.0000 0.38233  0.98944  0.34528  Biso   1.000  C
  C366     1.0000 0.67307  0.85875  0.49964  Biso   1.000  C
  C367     1.0000 0.50696  0.64436  0.86654  Biso   1.000  C
  C368     1.0000 0.64921  0.49423  0.14775  Biso   1.000  C
  C369     1.0000 0.35411  0.35855  0.99680  Biso   1.000  C
  C370     1.0000 0.01776  0.64304  0.62551  Biso   1.000  C
  C371     1.0000 0.15262  0.49250  0.33981  Biso   1.000  C
  C372     1.0000 0.85699  0.35994  0.48047  Biso   1.000  C
  C373     1.0000 0.01160  0.83305  0.12433  Biso   1.000  C
  C374     1.0000 0.14731  0.99448  0.83751  Biso   1.000  C
  C375     1.0000 0.85934  0.12552  0.99195  Biso   1.000  C
  C376     1.0000 0.51210  0.83156  0.37268  Biso   1.000  C
  C377     1.0000 0.64771  0.99057  0.64778  Biso   1.000  C
  C378     1.0000 0.36153  0.11565  0.49406  Biso   1.000  C
  C379     1.0000 0.50531  0.33147  0.13001  Biso   1.000  C
  C380     1.0000 0.37220  0.49405  0.84062  Biso   1.000  C
  C381     1.0000 0.66903  0.62652  0.99169  Biso   1.000  C
  C382     1.0000 0.01446  0.33240  0.36244  Biso   1.000  C
  C383     1.0000 0.87604  0.48598  0.64575  Biso   1.000  C
  C384     1.0000 0.17020  0.61615  0.49790  Biso   1.000  C
  C385     1.0000 0.19799  0.13847  0.00204  Biso   1.000  C
  C386     1.0000 0.01814  0.16819  0.14953  Biso   1.000  C
  C387     1.0000 0.16315  0.99807  0.17924  Biso   1.000  C
  C388     1.0000 0.69522  0.14153  0.47763  Biso   1.000  C
  C389     1.0000 0.51185  0.16664  0.34226  Biso   1.000  C
  C390     1.0000 0.66404  0.98325  0.30998  Biso   1.000  C
  C391     1.0000 0.33114  0.64206  0.99692  Biso   1.000  C
  C392     1.0000 0.50149  0.66858  0.14765  Biso   1.000  C
  C393     1.0000 0.36516  0.47951  0.17313  Biso   1.000  C
  C394     1.0000 0.83313  0.64076  0.49611  Biso   1.000  C
  C395     1.0000 0.01646  0.66713  0.34283  Biso   1.000  C
  C396     1.0000 0.87093  0.50673  0.30823  Biso   1.000  C
  C397     1.0000 0.83055  0.84585  0.99829  Biso   1.000  C
  C398     1.0000 0.01065  0.81120  0.83826  Biso   1.000  C
  C399     1.0000 0.86509  0.98703  0.81236  Biso   1.000  C
  C400     1.0000 0.33673  0.83085  0.50295  Biso   1.000  C
  C401     1.0000 0.50616  0.80688  0.65188  Biso   1.000  C
  C402     1.0000 0.36975  0.97321  0.68338  Biso   1.000  C
  C403     1.0000 0.69526  0.34373  0.99137  Biso   1.000  C
  C404     1.0000 0.51497  0.31161  0.84155  Biso   1.000  C
  C405     1.0000 0.65967  0.49145  0.80599  Biso   1.000  C
  C406     1.0000 0.19337  0.33211  0.48475  Biso   1.000  C
  C407     1.0000 0.01611  0.31021  0.64811  Biso   1.000  C
  C408     1.0000 0.15814  0.48115  0.67861  Biso   1.000  C
  C409     1.0000 0.16339  0.98786  0.81184  Biso   1.000  C
  C410     1.0000 0.83293  0.14138  0.98975  Biso   1.000  C
  C411     1.0000 0.00969  0.80548  0.13761  Biso   1.000  C
  C412     1.0000 0.66381  0.98859  0.67430  Biso   1.000  C
  C413     1.0000 0.33432  0.13049  0.48784  Biso   1.000  C
  C414     1.0000 0.50890  0.80381  0.35731  Biso   1.000  C
  C415     1.0000 0.35678  0.49708  0.81357  Biso   1.000  C
  C416     1.0000 0.69639  0.64150  0.98940  Biso   1.000  C
  C417     1.0000 0.50298  0.30498  0.14540  Biso   1.000  C
  C418     1.0000 0.85912  0.48816  0.67233  Biso   1.000  C
  C419     1.0000 0.19731  0.63040  0.49829  Biso   1.000  C
  C420     1.0000 0.01000  0.30654  0.34577  Biso   1.000  C
  C421     1.0000 0.86592  0.97627  0.17537  Biso   1.000  C
  C422     1.0000 0.19611  0.84264  0.99618  Biso   1.000  C
  C423     1.0000 0.02280  0.17505  0.85021  Biso   1.000  C
  C424     1.0000 0.36502  0.99184  0.31925  Biso   1.000  C
  C425     1.0000 0.69931  0.84423  0.50283  Biso   1.000  C
  C426     1.0000 0.50925  0.16886  0.64310  Biso   1.000  C
  C427     1.0000 0.66532  0.49618  0.17417  Biso   1.000  C
  C428     1.0000 0.32827  0.34205  0.99782  Biso   1.000  C
  C429     1.0000 0.50562  0.67088  0.85182  Biso   1.000  C
  C430     1.0000 0.16937  0.49444  0.31272  Biso   1.000  C
  C431     1.0000 0.82912  0.34563  0.47765  Biso   1.000  C
  C432     1.0000 0.01611  0.67009  0.64026  Biso   1.000  C
  C433     1.0000 0.02210  0.14381  0.81618  Biso   1.000  C
  C434     1.0000 0.83265  0.98516  0.14381  Biso   1.000  C
  C435     1.0000 0.16319  0.81029  0.99715  Biso   1.000  C
  C436     1.0000 0.51425  0.13665  0.67606  Biso   1.000  C
  C437     1.0000 0.33385  0.98406  0.35310  Biso   1.000  C
  C438     1.0000 0.66777  0.81127  0.50558  Biso   1.000  C
  C439     1.0000 0.49677  0.63962  0.81861  Biso   1.000  C
  C440     1.0000 0.69800  0.49969  0.14098  Biso   1.000  C
  C441     1.0000 0.36177  0.31057  0.99694  Biso   1.000  C
  C442     1.0000 0.01321  0.63805  0.67400  Biso   1.000  C
  C443     1.0000 0.20084  0.48888  0.34757  Biso   1.000  C
  C444     1.0000 0.86104  0.31230  0.47858  Biso   1.000  C
  C445     1.0000 0.01354  0.83664  0.17419  Biso   1.000  C
  C446     1.0000 0.19542  0.99007  0.84433  Biso   1.000  C
  C447     1.0000 0.86633  0.17307  0.99249  Biso   1.000  C
  C448     1.0000 0.49941  0.83642  0.32514  Biso   1.000  C
  C449     1.0000 0.69554  0.98808  0.64133  Biso   1.000  C
  C450     1.0000 0.36629  0.16182  0.48603  Biso   1.000  C
  C451     1.0000 0.50886  0.33780  0.17833  Biso   1.000  C
  C452     1.0000 0.32452  0.49075  0.84591  Biso   1.000  C
  C453     1.0000 0.66478  0.67435  0.99335  Biso   1.000  C
  C454     1.0000 0.01572  0.33817  0.31277  Biso   1.000  C
  C455     1.0000 0.82744  0.49343  0.63880  Biso   1.000  C
  C456     1.0000 0.16633  0.66426  0.49456  Biso   1.000  C
  C457     1.0000 0.01963  0.63350  0.31271  Biso   1.000  C
  C458     1.0000 0.33624  0.96900  0.65059  Biso   1.000  C
  C459     1.0000 0.66226  0.31101  0.00119  Biso   1.000  C
  C460     1.0000 0.50519  0.63636  0.17942  Biso   1.000  C
  C461     1.0000 0.83194  0.98910  0.84467  Biso   1.000  C
  C462     1.0000 0.16085  0.29960  0.48794  Biso   1.000  C
  C463     1.0000 0.51451  0.13256  0.30935  Biso   1.000  C
  C464     1.0000 0.19093  0.47584  0.64526  Biso   1.000  C
  C465     1.0000 0.86384  0.81339  0.99864  Biso   1.000  C
  C466     1.0000 0.01823  0.13456  0.18087  Biso   1.000  C
  C467     1.0000 0.69274  0.49790  0.83886  Biso   1.000  C
  C468     1.0000 0.36930  0.79932  0.49982  Biso   1.000  C
  C469     1.0000 0.01560  0.34253  0.68070  Biso   1.000  C
  C470     1.0000 0.69955  0.98714  0.34193  Biso   1.000  C
  C471     1.0000 0.36653  0.67236  0.00212  Biso   1.000  C
  C472     1.0000 0.51157  0.34338  0.80994  Biso   1.000  C
  C473     1.0000 0.19786  0.99466  0.14786  Biso   1.000  C
  C474     1.0000 0.86735  0.67379  0.49831  Biso   1.000  C
  C475     1.0000 0.50591  0.83890  0.68518  Biso   1.000  C
  C476     1.0000 0.83700  0.50405  0.34085  Biso   1.000  C
  C477     1.0000 0.16366  0.16990  0.99880  Biso   1.000  C
  C478     1.0000 0.00647  0.84374  0.80523  Biso   1.000  C
  C479     1.0000 0.33218  0.47852  0.14212  Biso   1.000  C
  C480     1.0000 0.66215  0.17386  0.47656  Biso   1.000  C
  C481     1.0000 0.38666  0.77240  0.49764  Biso   1.000  C
  C482     1.0000 0.50564  0.35999  0.78270  Biso   1.000  C
  C483     1.0000 0.80832  0.50130  0.35607  Biso   1.000  C
  C484     1.0000 0.87787  0.78643  0.99970  Biso   1.000  C
  C485     1.0000 0.01331  0.36071  0.70673  Biso   1.000  C
  C486     1.0000 0.30464  0.47863  0.12778  Biso   1.000  C
  C487     1.0000 0.14280  0.27418  0.49064  Biso   1.000  C
  C488     1.0000 0.00817  0.85911  0.77787  Biso   1.000  C
  C489     1.0000 0.72701  0.98986  0.35691  Biso   1.000  C
  C490     1.0000 0.64587  0.28515  0.00634  Biso   1.000  C
  C491     1.0000 0.50319  0.85520  0.71054  Biso   1.000  C
  C492     1.0000 0.22478  0.98920  0.13282  Biso   1.000  C
  C493     1.0000 0.64481  0.20107  0.47724  Biso   1.000  C
  C494     1.0000 0.50890  0.62037  0.20614  Biso   1.000  C
  C495     1.0000 0.21952  0.47473  0.62837  Biso   1.000  C
  C496     1.0000 0.14810  0.19796  0.99887  Biso   1.000  C
  C497     1.0000 0.02284  0.61709  0.28636  Biso   1.000  C
  C498     1.0000 0.71959  0.49987  0.85591  Biso   1.000  C
  C499     1.0000 0.88431  0.69983  0.49849  Biso   1.000  C
  C500     1.0000 0.02036  0.11763  0.20753  Biso   1.000  C
  C501     1.0000 0.30862  0.96250  0.63512  Biso   1.000  C
  C502     1.0000 0.38230  0.69792  0.00875  Biso   1.000  C
  C503     1.0000 0.51646  0.11616  0.28211  Biso   1.000  C
  C504     1.0000 0.80358  0.98728  0.85924  Biso   1.000  C
  C505     1.0000 0.64221  0.48849  0.77876  Biso   1.000  C
  C506     1.0000 0.80652  0.62443  0.49609  Biso   1.000  C
  C507     1.0000 0.50557  0.77988  0.63720  Biso   1.000  C
  C508     1.0000 0.14067  0.48652  0.70611  Biso   1.000  C
  C509     1.0000 0.30325  0.62611  0.99400  Biso   1.000  C
  C510     1.0000 0.01165  0.78309  0.85461  Biso   1.000  C
  C511     1.0000 0.88066  0.98547  0.78556  Biso   1.000  C
  C512     1.0000 0.72299  0.12619  0.47107  Biso   1.000  C
  C513     1.0000 0.01929  0.28318  0.63259  Biso   1.000  C
  C514     1.0000 0.38608  0.97819  0.71062  Biso   1.000  C
  C515     1.0000 0.22568  0.12218  0.00087  Biso   1.000  C
  C516     1.0000 0.51825  0.28454  0.85804  Biso   1.000  C
  C517     1.0000 0.38342  0.47644  0.19945  Biso   1.000  C
  C518     1.0000 0.21961  0.34912  0.47669  Biso   1.000  C
  C519     1.0000 0.50979  0.19423  0.35730  Biso   1.000  C
  C520     1.0000 0.88915  0.51007  0.28184  Biso   1.000  C
  C521     1.0000 0.72141  0.35952  0.98433  Biso   1.000  C
  C522     1.0000 0.01521  0.19700  0.13571  Biso   1.000  C
  C523     1.0000 0.14549  0.00233  0.20625  Biso   1.000  C
  C524     1.0000 0.30919  0.84658  0.50443  Biso   1.000  C
  C525     1.0000 0.01403  0.69543  0.35678  Biso   1.000  C
  C526     1.0000 0.64723  0.97816  0.28427  Biso   1.000  C
  C527     1.0000 0.80417  0.86215  0.00213  Biso   1.000  C
  C528     1.0000 0.50147  0.69628  0.13298  Biso   1.000  C
  C529     1.0000 0.80586  0.12488  0.98670  Biso   1.000  C
  C530     1.0000 0.00700  0.77940  0.12070  Biso   1.000  C
  C531     1.0000 0.14846  0.98580  0.78382  Biso   1.000  C
  C532     1.0000 0.30755  0.11288  0.48600  Biso   1.000  C
  C533     1.0000 0.52047  0.77802  0.37101  Biso   1.000  C
  C534     1.0000 0.64981  0.98876  0.70103  Biso   1.000  C
  C535     1.0000 0.72098  0.62363  0.98661  Biso   1.000  C
  C536     1.0000 0.49856  0.27934  0.12911  Biso   1.000  C
  C537     1.0000 0.37303  0.49958  0.78761  Biso   1.000  C
  C538     1.0000 0.22351  0.61347  0.49711  Biso   1.000  C
  C539     1.0000 0.00431  0.27961  0.36085  Biso   1.000  C
  C540     1.0000 0.87399  0.48608  0.70240  Biso   1.000  C
  C541     1.0000 0.22294  0.85998  0.99871  Biso   1.000  C
  C542     1.0000 0.02259  0.20250  0.86626  Biso   1.000  C
  C543     1.0000 0.88379  0.96968  0.20130  Biso   1.000  C
  C544     1.0000 0.72726  0.86184  0.50079  Biso   1.000  C
  C545     1.0000 0.50469  0.19412  0.62744  Biso   1.000  C
  C546     1.0000 0.37991  0.99471  0.29226  Biso   1.000  C
  C547     1.0000 0.30075  0.35779  0.00144  Biso   1.000  C
  C548     1.0000 0.51240  0.69633  0.86888  Biso   1.000  C
  C549     1.0000 0.64792  0.49604  0.20021  Biso   1.000  C
  C550     1.0000 0.80385  0.36249  0.47517  Biso   1.000  C
  C551     1.0000 0.01833  0.69722  0.62540  Biso   1.000  C
  C552     1.0000 0.15418  0.49598  0.28429  Biso   1.000  C
  C553     1.0000 0.01605  0.12886  0.78907  Biso   1.000  C
  C554     1.0000 0.80612  0.98942  0.12710  Biso   1.000  C
  C555     1.0000 0.14628  0.78207  0.99433  Biso   1.000  C
  C556     1.0000 0.52207  0.12082  0.70249  Biso   1.000  C
  C557     1.0000 0.30761  0.97648  0.36783  Biso   1.000  C
  C558     1.0000 0.65301  0.78387  0.51131  Biso   1.000  C
  C559     1.0000 0.49247  0.62388  0.79291  Biso   1.000  C
  C560     1.0000 0.72494  0.50054  0.12479  Biso   1.000  C
  C561     1.0000 0.37668  0.28185  0.99652  Biso   1.000  C
  C562     1.0000 0.00982  0.62283  0.70180  Biso   1.000  C
  C563     1.0000 0.22776  0.48830  0.36485  Biso   1.000  C
  C564     1.0000 0.87640  0.28385  0.48292  Biso   1.000  C
  C565     1.0000 0.01435  0.85471  0.20119  Biso   1.000  C
  C566     1.0000 0.22217  0.98777  0.86194  Biso   1.000  C
  C567     1.0000 0.88131  0.19956  0.99014  Biso   1.000  C
  C568     1.0000 0.49104  0.85328  0.30032  Biso   1.000  C
  C569     1.0000 0.72359  0.98724  0.62500  Biso   1.000  C
  C570     1.0000 0.37967  0.18907  0.48464  Biso   1.000  C
  C571     1.0000 0.51333  0.35431  0.20567  Biso   1.000  C
  C572     1.0000 0.29717  0.48852  0.86084  Biso   1.000  C
  C573     1.0000 0.64766  0.70062  0.99663  Biso   1.000  C
  C574     1.0000 0.01944  0.35487  0.28650  Biso   1.000  C
  C575     1.0000 0.80051  0.49639  0.62182  Biso   1.000  C
  C576     1.0000 0.15033  0.69384  0.49380  Biso   1.000  C
  C577     1.0000 0.30555  0.48774  0.09779  Biso   1.000  C
  C578     1.0000 0.11259  0.27575  0.49444  Biso   1.000  C
  C579     1.0000 0.51462  0.08457  0.28350  Biso   1.000  C
  C580     1.0000 0.80798  0.49912  0.38688  Biso   1.000  C
  C581     1.0000 0.61369  0.28787  0.00846  Biso   1.000  C
  C582     1.0000 0.02040  0.08682  0.20350  Biso   1.000  C
  C583     1.0000 0.22289  0.98364  0.09952  Biso   1.000  C
  C584     1.0000 0.41802  0.77439  0.49792  Biso   1.000  C
  C585     1.0000 0.02429  0.58601  0.28541  Biso   1.000  C
  C586     1.0000 0.72716  0.99282  0.38805  Biso   1.000  C
  C587     1.0000 0.90933  0.78658  0.00083  Biso   1.000  C
  C588     1.0000 0.51377  0.58923  0.20615  Biso   1.000  C
  C589     1.0000 0.71970  0.49800  0.88642  Biso   1.000  C
  C590     1.0000 0.91622  0.69823  0.49742  Biso   1.000  C
  C591     1.0000 0.50094  0.88736  0.70702  Biso   1.000  C
  C592     1.0000 0.21924  0.47544  0.59763  Biso   1.000  C
  C593     1.0000 0.41315  0.69600  0.00588  Biso   1.000  C
  C594     1.0000 0.00948  0.89117  0.77857  Biso   1.000  C
  C595     1.0000 0.80246  0.98713  0.89168  Biso   1.000  C
  C596     1.0000 0.61409  0.19956  0.48343  Biso   1.000  C
  C597     1.0000 0.01141  0.39114  0.70639  Biso   1.000  C
  C598     1.0000 0.30846  0.96318  0.60311  Biso   1.000  C
  C599     1.0000 0.11700  0.19726  0.99731  Biso   1.000  C
  C600     1.0000 0.50334  0.39119  0.78333  Biso   1.000  C
  C601     1.0000 0.22137  0.99241  0.89332  Biso   1.000  C
  C602     1.0000 0.91360  0.19928  0.99294  Biso   1.000  C
  C603     1.0000 0.01699  0.88571  0.20242  Biso   1.000  C
  C604     1.0000 0.72342  0.98697  0.59420  Biso   1.000  C
  C605     1.0000 0.41077  0.18928  0.48480  Biso   1.000  C
  C606     1.0000 0.49024  0.88432  0.30125  Biso   1.000  C
  C607     1.0000 0.29659  0.48971  0.89319  Biso   1.000  C
  C608     1.0000 0.61565  0.69864  0.00172  Biso   1.000  C
  C609     1.0000 0.51934  0.38493  0.20269  Biso   1.000  C
  C610     1.0000 0.80419  0.49558  0.58898  Biso   1.000  C
  C611     1.0000 0.11914  0.69334  0.49470  Biso   1.000  C
  C612     1.0000 0.02224  0.38532  0.28714  Biso   1.000  C
  C613     1.0000 0.80674  0.99306  0.09633  Biso   1.000  C
  C614     1.0000 0.11431  0.78236  0.99532  Biso   1.000  C
  C615     1.0000 0.01673  0.09768  0.78851  Biso   1.000  C
  C616     1.0000 0.31229  0.97229  0.40002  Biso   1.000  C
  C617     1.0000 0.62086  0.78157  0.51404  Biso   1.000  C
  C618     1.0000 0.52412  0.09039  0.70058  Biso   1.000  C
  C619     1.0000 0.72302  0.49605  0.09368  Biso   1.000  C
  C620     1.0000 0.40880  0.28187  0.99663  Biso   1.000  C
  C621     1.0000 0.48984  0.59312  0.79313  Biso   1.000  C
  C622     1.0000 0.22614  0.48477  0.39647  Biso   1.000  C
  C623     1.0000 0.90772  0.28442  0.48857  Biso   1.000  C
  C624     1.0000 0.01120  0.59100  0.70266  Biso   1.000  C
  C625     1.0000 0.02073  0.19983  0.89778  Biso   1.000  C
  C626     1.0000 0.91514  0.96845  0.19935  Biso   1.000  C
  C627     1.0000 0.22155  0.89133  0.99860  Biso   1.000  C
  C628     1.0000 0.50532  0.19496  0.59520  Biso   1.000  C
  C629     1.0000 0.41174  0.99465  0.29347  Biso   1.000  C
  C630     1.0000 0.72517  0.89237  0.49643  Biso   1.000  C
  C631     1.0000 0.51913  0.69604  0.89908  Biso   1.000  C
  C632     1.0000 0.61718  0.49145  0.20075  Biso   1.000  C
  C633     1.0000 0.30007  0.38904  0.00003  Biso   1.000  C
  C634     1.0000 0.02245  0.69680  0.59415  Biso   1.000  C
  C635     1.0000 0.12321  0.49322  0.28391  Biso   1.000  C
  C636     1.0000 0.80687  0.39255  0.47702  Biso   1.000  C
  C637     1.0000 0.00826  0.78129  0.08963  Biso   1.000  C
  C638     1.0000 0.11685  0.98974  0.78382  Biso   1.000  C
  C639     1.0000 0.80366  0.09452  0.99096  Biso   1.000  C
  C640     1.0000 0.52671  0.77921  0.40178  Biso   1.000  C
  C641     1.0000 0.61991  0.98862  0.70360  Biso   1.000  C
  C642     1.0000 0.30699  0.08347  0.49341  Biso   1.000  C
  C643     1.0000 0.50023  0.27936  0.09700  Biso   1.000  C
  C644     1.0000 0.40473  0.49982  0.78948  Biso   1.000  C
  C645     1.0000 0.72021  0.59292  0.98692  Biso   1.000  C
  C646     1.0000 0.00606  0.27987  0.39395  Biso   1.000  C
  C647     1.0000 0.90472  0.48194  0.70161  Biso   1.000  C
  C648     1.0000 0.22303  0.58133  0.49933  Biso   1.000  C
  C649     1.0000 0.01375  0.69742  0.38912  Biso   1.000  C
  C650     1.0000 0.41651  0.98320  0.70946  Biso   1.000  C
  C651     1.0000 0.72005  0.39014  0.98109  Biso   1.000  C
  C652     1.0000 0.50209  0.69573  0.10172  Biso   1.000  C
  C653     1.0000 0.91198  0.98389  0.78630  Biso   1.000  C
  C654     1.0000 0.21771  0.38121  0.47610  Biso   1.000  C
  C655     1.0000 0.51416  0.19452  0.38912  Biso   1.000  C
  C656     1.0000 0.10943  0.48670  0.70345  Biso   1.000  C
  C657     1.0000 0.80446  0.89420  0.00448  Biso   1.000  C
  C658     1.0000 0.01498  0.19702  0.10345  Biso   1.000  C
  C659     1.0000 0.61086  0.48682  0.78090  Biso   1.000  C
  C660     1.0000 0.30807  0.87811  0.50332  Biso   1.000  C
  C661     1.0000 0.01595  0.28258  0.60123  Biso   1.000  C
  C662     1.0000 0.61709  0.97322  0.28869  Biso   1.000  C
  C663     1.0000 0.30281  0.59483  0.99121  Biso   1.000  C
  C664     1.0000 0.51983  0.28599  0.88906  Biso   1.000  C
  C665     1.0000 0.11349  0.00403  0.20420  Biso   1.000  C
  C666     1.0000 0.80747  0.59317  0.49321  Biso   1.000  C
  C667     1.0000 0.51266  0.77790  0.60646  Biso   1.000  C
  C668     1.0000 0.92054  0.50960  0.28434  Biso   1.000  C
  C669     1.0000 0.22493  0.09147  0.00031  Biso   1.000  C
  C670     1.0000 0.01455  0.78542  0.88565  Biso   1.000  C
  C671     1.0000 0.41518  0.47970  0.19907  Biso   1.000  C
  C672     1.0000 0.72463  0.09591  0.47826  Biso   1.000  C
  C673     1.0000 0.21148  0.97871  0.80047  Biso   1.000  C
  C674     1.0000 0.82061  0.18926  0.99129  Biso   1.000  C
  C675     1.0000 0.01073  0.79000  0.18409  Biso   1.000  C
  C676     1.0000 0.71116  0.99019  0.68772  Biso   1.000  C
  C677     1.0000 0.31789  0.17759  0.48390  Biso   1.000  C
  C678     1.0000 0.50138  0.78888  0.31136  Biso   1.000  C
  C679     1.0000 0.30867  0.49670  0.80037  Biso   1.000  C
  C680     1.0000 0.71255  0.68532  0.99274  Biso   1.000  C
  C681     1.0000 0.50782  0.29079  0.19116  Biso   1.000  C
  C682     1.0000 0.81087  0.49343  0.68290  Biso   1.000  C
  C683     1.0000 0.21411  0.67504  0.49891  Biso   1.000  C
  C684     1.0000 0.01432  0.28968  0.30136  Biso   1.000  C
  C685     1.0000 0.82059  0.97878  0.19120  Biso   1.000  C
  C686     1.0000 0.21100  0.79836  0.99618  Biso   1.000  C
  C687     1.0000 0.02173  0.18898  0.80343  Biso   1.000  C
  C688     1.0000 0.31842  0.99167  0.30587  Biso   1.000  C
  C689     1.0000 0.71357  0.79676  0.50579  Biso   1.000  C
  C690     1.0000 0.51535  0.18251  0.68908  Biso   1.000  C
  C691     1.0000 0.71273  0.50055  0.18743  Biso   1.000  C
  C692     1.0000 0.31538  0.29738  0.00032  Biso   1.000  C
  C693     1.0000 0.49742  0.68670  0.80519  Biso   1.000  C
  C694     1.0000 0.21651  0.48865  0.30142  Biso   1.000  C
  C695     1.0000 0.81408  0.29846  0.47343  Biso   1.000  C
  C696     1.0000 0.01558  0.68430  0.68725  Biso   1.000  C
  C697     1.0000 0.71087  0.98137  0.29562  Biso   1.000  C
  C698     1.0000 0.32143  0.69055  0.00105  Biso   1.000  C
  C699     1.0000 0.01546  0.29776  0.69640  Biso   1.000  C
  C700     1.0000 0.21044  0.99509  0.19537  Biso   1.000  C
  C701     1.0000 0.82063  0.68826  0.50261  Biso   1.000  C
  C702     1.0000 0.51527  0.29569  0.79571  Biso   1.000  C
  C703     1.0000 0.82421  0.50566  0.29425  Biso   1.000  C
  C704     1.0000 0.21075  0.18560  0.00000  Biso   1.000  C
  C705     1.0000 0.50123  0.79323  0.69972  Biso   1.000  C
  C706     1.0000 0.32022  0.47722  0.18923  Biso   1.000  C
  C707     1.0000 0.70885  0.18932  0.47134  Biso   1.000  C
  C708     1.0000 0.00674  0.79797  0.79151  Biso   1.000  C
  C709     1.0000 0.32373  0.96667  0.69769  Biso   1.000  C
  C710     1.0000 0.70937  0.29733  0.99782  Biso   1.000  C
  C711     1.0000 0.01797  0.67876  0.29484  Biso   1.000  C
  C712     1.0000 0.82000  0.98819  0.79597  Biso   1.000  C
  C713     1.0000 0.20761  0.28412  0.48191  Biso   1.000  C
  C714     1.0000 0.50220  0.68293  0.19490  Biso   1.000  C
  C715     1.0000 0.20632  0.48447  0.68995  Biso   1.000  C
  C716     1.0000 0.81798  0.79883  0.99991  Biso   1.000  C
  C717     1.0000 0.51246  0.17965  0.29553  Biso   1.000  C
  C718     1.0000 0.70497  0.49436  0.79162  Biso   1.000  C
  C719     1.0000 0.32247  0.78525  0.50325  Biso   1.000  C
  C720     1.0000 0.01519  0.17945  0.19664  Biso   1.000  C
  C721     1.0000 0.51288  0.79286  0.28256  Biso   1.000  C
  C722     1.0000 0.31305  0.51275  0.77387  Biso   1.000  C
  C723     1.0000 0.78484  0.30315  0.48566  Biso   1.000  C
  C724     1.0000 0.99083  0.76484  0.18367  Biso   1.000  C
  C725     1.0000 0.78740  0.51297  0.67972  Biso   1.000  C
  C726     1.0000 0.28684  0.30064  0.98404  Biso   1.000  C
  C727     1.0000 0.00106  0.29459  0.27272  Biso   1.000  C
  C728     1.0000 0.24007  0.99434  0.80190  Biso   1.000  C
  C729     1.0000 0.73971  0.79961  0.52430  Biso   1.000  C
  C730     1.0000 0.49417  0.29444  0.21921  Biso   1.000  C
  C731     1.0000 0.73474  0.97012  0.68596  Biso   1.000  C
  C732     1.0000 0.23853  0.80336  0.98266  Biso   1.000  C
  C733     1.0000 0.50231  0.17892  0.71708  Biso   1.000  C
  C734     1.0000 0.70977  0.48538  0.21528  Biso   1.000  C
  C735     1.0000 0.21764  0.69686  0.47673  Biso   1.000  C
  C736     1.0000 0.00351  0.21533  0.80779  Biso   1.000  C
  C737     1.0000 0.24120  0.46882  0.30593  Biso   1.000  C
  C738     1.0000 0.73931  0.68253  0.00880  Biso   1.000  C
  C739     1.0000 0.02906  0.68256  0.71563  Biso   1.000  C
  C740     1.0000 0.79232  0.96693  0.18518  Biso   1.000  C
  C741     1.0000 0.32052  0.20472  0.46607  Biso   1.000  C
  C742     1.0000 0.50704  0.68161  0.77580  Biso   1.000  C
  C743     1.0000 0.29441  0.97094  0.30570  Biso   1.000  C
  C744     1.0000 0.82152  0.21138  0.01223  Biso   1.000  C
  C745     1.0000 0.03277  0.70602  0.29737  Biso   1.000  C
  C746     1.0000 0.29362  0.97770  0.69303  Biso   1.000  C
  C747     1.0000 0.73878  0.30396  0.00732  Biso   1.000  C
  C748     1.0000 0.52242  0.70760  0.19666  Biso   1.000  C
  C749     1.0000 0.82077  0.97079  0.77042  Biso   1.000  C
  C750     1.0000 0.23459  0.28832  0.49737  Biso   1.000  C
  C751     1.0000 0.53284  0.17978  0.27186  Biso   1.000  C
  C752     1.0000 0.23327  0.46932  0.68910  Biso   1.000  C
  C753     1.0000 0.79030  0.80407  0.98463  Biso   1.000  C
  C754     1.0000 0.03137  0.20776  0.19448  Biso   1.000  C
  C755     1.0000 0.70208  0.47416  0.76618  Biso   1.000  C
  C756     1.0000 0.29671  0.78495  0.52208  Biso   1.000  C
  C757     1.0000 0.99951  0.27073  0.69363  Biso   1.000  C
  C758     1.0000 0.70772  0.99650  0.26785  Biso   1.000  C
  C759     1.0000 0.29478  0.68924  0.01659  Biso   1.000  C
  C760     1.0000 0.53122  0.29739  0.76979  Biso   1.000  C
  C761     1.0000 0.23811  0.00833  0.19125  Biso   1.000  C
  C762     1.0000 0.82383  0.71447  0.48497  Biso   1.000  C
  C763     1.0000 0.48053  0.76863  0.69545  Biso   1.000  C
  C764     1.0000 0.79763  0.52345  0.29584  Biso   1.000  C
  C765     1.0000 0.23217  0.18574  0.02210  Biso   1.000  C
  C766     1.0000 0.99097  0.80029  0.76443  Biso   1.000  C
  C767     1.0000 0.32889  0.49482  0.21532  Biso   1.000  C
  C768     1.0000 0.70454  0.21595  0.45413  Biso   1.000  C
  C769     1.0000 0.48795  0.71459  0.81237  Biso   1.000  C
  C770     1.0000 0.81066  0.47715  0.70965  Biso   1.000  C
  C771     1.0000 0.71181  0.77006  0.48774  Biso   1.000  C
  C772     1.0000 0.99891  0.71066  0.68271  Biso   1.000  C
  C773     1.0000 0.28294  0.47922  0.80391  Biso   1.000  C
  C774     1.0000 0.20864  0.77162  0.01260  Biso   1.000  C
  C775     1.0000 0.03551  0.18509  0.77514  Biso   1.000  C
  C776     1.0000 0.71215  0.01205  0.71054  Biso   1.000  C
  C777     1.0000 0.81978  0.27039  0.45850  Biso   1.000  C
  C778     1.0000 0.53190  0.21033  0.68388  Biso   1.000  C
  C779     1.0000 0.20780  0.95858  0.77771  Biso   1.000  C
  C780     1.0000 0.31866  0.27326  0.01958  Biso   1.000  C
  C781     1.0000 0.52117  0.26223  0.18567  Biso   1.000  C
  C782     1.0000 0.21670  0.50677  0.27565  Biso   1.000  C
  C783     1.0000 0.29131  0.17341  0.49876  Biso   1.000  C
  C784     1.0000 0.02655  0.26068  0.30749  Biso   1.000  C
  C785     1.0000 0.74031  0.51589  0.18275  Biso   1.000  C
  C786     1.0000 0.79515  0.18944  0.97126  Biso   1.000  C
  C787     1.0000 0.03156  0.79122  0.20921  Biso   1.000  C
  C788     1.0000 0.31944  0.01384  0.28405  Biso   1.000  C
  C789     1.0000 0.23560  0.67397  0.52246  Biso   1.000  C
  C790     1.0000 0.48902  0.75980  0.31614  Biso   1.000  C
  C791     1.0000 0.82545  0.99112  0.21982  Biso   1.000  C
  C792     1.0000 0.70661  0.71331  0.97809  Biso   1.000  C
  C793     1.0000 0.49183  0.20373  0.29831  Biso   1.000  C
  C794     1.0000 0.29252  0.46249  0.18949  Biso   1.000  C
  C795     1.0000 0.20306  0.25740  0.46622  Biso   1.000  C
  C796     1.0000 0.99619  0.17420  0.22307  Biso   1.000  C
  C797     1.0000 0.82875  0.48941  0.26791  Biso   1.000  C
  C798     1.0000 0.70350  0.26755  0.99064  Biso   1.000  C
  C799     1.0000 0.00270  0.67405  0.26532  Biso   1.000  C
  C800     1.0000 0.20709  0.98035  0.22252  Biso   1.000  C
  C801     1.0000 0.32645  0.75944  0.48517  Biso   1.000  C
  C802     1.0000 0.48404  0.68044  0.22093  Biso   1.000  C
  C803     1.0000 0.73727  0.96403  0.30021  Biso   1.000  C
  C804     1.0000 0.82149  0.77326  0.01645  Biso   1.000  C
  C805     1.0000 0.51969  0.79475  0.72577  Biso   1.000  C
  C806     1.0000 0.72872  0.51472  0.79130  Biso   1.000  C
  C807     1.0000 0.79395  0.68467  0.52038  Biso   1.000  C
  C808     1.0000 0.02516  0.77272  0.79578  Biso   1.000  C
  C809     1.0000 0.20127  0.50116  0.71498  Biso   1.000  C
  C810     1.0000 0.32880  0.71740  0.98544  Biso   1.000  C
  C811     1.0000 0.03233  0.30247  0.72297  Biso   1.000  C
  C812     1.0000 0.79651  0.00806  0.79929  Biso   1.000  C
  C813     1.0000 0.73590  0.18563  0.48791  Biso   1.000  C
  C814     1.0000 0.49806  0.26832  0.79819  Biso   1.000  C
  C815     1.0000 0.32899  0.95399  0.72651  Biso   1.000  C
  C816     1.0000 0.20926  0.20796  0.97735  Biso   1.000  C
  C817     1.0000 0.00245  0.23694  0.78793  Biso   1.000  C
  C818     1.0000 0.77229  0.96590  0.20643  Biso   1.000  C
  C819     1.0000 0.26172  0.78365  0.98477  Biso   1.000  C
  C820     1.0000 0.50066  0.20257  0.73613  Biso   1.000  C
  C821     1.0000 0.27504  0.97275  0.28190  Biso   1.000  C
  C822     1.0000 0.76288  0.78065  0.52225  Biso   1.000  C
  C823     1.0000 0.50358  0.70334  0.75563  Biso   1.000  C
  C824     1.0000 0.73211  0.48631  0.23412  Biso   1.000  C
  C825     1.0000 0.26799  0.27837  0.98671  Biso   1.000  C
  C826     1.0000 0.02617  0.70351  0.73627  Biso   1.000  C
  C827     1.0000 0.26356  0.46777  0.28526  Biso   1.000  C
  C828     1.0000 0.76343  0.28198  0.48298  Biso   1.000  C
  C829     1.0000 0.99209  0.74439  0.20536  Biso   1.000  C
  C830     1.0000 0.26217  0.98994  0.78202  Biso   1.000  C
  C831     1.0000 0.80103  0.23285  0.01302  Biso   1.000  C
  C832     1.0000 0.51283  0.77194  0.26115  Biso   1.000  C
  C833     1.0000 0.75705  0.97243  0.70607  Biso   1.000  C
  C834     1.0000 0.29808  0.22465  0.46483  Biso   1.000  C
  C835     1.0000 0.49458  0.27271  0.23877  Biso   1.000  C
  C836     1.0000 0.29314  0.51024  0.75170  Biso   1.000  C
  C837     1.0000 0.75835  0.70563  0.01218  Biso   1.000  C
  C838     1.0000 0.00055  0.27143  0.25293  Biso   1.000  C
  C839     1.0000 0.76506  0.51603  0.69913  Biso   1.000  C
  C840     1.0000 0.24204  0.71524  0.47902  Biso   1.000  C
  C841     1.0000 0.23208  0.95292  0.76106  Biso   1.000  C
  C842     1.0000 0.77522  0.21174  0.97245  Biso   1.000  C
  C843     1.0000 0.03156  0.76985  0.23059  Biso   1.000  C
  C844     1.0000 0.73396  0.01178  0.73078  Biso   1.000  C
  C845     1.0000 0.26892  0.19459  0.49728  Biso   1.000  C
  C846     1.0000 0.49098  0.73887  0.29415  Biso   1.000  C
  C847     1.0000 0.26248  0.47973  0.78271  Biso   1.000  C
  C848     1.0000 0.72652  0.73555  0.98147  Biso   1.000  C
  C849     1.0000 0.52154  0.24092  0.20576  Biso   1.000  C
  C850     1.0000 0.78862  0.48061  0.72936  Biso   1.000  C
  C851     1.0000 0.25808  0.69370  0.52536  Biso   1.000  C
  C852     1.0000 0.02145  0.23866  0.28857  Biso   1.000  C
  C853     1.0000 0.80524  0.98937  0.24062  Biso   1.000  C
  C854     1.0000 0.23242  0.75427  0.01620  Biso   1.000  C
  C855     1.0000 0.03109  0.20788  0.75521  Biso   1.000  C
  C856     1.0000 0.29572  0.01722  0.26414  Biso   1.000  C
  C857     1.0000 0.73431  0.75042  0.49014  Biso   1.000  C
  C858     1.0000 0.53200  0.23085  0.70560  Biso   1.000  C
  C859     1.0000 0.76255  0.51523  0.20237  Biso   1.000  C
  C860     1.0000 0.29845  0.25169  0.02079  Biso   1.000  C
  C861     1.0000 0.48649  0.73654  0.79230  Biso   1.000  C
  C862     1.0000 0.24170  0.50523  0.25641  Biso   1.000  C
  C863     1.0000 0.79897  0.24841  0.45945  Biso   1.000  C
  C864     1.0000 0.99992  0.73293  0.70227  Biso   1.000  C
  C865     1.0000 0.72177  0.47512  0.74351  Biso   1.000  C
  C866     1.0000 0.80544  0.73728  0.48804  Biso   1.000  C
  C867     1.0000 0.47694  0.75024  0.71847  Biso   1.000  C
  C868     1.0000 0.25410  0.47352  0.71059  Biso   1.000  C
  C869     1.0000 0.27493  0.71190  0.01773  Biso   1.000  C
  C870     1.0000 0.99307  0.77854  0.74477  Biso   1.000  C
  C871     1.0000 0.79848  0.97021  0.75018  Biso   1.000  C
  C872     1.0000 0.72635  0.23607  0.45346  Biso   1.000  C
  C873     1.0000 0.99973  0.25098  0.71551  Biso   1.000  C
  C874     1.0000 0.27191  0.97456  0.71257  Biso   1.000  C
  C875     1.0000 0.25361  0.20578  0.02076  Biso   1.000  C
  C876     1.0000 0.53152  0.27510  0.74921  Biso   1.000  C
  C877     1.0000 0.30990  0.49620  0.23932  Biso   1.000  C
  C878     1.0000 0.25523  0.26677  0.49524  Biso   1.000  C
  C879     1.0000 0.53213  0.20267  0.25343  Biso   1.000  C
  C880     1.0000 0.77684  0.51884  0.27389  Biso   1.000  C
  C881     1.0000 0.76112  0.28279  0.00607  Biso   1.000  C
  C882     1.0000 0.02774  0.22850  0.21622  Biso   1.000  C
  C883     1.0000 0.25713  0.01071  0.21469  Biso   1.000  C
  C884     1.0000 0.27936  0.76161  0.52431  Biso   1.000  C
  C885     1.0000 0.03192  0.72669  0.27580  Biso   1.000  C
  C886     1.0000 0.73072  0.99485  0.24890  Biso   1.000  C
  C887     1.0000 0.76938  0.78224  0.98421  Biso   1.000  C
  C888     1.0000 0.52206  0.72558  0.22009  Biso   1.000  C
  C889     1.0000 0.75872  0.96414  0.28053  Biso   1.000  C
  C890     1.0000 0.30778  0.74019  0.98659  Biso   1.000  C
  C891     1.0000 0.03337  0.27989  0.74323  Biso   1.000  C
  C892     1.0000 0.22617  0.98103  0.24455  Biso   1.000  C
  C893     1.0000 0.77552  0.70742  0.52121  Biso   1.000  C
  C894     1.0000 0.49834  0.24602  0.77931  Biso   1.000  C
  C895     1.0000 0.80802  0.48702  0.24705  Biso   1.000  C
  C896     1.0000 0.23128  0.22860  0.97671  Biso   1.000  C
  C897     1.0000 0.51532  0.77534  0.74880  Biso   1.000  C
  C898     1.0000 0.27571  0.46465  0.21477  Biso   1.000  C
  C899     1.0000 0.75672  0.20746  0.48666  Biso   1.000  C
  C900     1.0000 0.02579  0.75092  0.77501  Biso   1.000  C
  C901     1.0000 0.30669  0.95281  0.74690  Biso   1.000  C
  C902     1.0000 0.72574  0.24771  0.99013  Biso   1.000  C
  C903     1.0000 0.00144  0.69569  0.24524  Biso   1.000  C
  C904     1.0000 0.77395  0.00803  0.77760  Biso   1.000  C
  C905     1.0000 0.22454  0.23687  0.46468  Biso   1.000  C
  C906     1.0000 0.48546  0.69803  0.24357  Biso   1.000  C
  C907     1.0000 0.22173  0.50286  0.73657  Biso   1.000  C
  C908     1.0000 0.79962  0.75150  0.01488  Biso   1.000  C
  C909     1.0000 0.49110  0.22773  0.27891  Biso   1.000  C
  C910     1.0000 0.74833  0.51396  0.76890  Biso   1.000  C
  C911     1.0000 0.30816  0.73528  0.48940  Biso   1.000  C
  C912     1.0000 0.99424  0.19627  0.24271  Biso   1.000  C
  C913     1.0000 0.76575  0.49752  0.72282  Biso   1.000  C
  C914     1.0000 0.75945  0.75612  0.50594  Biso   1.000  C
  C915     1.0000 0.49492  0.73036  0.76469  Biso   1.000  C
  C916     1.0000 0.26871  0.49421  0.75716  Biso   1.000  C
  C917     1.0000 0.25840  0.75805  0.00055  Biso   1.000  C
  C918     1.0000 0.01288  0.73047  0.72938  Biso   1.000  C
  C919     1.0000 0.75674  0.99331  0.72825  Biso   1.000  C
  C920     1.0000 0.77090  0.25450  0.47173  Biso   1.000  C
  C921     1.0000 0.01632  0.23300  0.76236  Biso   1.000  C
  C922     1.0000 0.25810  0.96714  0.76343  Biso   1.000  C
  C923     1.0000 0.27400  0.25311  0.00253  Biso   1.000  C
  C924     1.0000 0.51549  0.22699  0.73054  Biso   1.000  C
  C925     1.0000 0.26286  0.48490  0.26084  Biso   1.000  C
  C926     1.0000 0.27358  0.21897  0.48062  Biso   1.000  C
  C927     1.0000 0.50869  0.24688  0.23294  Biso   1.000  C
  C928     1.0000 0.75872  0.50053  0.22807  Biso   1.000  C
  C929     1.0000 0.77684  0.23225  0.99421  Biso   1.000  C
  C930     1.0000 0.00975  0.24364  0.26129  Biso   1.000  C
  C931     1.0000 0.27513  0.99581  0.26249  Biso   1.000  C
  C932     1.0000 0.26050  0.71516  0.50421  Biso   1.000  C
  C933     1.0000 0.01396  0.74644  0.22777  Biso   1.000  C
  C934     1.0000 0.77704  0.97908  0.23271  Biso   1.000  C
  C935     1.0000 0.75228  0.73193  0.99817  Biso   1.000  C
  C936     1.0000 0.50162  0.74453  0.26703  Biso   1.000  C
  C937     1.0000 0.75443  0.25524  0.99791  Biso   1.000  C
  C938     1.0000 0.01694  0.72201  0.24945  Biso   1.000  C
  C939     1.0000 0.27886  0.96130  0.74002  Biso   1.000  C
  C940     1.0000 0.25059  0.24097  0.47951  Biso   1.000  C
  C941     1.0000 0.50297  0.72181  0.24368  Biso   1.000  C
  C942     1.0000 0.77570  0.98834  0.75438  Biso   1.000  C
  C943     1.0000 0.77316  0.75660  0.00012  Biso   1.000  C
  C944     1.0000 0.51157  0.22517  0.25579  Biso   1.000  C
  C945     1.0000 0.24853  0.49000  0.73369  Biso   1.000  C
  C946     1.0000 0.28335  0.73800  0.50629  Biso   1.000  C
  C947     1.0000 0.00994  0.22196  0.23908  Biso   1.000  C
  C948     1.0000 0.74289  0.49632  0.74496  Biso   1.000  C
  C949     1.0000 0.28208  0.73745  0.00302  Biso   1.000  C
  C950     1.0000 0.01648  0.25606  0.74078  Biso   1.000  C
  C951     1.0000 0.75567  0.97868  0.25476  Biso   1.000  C
  C952     1.0000 0.78107  0.73313  0.50571  Biso   1.000  C
  C953     1.0000 0.51568  0.24904  0.75364  Biso   1.000  C
  C954     1.0000 0.25178  0.99549  0.24043  Biso   1.000  C
  C955     1.0000 0.25225  0.22957  0.00036  Biso   1.000  C
  C956     1.0000 0.49565  0.75343  0.74362  Biso   1.000  C
  C957     1.0000 0.78166  0.50100  0.25068  Biso   1.000  C
  C958     1.0000 0.75048  0.23199  0.47030  Biso   1.000  C
  C959     1.0000 0.00833  0.75331  0.75079  Biso   1.000  C
  C960     1.0000 0.28438  0.48055  0.23857  Biso   1.000  C
  Cu1      1.0000 0.00828  0.48883  0.64859  Biso   1.000  Cu
  Cu2      1.0000 0.66952  0.99583  0.49077  Biso   1.000  Cu
  Cu3      1.0000 0.51389  0.64166  0.99845  Biso   1.000  Cu
  Cu4      1.0000 0.50840  0.49179  0.84180  Biso   1.000  Cu
  Cu5      1.0000 0.16748  0.99055  0.99525  Biso   1.000  Cu
  Cu6      1.0000 0.01704  0.64290  0.49094  Biso   1.000  Cu
  Cu7      1.0000 0.51522  0.98672  0.65466  Biso   1.000  Cu
  Cu8      1.0000 0.85892  0.49151  0.48802  Biso   1.000  Cu
  Cu9      1.0000 0.01598  0.14327  0.00093  Biso   1.000  Cu
  Cu10     1.0000 0.01407  0.99263  0.83821  Biso   1.000  Cu
  Cu11     1.0000 0.35554  0.49160  0.99299  Biso   1.000  Cu
  Cu12     1.0000 0.51666  0.14123  0.49329  Biso   1.000  Cu
  Cu13     1.0000 0.01965  0.48760  0.34085  Biso   1.000  Cu
  Cu14     1.0000 0.36365  0.98294  0.50353  Biso   1.000  Cu
  Cu15     1.0000 0.51109  0.33922  0.99484  Biso   1.000  Cu
  Cu16     1.0000 0.51666  0.48700  0.14576  Biso   1.000  Cu
  Cu17     1.0000 0.85878  0.99301  0.99192  Biso   1.000  Cu
  Cu18     1.0000 0.01285  0.33430  0.49739  Biso   1.000  Cu
  Cu19     1.0000 0.51566  0.98752  0.34510  Biso   1.000  Cu
  Cu20     1.0000 0.16593  0.47927  0.49631  Biso   1.000  Cu
  Cu21     1.0000 0.01410  0.83694  0.99125  Biso   1.000  Cu
  Cu22     1.0000 0.01271  0.98694  0.14512  Biso   1.000  Cu
  Cu23     1.0000 0.66669  0.49405  0.99203  Biso   1.000  Cu
  Cu24     1.0000 0.51977  0.83349  0.50556  Biso   1.000  Cu
  Cu25     1.0000 0.22282  0.98917  0.99446  Biso   1.000  Cu
  Cu26     1.0000 0.01471  0.19767  0.00173  Biso   1.000  Cu
  Cu27     1.0000 0.01308  0.98694  0.19950  Biso   1.000  Cu
  Cu28     1.0000 0.72406  0.99273  0.49188  Biso   1.000  Cu
  Cu29     1.0000 0.51219  0.19720  0.49241  Biso   1.000  Cu
  Cu30     1.0000 0.51489  0.98121  0.29211  Biso   1.000  Cu
  Cu31     1.0000 0.30066  0.49184  0.99569  Biso   1.000  Cu
  Cu32     1.0000 0.51392  0.69728  0.99802  Biso   1.000  Cu
  Cu33     1.0000 0.51443  0.48510  0.20154  Biso   1.000  Cu
  Cu34     1.0000 0.80544  0.49530  0.48743  Biso   1.000  Cu
  Cu35     1.0000 0.01720  0.69665  0.49081  Biso   1.000  Cu
  Cu36     1.0000 0.02006  0.48921  0.28683  Biso   1.000  Cu
  Cu37     1.0000 0.80476  0.99426  0.99502  Biso   1.000  Cu
  Cu38     1.0000 0.01306  0.78268  0.98991  Biso   1.000  Cu
  Cu39     1.0000 0.01269  0.99552  0.78401  Biso   1.000  Cu
  Cu40     1.0000 0.31045  0.98136  0.50198  Biso   1.000  Cu
  Cu41     1.0000 0.52026  0.77817  0.50445  Biso   1.000  Cu
  Cu42     1.0000 0.51694  0.98731  0.70787  Biso   1.000  Cu
  Cu43     1.0000 0.72080  0.49269  0.98927  Biso   1.000  Cu
  Cu44     1.0000 0.51533  0.28467  0.99331  Biso   1.000  Cu
  Cu45     1.0000 0.50607  0.49337  0.78778  Biso   1.000  Cu
  Cu46     1.0000 0.22073  0.47924  0.49678  Biso   1.000  Cu
  Cu47     1.0000 0.01102  0.28052  0.49865  Biso   1.000  Cu
  Cu48     1.0000 0.00564  0.49172  0.70329  Biso   1.000  Cu
  H1       1.0000 0.25840  0.76444  0.53658  Biso   1.000  H
  H2       1.0000 0.54267  0.27872  0.72833  Biso   1.000  H
  H3       1.0000 0.75794  0.53087  0.27739  Biso   1.000  H
  H4       1.0000 0.74929  0.78629  0.97267  Biso   1.000  H
  H5       1.0000 0.98548  0.23235  0.71401  Biso   1.000  H
  H6       1.0000 0.31117  0.50847  0.25920  Biso   1.000  H
  H7       1.0000 0.27568  0.26937  0.50863  Biso   1.000  H
  H8       1.0000 0.97881  0.78020  0.72501  Biso   1.000  H
  H9       1.0000 0.73003  0.00803  0.22892  Biso   1.000  H
  H10      1.0000 0.78265  0.28934  0.01028  Biso   1.000  H
  H11      1.0000 0.46024  0.73413  0.72002  Biso   1.000  H
  H12      1.0000 0.27750  0.02065  0.21267  Biso   1.000  H
  H13      1.0000 0.72506  0.25458  0.43973  Biso   1.000  H
  H14      1.0000 0.53885  0.74255  0.21973  Biso   1.000  H
  H15      1.0000 0.27462  0.46160  0.70783  Biso   1.000  H
  H16      1.0000 0.27148  0.20500  0.03613  Biso   1.000  H
  H17      1.0000 0.04201  0.74819  0.27967  Biso   1.000  H
  H18      1.0000 0.72153  0.46059  0.72470  Biso   1.000  H
  H19      1.0000 0.81023  0.75757  0.47743  Biso   1.000  H
  H20      1.0000 0.04342  0.24562  0.21843  Biso   1.000  H
  H21      1.0000 0.25060  0.98405  0.70468  Biso   1.000  H
  H22      1.0000 0.25606  0.70857  0.03032  Biso   1.000  H
  H23      1.0000 0.54666  0.20308  0.23395  Biso   1.000  H
  H24      1.0000 0.79922  0.95440  0.73448  Biso   1.000  H
  H25      1.0000 0.28157  0.00438  0.78275  Biso   1.000  H
  H26      1.0000 0.80328  0.24881  0.03209  Biso   1.000  H
  H27      1.0000 0.97766  0.72781  0.20521  Biso   1.000  H
  H28      1.0000 0.77581  0.95930  0.70199  Biso   1.000  H
  H29      1.0000 0.29835  0.24406  0.45231  Biso   1.000  H
  H30      1.0000 0.52225  0.77771  0.24005  Biso   1.000  H
  H31      1.0000 0.29334  0.51981  0.73085  Biso   1.000  H
  H32      1.0000 0.77675  0.70386  0.02614  Biso   1.000  H
  H33      1.0000 0.48606  0.27805  0.25987  Biso   1.000  H
  H34      1.0000 0.74910  0.53284  0.69627  Biso   1.000  H
  H35      1.0000 0.24345  0.73026  0.46124  Biso   1.000  H
  H36      1.0000 0.99183  0.27724  0.23085  Biso   1.000  H
  H37      1.0000 0.75285  0.95400  0.20322  Biso   1.000  H
  H38      1.0000 0.28159  0.78712  0.97245  Biso   1.000  H
  H39      1.0000 0.98909  0.25508  0.79296  Biso   1.000  H
  H40      1.0000 0.25878  0.95658  0.27903  Biso   1.000  H
  H41      1.0000 0.78052  0.78254  0.53639  Biso   1.000  H
  H42      1.0000 0.48801  0.19997  0.75605  Biso   1.000  H
  H43      1.0000 0.72907  0.47547  0.25538  Biso   1.000  H
  H44      1.0000 0.24848  0.28068  0.97340  Biso   1.000  H
  H45      1.0000 0.50725  0.70066  0.73244  Biso   1.000  H
  H46      1.0000 0.28406  0.45681  0.28915  Biso   1.000  H
  H47      1.0000 0.74274  0.28787  0.48977  Biso   1.000  H
  H48      1.0000 0.03530  0.69877  0.75812  Biso   1.000  H
  H49      1.0000 0.24279  0.51871  0.23738  Biso   1.000  H
  H50      1.0000 0.24943  0.19231  0.50924  Biso   1.000  H
  H51      1.0000 0.53051  0.21992  0.19763  Biso   1.000  H
  H52      1.0000 0.78450  0.52662  0.19803  Biso   1.000  H
  H53      1.0000 0.75781  0.21280  0.95613  Biso   1.000  H
  H54      1.0000 0.02929  0.21809  0.29480  Biso   1.000  H
  H55      1.0000 0.29453  0.03267  0.24850  Biso   1.000  H
  H56      1.0000 0.27116  0.69205  0.54494  Biso   1.000  H
  H57      1.0000 0.04951  0.77347  0.24577  Biso   1.000  H
  H58      1.0000 0.80989  0.99596  0.26326  Biso   1.000  H
  H59      1.0000 0.71931  0.75509  0.97113  Biso   1.000  H
  H60      1.0000 0.48227  0.71789  0.29578  Biso   1.000  H
  H61      1.0000 0.79069  0.46598  0.74920  Biso   1.000  H
  H62      1.0000 0.73003  0.72873  0.48007  Biso   1.000  H
  H63      1.0000 0.47795  0.75832  0.79919  Biso   1.000  H
  H64      1.0000 0.24152  0.46811  0.78724  Biso   1.000  H
  H65      1.0000 0.22698  0.73605  0.03181  Biso   1.000  H
  H66      1.0000 0.98882  0.75231  0.69418  Biso   1.000  H
  H67      1.0000 0.73293  0.02508  0.74907  Biso   1.000  H
  H68      1.0000 0.80554  0.22807  0.45124  Biso   1.000  H
  H69      1.0000 0.04389  0.20660  0.73530  Biso   1.000  H
  H70      1.0000 0.22940  0.93556  0.74537  Biso   1.000  H
  H71      1.0000 0.30321  0.23405  0.03481  Biso   1.000  H
  H72      1.0000 0.54611  0.24905  0.70350  Biso   1.000  H
  H73      1.0000 0.76733  0.52940  0.77061  Biso   1.000  H
  H74      1.0000 0.75589  0.70526  0.53506  Biso   1.000  H
  H75      1.0000 0.52508  0.77480  0.76941  Biso   1.000  H
  H76      1.0000 0.21616  0.51554  0.75468  Biso   1.000  H
  H77      1.0000 0.31351  0.76011  0.97704  Biso   1.000  H
  H78      1.0000 0.04263  0.73515  0.77604  Biso   1.000  H
  H79      1.0000 0.75310  0.02144  0.78319  Biso   1.000  H
  H80      1.0000 0.77671  0.20296  0.49862  Biso   1.000  H
  H81      1.0000 0.04674  0.28326  0.76274  Biso   1.000  H
  H82      1.0000 0.31251  0.94268  0.76683  Biso   1.000  H
  H83      1.0000 0.23359  0.24196  0.95829  Biso   1.000  H
  H84      1.0000 0.48429  0.22681  0.78255  Biso   1.000  H
  H85      1.0000 0.25454  0.45294  0.21798  Biso   1.000  H
  H86      1.0000 0.22250  0.21721  0.45353  Biso   1.000  H
  H87      1.0000 0.47777  0.24614  0.28385  Biso   1.000  H
  H88      1.0000 0.81210  0.47575  0.22622  Biso   1.000  H
  H89      1.0000 0.71805  0.22623  0.98309  Biso   1.000  H
  H90      1.0000 0.98125  0.19579  0.26140  Biso   1.000  H
  H91      1.0000 0.22003  0.97260  0.26633  Biso   1.000  H
  H92      1.0000 0.31084  0.71593  0.47607  Biso   1.000  H
  H93      1.0000 0.98873  0.69082  0.22521  Biso   1.000  H
  H94      1.0000 0.77644  0.94910  0.28321  Biso   1.000  H
  H95      1.0000 0.80318  0.73221  0.02560  Biso   1.000  H
  H96      1.0000 0.47125  0.69412  0.26145  Biso   1.000  H
  H97      1.0000 0.87799  0.98905  0.90536  Biso   1.000  H
  H98      1.0000 0.92204  0.86054  0.99549  Biso   1.000  H
  H99      1.0000 0.01032  0.90450  0.85470  Biso   1.000  H
  H100     1.0000 0.38125  0.98177  0.58947  Biso   1.000  H
  H101     1.0000 0.42319  0.85039  0.50305  Biso   1.000  H
  H102     1.0000 0.51745  0.89231  0.63242  Biso   1.000  H
  H103     1.0000 0.64533  0.50119  0.89725  Biso   1.000  H
  H104     1.0000 0.60323  0.36075  0.99726  Biso   1.000  H
  H105     1.0000 0.51707  0.40251  0.85652  Biso   1.000  H
  H106     1.0000 0.14474  0.46994  0.58512  Biso   1.000  H
  H107     1.0000 0.10431  0.34930  0.49795  Biso   1.000  H
  H108     1.0000 0.00514  0.40045  0.63201  Biso   1.000  H
  H109     1.0000 0.14864  0.99744  0.08791  Biso   1.000  H
  H110     1.0000 0.10720  0.12162  0.99430  Biso   1.000  H
  H111     1.0000 0.01174  0.07782  0.13067  Biso   1.000  H
  H112     1.0000 0.65125  0.99634  0.40073  Biso   1.000  H
  H113     1.0000 0.60752  0.12503  0.49479  Biso   1.000  H
  H114     1.0000 0.51837  0.07614  0.35919  Biso   1.000  H
  H115     1.0000 0.38009  0.49045  0.08307  Biso   1.000  H
  H116     1.0000 0.42335  0.62428  0.98456  Biso   1.000  H
  H117     1.0000 0.50659  0.57774  0.13073  Biso   1.000  H
  H118     1.0000 0.88423  0.49606  0.39957  Biso   1.000  H
  H119     1.0000 0.92236  0.62179  0.49703  Biso   1.000  H
  H120     1.0000 0.01258  0.57565  0.36004  Biso   1.000  H
  H121     1.0000 0.10501  0.99970  0.85841  Biso   1.000  H
  H122     1.0000 0.88011  0.08388  0.99292  Biso   1.000  H
  H123     1.0000 0.00690  0.85674  0.08381  Biso   1.000  H
  H124     1.0000 0.60318  0.99324  0.63003  Biso   1.000  H
  H125     1.0000 0.38238  0.07240  0.50251  Biso   1.000  H
  H126     1.0000 0.52193  0.85382  0.41508  Biso   1.000  H
  H127     1.0000 0.41330  0.49327  0.86307  Biso   1.000  H
  H128     1.0000 0.64643  0.58333  0.99663  Biso   1.000  H
  H129     1.0000 0.50639  0.35310  0.08587  Biso   1.000  H
  H130     1.0000 0.92120  0.48067  0.62738  Biso   1.000  H
  H131     1.0000 0.14606  0.57590  0.50067  Biso   1.000  H
  H132     1.0000 0.01346  0.35424  0.40584  Biso   1.000  H
  H133     1.0000 0.91998  0.98557  0.12540  Biso   1.000  H
  H134     1.0000 0.14725  0.90151  0.99109  Biso   1.000  H
  H135     1.0000 0.02035  0.12301  0.90564  Biso   1.000  H
  H136     1.0000 0.42511  0.98299  0.36646  Biso   1.000  H
  H137     1.0000 0.64959  0.89891  0.49259  Biso   1.000  H
  H138     1.0000 0.51326  0.11977  0.58376  Biso   1.000  H
  H139     1.0000 0.60779  0.48817  0.12685  Biso   1.000  H
  H140     1.0000 0.37494  0.40256  0.00052  Biso   1.000  H
  H141     1.0000 0.51606  0.61999  0.90438  Biso   1.000  H
  H142     1.0000 0.11042  0.48644  0.36002  Biso   1.000  H
  H143     1.0000 0.88123  0.40042  0.48578  Biso   1.000  H
  H144     1.0000 0.01857  0.62077  0.58381  Biso   1.000  H
  H145     1.0000 0.60157  0.49524  0.85676  Biso   1.000  H
  H146     1.0000 0.88440  0.58247  0.49142  Biso   1.000  H
  H147     1.0000 0.51716  0.85296  0.59587  Biso   1.000  H
  H148     1.0000 0.09985  0.47579  0.62968  Biso   1.000  H
  H149     1.0000 0.37956  0.58510  0.98363  Biso   1.000  H
  H150     1.0000 0.01972  0.85910  0.89753  Biso   1.000  H
  H151     1.0000 0.92215  0.98805  0.86267  Biso   1.000  H
  H152     1.0000 0.64893  0.08343  0.49482  Biso   1.000  H
  H153     1.0000 0.00247  0.35542  0.58816  Biso   1.000  H
  H154     1.0000 0.42440  0.98391  0.63222  Biso   1.000  H
  H155     1.0000 0.15008  0.08263  0.99422  Biso   1.000  H
  H156     1.0000 0.51416  0.36015  0.90326  Biso   1.000  H
  H157     1.0000 0.42139  0.48775  0.12544  Biso   1.000  H
  H158     1.0000 0.14484  0.38675  0.49414  Biso   1.000  H
  H159     1.0000 0.51447  0.12101  0.40206  Biso   1.000  H
  H160     1.0000 0.92777  0.49382  0.35783  Biso   1.000  H
  H161     1.0000 0.64648  0.40335  0.99681  Biso   1.000  H
  H162     1.0000 0.01268  0.12311  0.08967  Biso   1.000  H
  H163     1.0000 0.10740  0.00356  0.12855  Biso   1.000  H
  H164     1.0000 0.38319  0.89010  0.49439  Biso   1.000  H
  H165     1.0000 0.00943  0.62177  0.40286  Biso   1.000  H
  H166     1.0000 0.60916  0.99256  0.36268  Biso   1.000  H
  H167     1.0000 0.87790  0.90546  0.99996  Biso   1.000  H
  H168     1.0000 0.50257  0.62092  0.08690  Biso   1.000  H
  H169     1.0000 0.02978  0.08633  0.86373  Biso   1.000  H
  H170     1.0000 0.88184  0.98932  0.08496  Biso   1.000  H
  H171     1.0000 0.10441  0.86065  0.99901  Biso   1.000  H
  H172     1.0000 0.51054  0.07700  0.62707  Biso   1.000  H
  H173     1.0000 0.38490  0.98555  0.40948  Biso   1.000  H
  H174     1.0000 0.60699  0.85639  0.50216  Biso   1.000  H
  H175     1.0000 0.50037  0.58363  0.86847  Biso   1.000  H
  H176     1.0000 0.64977  0.49141  0.08426  Biso   1.000  H
  H177     1.0000 0.41945  0.35777  0.99520  Biso   1.000  H
  H178     1.0000 0.01141  0.57560  0.62831  Biso   1.000  H
  H179     1.0000 0.15037  0.48672  0.40492  Biso   1.000  H
  H180     1.0000 0.91864  0.35926  0.49189  Biso   1.000  H
  H181     1.0000 0.01534  0.89755  0.12638  Biso   1.000  H
  H182     1.0000 0.14816  0.00117  0.90411  Biso   1.000  H
  H183     1.0000 0.92434  0.12368  0.99476  Biso   1.000  H
  H184     1.0000 0.50998  0.89412  0.37203  Biso   1.000  H
  H185     1.0000 0.64890  0.98566  0.58315  Biso   1.000  H
  H186     1.0000 0.42670  0.11686  0.50087  Biso   1.000  H
  H187     1.0000 0.51376  0.39277  0.12942  Biso   1.000  H
  H188     1.0000 0.37144  0.48960  0.90603  Biso   1.000  H
  H189     1.0000 0.60608  0.62416  0.00152  Biso   1.000  H
  H190     1.0000 0.01392  0.39517  0.36258  Biso   1.000  H
  H191     1.0000 0.87985  0.48759  0.58284  Biso   1.000  H
  H192     1.0000 0.10844  0.61704  0.49431  Biso   1.000  H
  H193     1.0000 0.28972  0.83302  0.50400  Biso   1.000  H
  H194     1.0000 0.51701  0.26416  0.84626  Biso   1.000  H
  H195     1.0000 0.88071  0.51545  0.25875  Biso   1.000  H
  H196     1.0000 0.78198  0.85344  0.00868  Biso   1.000  H
  H197     1.0000 0.02066  0.26343  0.64474  Biso   1.000  H
  H198     1.0000 0.37228  0.47225  0.21958  Biso   1.000  H
  H199     1.0000 0.24064  0.34039  0.47297  Biso   1.000  H
  H200     1.0000 0.01225  0.76277  0.84398  Biso   1.000  H
  H201     1.0000 0.65681  0.97498  0.26204  Biso   1.000  H
  H202     1.0000 0.74104  0.34872  0.97808  Biso   1.000  H
  H203     1.0000 0.50506  0.76072  0.64935  Biso   1.000  H
  H204     1.0000 0.15574  0.00368  0.22801  Biso   1.000  H
  H205     1.0000 0.74146  0.13881  0.46136  Biso   1.000  H
  H206     1.0000 0.50297  0.71822  0.14307  Biso   1.000  H
  H207     1.0000 0.15119  0.49108  0.72819  Biso   1.000  H
  H208     1.0000 0.24752  0.13287  0.99949  Biso   1.000  H
  H209     1.0000 0.01320  0.71510  0.34472  Biso   1.000  H
  H210     1.0000 0.65231  0.48718  0.75754  Biso   1.000  H
  H211     1.0000 0.78547  0.63438  0.49826  Biso   1.000  H
  H212     1.0000 0.01609  0.21594  0.14973  Biso   1.000  H
  H213     1.0000 0.37543  0.97880  0.73079  Biso   1.000  H
  H214     1.0000 0.28285  0.63786  0.99397  Biso   1.000  H
  H215     1.0000 0.50882  0.21523  0.34635  Biso   1.000  H
  H216     1.0000 0.87035  0.98454  0.76468  Biso   1.000  H
  H217     1.0000 0.25113  0.49171  0.35677  Biso   1.000  H
  H218     1.0000 0.36777  0.20967  0.48378  Biso   1.000  H
  H219     1.0000 0.51346  0.34520  0.22853  Biso   1.000  H
  H220     1.0000 0.74659  0.50059  0.13538  Biso   1.000  H
  H221     1.0000 0.87008  0.22202  0.98650  Biso   1.000  H
  H222     1.0000 0.02101  0.34348  0.26549  Biso   1.000  H
  H223     1.0000 0.28649  0.97219  0.35700  Biso   1.000  H
  H224     1.0000 0.16383  0.71311  0.49576  Biso   1.000  H
  H225     1.0000 0.01631  0.84359  0.22225  Biso   1.000  H
  H226     1.0000 0.78381  0.98795  0.13666  Biso   1.000  H
  H227     1.0000 0.65677  0.72271  0.99711  Biso   1.000  H
  H228     1.0000 0.48580  0.84438  0.27930  Biso   1.000  H
  H229     1.0000 0.77909  0.49846  0.62985  Biso   1.000  H
  H230     1.0000 0.66476  0.76228  0.51381  Biso   1.000  H
  H231     1.0000 0.48594  0.63509  0.77415  Biso   1.000  H
  H232     1.0000 0.27665  0.49043  0.84940  Biso   1.000  H
  H233     1.0000 0.15635  0.76103  0.99028  Biso   1.000  H
  H234     1.0000 0.00796  0.63657  0.72025  Biso   1.000  H
  H235     1.0000 0.74501  0.98551  0.63271  Biso   1.000  H
  H236     1.0000 0.86450  0.26387  0.48350  Biso   1.000  H
  H237     1.0000 0.01058  0.14066  0.76911  Biso   1.000  H
  H238     1.0000 0.24235  0.98231  0.85218  Biso   1.000  H
  H239     1.0000 0.36586  0.26172  0.99943  Biso   1.000  H
  H240     1.0000 0.53002  0.13274  0.72160  Biso   1.000  H
  H241     1.0000 0.74226  0.49886  0.84576  Biso   1.000  H
  H242     1.0000 0.87590  0.72199  0.49735  Biso   1.000  H
  H243     1.0000 0.50049  0.84494  0.73186  Biso   1.000  H
  H244     1.0000 0.24081  0.47456  0.63830  Biso   1.000  H
  H245     1.0000 0.37196  0.71811  0.01346  Biso   1.000  H
  H246     1.0000 0.00988  0.84768  0.75834  Biso   1.000  H
  H247     1.0000 0.78285  0.98726  0.84561  Biso   1.000  H
  H248     1.0000 0.65226  0.22335  0.47425  Biso   1.000  H
  H249     1.0000 0.01303  0.35010  0.72683  Biso   1.000  H
  H250     1.0000 0.28847  0.95646  0.64630  Biso   1.000  H
  H251     1.0000 0.15833  0.21796  0.00257  Biso   1.000  H
  H252     1.0000 0.50206  0.34958  0.76208  Biso   1.000  H
  H253     1.0000 0.28379  0.47738  0.13863  Biso   1.000  H
  H254     1.0000 0.15334  0.25282  0.49092  Biso   1.000  H
  H255     1.0000 0.51965  0.12868  0.26209  Biso   1.000  H
  H256     1.0000 0.78788  0.50398  0.34367  Biso   1.000  H
  H257     1.0000 0.65323  0.26286  0.00761  Biso   1.000  H
  H258     1.0000 0.02378  0.12646  0.22792  Biso   1.000  H
  H259     1.0000 0.24628  0.98896  0.14286  Biso   1.000  H
  H260     1.0000 0.37896  0.74970  0.49399  Biso   1.000  H
  H261     1.0000 0.02417  0.63065  0.26558  Biso   1.000  H
  H262     1.0000 0.74658  0.98690  0.34438  Biso   1.000  H
  H263     1.0000 0.86657  0.76625  0.00081  Biso   1.000  H
  H264     1.0000 0.50738  0.63028  0.22826  Biso   1.000  H
  H265     1.0000 0.02052  0.22227  0.85473  Biso   1.000  H
  H266     1.0000 0.87157  0.96554  0.22106  Biso   1.000  H
  H267     1.0000 0.24511  0.85214  0.00221  Biso   1.000  H
  H268     1.0000 0.49993  0.21428  0.63988  Biso   1.000  H
  H269     1.0000 0.37144  0.99359  0.26953  Biso   1.000  H
  H270     1.0000 0.74843  0.85226  0.50192  Biso   1.000  H
  H271     1.0000 0.51546  0.71687  0.85959  Biso   1.000  H
  H272     1.0000 0.65828  0.49794  0.22049  Biso   1.000  H
  H273     1.0000 0.27997  0.34809  0.00256  Biso   1.000  H
  H274     1.0000 0.02004  0.71696  0.63734  Biso   1.000  H
  H275     1.0000 0.16745  0.49713  0.26584  Biso   1.000  H
  H276     1.0000 0.78171  0.35494  0.46803  Biso   1.000  H
  H277     1.0000 0.00631  0.75730  0.12853  Biso   1.000  H
  H278     1.0000 0.16038  0.98110  0.76469  Biso   1.000  H
  H279     1.0000 0.78455  0.13567  0.98322  Biso   1.000  H
  H280     1.0000 0.52256  0.75762  0.35973  Biso   1.000  H
  H281     1.0000 0.65972  0.98907  0.72316  Biso   1.000  H
  H282     1.0000 0.28921  0.12414  0.47904  Biso   1.000  H
  H283     1.0000 0.49487  0.25949  0.14285  Biso   1.000  H
  H284     1.0000 0.36290  0.49934  0.76634  Biso   1.000  H
  H285     1.0000 0.74225  0.63017  0.98469  Biso   1.000  H
  H286     1.0000 0.00045  0.25984  0.34966  Biso   1.000  H
  H287     1.0000 0.86423  0.48702  0.72487  Biso   1.000  H
  H288     1.0000 0.24448  0.62351  0.49936  Biso   1.000  H
  H289     1.0000 0.10357  0.21667  0.99476  Biso   1.000  H
  H290     1.0000 0.01930  0.07447  0.22238  Biso   1.000  H
  H291     1.0000 0.24257  0.97626  0.09006  Biso   1.000  H
  H292     1.0000 0.60189  0.21812  0.48448  Biso   1.000  H
  H293     1.0000 0.51188  0.06958  0.26502  Biso   1.000  H
  H294     1.0000 0.74902  0.99180  0.39836  Biso   1.000  H
  H295     1.0000 0.42503  0.71679  0.01079  Biso   1.000  H
  H296     1.0000 0.51486  0.57773  0.22590  Biso   1.000  H
  H297     1.0000 0.28472  0.49233  0.08871  Biso   1.000  H
  H298     1.0000 0.92913  0.71753  0.50092  Biso   1.000  H
  H299     1.0000 0.02909  0.57371  0.26461  Biso   1.000  H
  H300     1.0000 0.78809  0.50305  0.39798  Biso   1.000  H
  H301     1.0000 0.92058  0.76728  0.00666  Biso   1.000  H
  H302     1.0000 0.01192  0.90492  0.75879  Biso   1.000  H
  H303     1.0000 0.78039  0.98969  0.90180  Biso   1.000  H
  H304     1.0000 0.42774  0.75420  0.49548  Biso   1.000  H
  H305     1.0000 0.49793  0.89949  0.72677  Biso   1.000  H
  H306     1.0000 0.28896  0.95975  0.59059  Biso   1.000  H
  H307     1.0000 0.59953  0.26913  0.01252  Biso   1.000  H
  H308     1.0000 0.49896  0.40341  0.76372  Biso   1.000  H
  H309     1.0000 0.74106  0.49762  0.89586  Biso   1.000  H
  H310     1.0000 0.09953  0.25676  0.49494  Biso   1.000  H
  H311     1.0000 0.01115  0.40316  0.72556  Biso   1.000  H
  H312     1.0000 0.23979  0.47597  0.58632  Biso   1.000  H
  H313     1.0000 0.24166  0.98871  0.90453  Biso   1.000  H
  H314     1.0000 0.92414  0.21918  0.99280  Biso   1.000  H
  H315     1.0000 0.02166  0.89728  0.22298  Biso   1.000  H
  H316     1.0000 0.74473  0.98528  0.58363  Biso   1.000  H
  H317     1.0000 0.42250  0.20955  0.48329  Biso   1.000  H
  H318     1.0000 0.48526  0.89612  0.28219  Biso   1.000  H
  H319     1.0000 0.27698  0.49159  0.90759  Biso   1.000  H
  H320     1.0000 0.60206  0.71779  0.00489  Biso   1.000  H
  H321     1.0000 0.52424  0.39590  0.22165  Biso   1.000  H
  H322     1.0000 0.78663  0.49409  0.57288  Biso   1.000  H
  H323     1.0000 0.10916  0.71354  0.49782  Biso   1.000  H
  H324     1.0000 0.02732  0.39784  0.26835  Biso   1.000  H
  H325     1.0000 0.78558  0.99643  0.08592  Biso   1.000  H
  H326     1.0000 0.10244  0.76236  0.99381  Biso   1.000  H
  H327     1.0000 0.01490  0.08575  0.76922  Biso   1.000  H
  H328     1.0000 0.29183  0.96944  0.41201  Biso   1.000  H
  H329     1.0000 0.61113  0.75953  0.51614  Biso   1.000  H
  H330     1.0000 0.52962  0.07738  0.71896  Biso   1.000  H
  H331     1.0000 0.74292  0.49536  0.08069  Biso   1.000  H
  H332     1.0000 0.42079  0.26118  0.99823  Biso   1.000  H
  H333     1.0000 0.48627  0.58158  0.77268  Biso   1.000  H
  H334     1.0000 0.24563  0.48357  0.40941  Biso   1.000  H
  H335     1.0000 0.91899  0.26313  0.49302  Biso   1.000  H
  H336     1.0000 0.00919  0.58054  0.72523  Biso   1.000  H
  H337     1.0000 0.01809  0.22186  0.90899  Biso   1.000  H
  H338     1.0000 0.92803  0.96423  0.21932  Biso   1.000  H
  H339     1.0000 0.24142  0.90079  0.00560  Biso   1.000  H
  H340     1.0000 0.50218  0.21499  0.58312  Biso   1.000  H
  H341     1.0000 0.42457  0.99404  0.27465  Biso   1.000  H
  H342     1.0000 0.74485  0.90595  0.49235  Biso   1.000  H
  H343     1.0000 0.52196  0.71566  0.90893  Biso   1.000  H
  H344     1.0000 0.60694  0.49136  0.22184  Biso   1.000  H
  H345     1.0000 0.28082  0.40181  0.00040  Biso   1.000  H
  H346     1.0000 0.02690  0.71651  0.58102  Biso   1.000  H
  H347     1.0000 0.11053  0.49051  0.26241  Biso   1.000  H
  H348     1.0000 0.78853  0.40618  0.47351  Biso   1.000  H
  H349     1.0000 0.00482  0.76340  0.07604  Biso   1.000  H
  H350     1.0000 0.10513  0.98366  0.76292  Biso   1.000  H
  H351     1.0000 0.78249  0.08292  0.99082  Biso   1.000  H
  H352     1.0000 0.53193  0.75921  0.41159  Biso   1.000  H
  H353     1.0000 0.61323  0.98742  0.72530  Biso   1.000  H
  H354     1.0000 0.28818  0.07032  0.49144  Biso   1.000  H
  H355     1.0000 0.49984  0.26022  0.08413  Biso   1.000  H
  H356     1.0000 0.41613  0.50204  0.76945  Biso   1.000  H
  H357     1.0000 0.74038  0.58196  0.98382  Biso   1.000  H
  H358     1.0000 0.00535  0.26028  0.40575  Biso   1.000  H
  H359     1.0000 0.91801  0.47945  0.72115  Biso   1.000  H
  H360     1.0000 0.24327  0.56979  0.50395  Biso   1.000  H
  H361     1.0000 0.01314  0.71759  0.40091  Biso   1.000  H
  H362     1.0000 0.42644  0.98674  0.73135  Biso   1.000  H
  H363     1.0000 0.73881  0.40017  0.97351  Biso   1.000  H
  H364     1.0000 0.50174  0.71709  0.08792  Biso   1.000  H
  H365     1.0000 0.92356  0.97778  0.76635  Biso   1.000  H
  H366     1.0000 0.23640  0.39512  0.46930  Biso   1.000  H
  H367     1.0000 0.51622  0.21455  0.40127  Biso   1.000  H
  H368     1.0000 0.09729  0.48816  0.72312  Biso   1.000  H
  H369     1.0000 0.78455  0.90800  0.00923  Biso   1.000  H
  H370     1.0000 0.01521  0.21852  0.09232  Biso   1.000  H
  H371     1.0000 0.59640  0.48519  0.76280  Biso   1.000  H
  H372     1.0000 0.28627  0.88761  0.50229  Biso   1.000  H
  H373     1.0000 0.01824  0.26237  0.58862  Biso   1.000  H
  H374     1.0000 0.60271  0.96619  0.27231  Biso   1.000  H
  H375     1.0000 0.28177  0.58558  0.99112  Biso   1.000  H
  H376     1.0000 0.51947  0.26573  0.90045  Biso   1.000  H
  H377     1.0000 0.10060  0.00870  0.22380  Biso   1.000  H
  H378     1.0000 0.78820  0.58030  0.49468  Biso   1.000  H
  H379     1.0000 0.51475  0.75700  0.59554  Biso   1.000  H
  H380     1.0000 0.93304  0.51317  0.26512  Biso   1.000  H
  H381     1.0000 0.24574  0.08296  0.00100  Biso   1.000  H
  H382     1.0000 0.01799  0.76583  0.89772  Biso   1.000  H
  H383     1.0000 0.42612  0.47984  0.22003  Biso   1.000  H
  H384     1.0000 0.74610  0.08465  0.48101  Biso   1.000  H
  H385     1.0000 0.24422  0.45593  0.32565  Biso   1.000  H
  H386     1.0000 0.33895  0.20933  0.45244  Biso   1.000  H
  H387     1.0000 0.48549  0.31498  0.22669  Biso   1.000  H
  H388     1.0000 0.69213  0.46992  0.21940  Biso   1.000  H
  H389     1.0000 0.83995  0.21284  0.02680  Biso   1.000  H
  H390     1.0000 0.98866  0.31305  0.26780  Biso   1.000  H
  H391     1.0000 0.29347  0.95231  0.32065  Biso   1.000  H
  H392     1.0000 0.20353  0.69993  0.45920  Biso   1.000  H
  H393     1.0000 0.97364  0.76014  0.16854  Biso   1.000  H
  H394     1.0000 0.78597  0.95622  0.16370  Biso   1.000  H
  H395     1.0000 0.74435  0.66326  0.02171  Biso   1.000  H
  H396     1.0000 0.52000  0.81478  0.27647  Biso   1.000  H
  H397     1.0000 0.78859  0.52758  0.66209  Biso   1.000  H
  H398     1.0000 0.74169  0.81769  0.54065  Biso   1.000  H
  H399     1.0000 0.51655  0.66030  0.76816  Biso   1.000  H
  H400     1.0000 0.33023  0.52869  0.77010  Biso   1.000  H
  H401     1.0000 0.24130  0.82100  0.96865  Biso   1.000  H
  H402     1.0000 0.04215  0.66447  0.72067  Biso   1.000  H
  H403     1.0000 0.73409  0.95354  0.67008  Biso   1.000  H
  H404     1.0000 0.77535  0.32339  0.49456  Biso   1.000  H
  H405     1.0000 0.98981  0.21609  0.82594  Biso   1.000  H
  H406     1.0000 0.24390  0.01137  0.81847  Biso   1.000  H
  H407     1.0000 0.28135  0.31949  0.97217  Biso   1.000  H
  H408     1.0000 0.48962  0.16083  0.72113  Biso   1.000  H
  H409     1.0000 0.28705  0.44749  0.17272  Biso   1.000  H
  H410     1.0000 0.18340  0.25323  0.45514  Biso   1.000  H
  H411     1.0000 0.47617  0.20276  0.31628  Biso   1.000  H
  H412     1.0000 0.84917  0.47844  0.26462  Biso   1.000  H
  H413     1.0000 0.68324  0.26183  0.98100  Biso   1.000  H
  H414     1.0000 0.98260  0.15524  0.22619  Biso   1.000  H
  H415     1.0000 0.18584  0.96944  0.22604  Biso   1.000  H
  H416     1.0000 0.34378  0.75722  0.47058  Biso   1.000  H
  H417     1.0000 0.98781  0.65589  0.26557  Biso   1.000  H
  H418     1.0000 0.73961  0.94948  0.31789  Biso   1.000  H
  H419     1.0000 0.83734  0.76778  0.03180  Biso   1.000  H
  H420     1.0000 0.46466  0.66418  0.22077  Biso   1.000  H
  H421     1.0000 0.73261  0.52957  0.80910  Biso   1.000  H
  H422     1.0000 0.79018  0.66622  0.53647  Biso   1.000  H
  H423     1.0000 0.53575  0.81123  0.72839  Biso   1.000  H
  H424     1.0000 0.18170  0.51350  0.71793  Biso   1.000  H
  H425     1.0000 0.34907  0.71955  0.97341  Biso   1.000  H
  H426     1.0000 0.04218  0.77336  0.81311  Biso   1.000  H
  H427     1.0000 0.79573  0.02216  0.81753  Biso   1.000  H
  H428     1.0000 0.73876  0.16628  0.49936  Biso   1.000  H
  H429     1.0000 0.04670  0.32138  0.72779  Biso   1.000  H
  H430     1.0000 0.35120  0.94917  0.73291  Biso   1.000  H
  H431     1.0000 0.19448  0.20715  0.95962  Biso   1.000  H
  H432     1.0000 0.48323  0.26866  0.81606  Biso   1.000  H
  H433     1.0000 0.28637  0.99077  0.67451  Biso   1.000  H
  H434     1.0000 0.74429  0.32512  0.01417  Biso   1.000  H
  H435     1.0000 0.04558  0.71157  0.31649  Biso   1.000  H
  H436     1.0000 0.83695  0.95341  0.76814  Biso   1.000  H
  H437     1.0000 0.24148  0.30690  0.50974  Biso   1.000  H
  H438     1.0000 0.53638  0.71217  0.17858  Biso   1.000  H
  H439     1.0000 0.23708  0.45346  0.67335  Biso   1.000  H
  H440     1.0000 0.78787  0.82312  0.97251  Biso   1.000  H
  H441     1.0000 0.55137  0.16452  0.26997  Biso   1.000  H
  H442     1.0000 0.68683  0.45656  0.76787  Biso   1.000  H
  H443     1.0000 0.28942  0.80442  0.53558  Biso   1.000  H
  H444     1.0000 0.04598  0.21274  0.17769  Biso   1.000  H
  H445     1.0000 0.69105  0.01086  0.26318  Biso   1.000  H
  H446     1.0000 0.28727  0.66818  0.02617  Biso   1.000  H
  H447     1.0000 0.98587  0.26530  0.67569  Biso   1.000  H
  H448     1.0000 0.24174  0.01890  0.17120  Biso   1.000  H
  H449     1.0000 0.84241  0.71826  0.46974  Biso   1.000  H
  H450     1.0000 0.54332  0.31597  0.76351  Biso   1.000  H
  H451     1.0000 0.79501  0.54209  0.31098  Biso   1.000  H
  H452     1.0000 0.23424  0.17011  0.04179  Biso   1.000  H
  H453     1.0000 0.46759  0.76416  0.67643  Biso   1.000  H
  H454     1.0000 0.34746  0.50879  0.21716  Biso   1.000  H
  H455     1.0000 0.68545  0.21967  0.44039  Biso   1.000  H
  H456     1.0000 0.97547  0.81779  0.75824  Biso   1.000  H
  H457     1.0000 0.69336  0.76674  0.47200  Biso   1.000  H
  H458     1.0000 0.48224  0.72099  0.83500  Biso   1.000  H
  H459     1.0000 0.82747  0.46007  0.71567  Biso   1.000  H
  H460     1.0000 0.18849  0.76450  0.02155  Biso   1.000  H
  H461     1.0000 0.98516  0.71505  0.66387  Biso   1.000  H
  H462     1.0000 0.27637  0.46544  0.82214  Biso   1.000  H
  H463     1.0000 0.84068  0.26429  0.44791  Biso   1.000  H
  H464     1.0000 0.04983  0.16733  0.76906  Biso   1.000  H
  H465     1.0000 0.69681  0.02957  0.71043  Biso   1.000  H
  H466     1.0000 0.33795  0.27088  0.03366  Biso   1.000  H
  H467     1.0000 0.54574  0.21348  0.66508  Biso   1.000  H
  H468     1.0000 0.18632  0.95054  0.77436  Biso   1.000  H
  H469     1.0000 0.28964  0.15570  0.51504  Biso   1.000  H
  H470     1.0000 0.53333  0.25844  0.16486  Biso   1.000  H
  H471     1.0000 0.20126  0.52496  0.27110  Biso   1.000  H
  H472     1.0000 0.79230  0.17294  0.95436  Biso   1.000  H
  H473     1.0000 0.03647  0.25345  0.32843  Biso   1.000  H
  H474     1.0000 0.74185  0.53143  0.16449  Biso   1.000  H
  H475     1.0000 0.23527  0.65587  0.53959  Biso   1.000  H
  H476     1.0000 0.04905  0.80688  0.20487  Biso   1.000  H
  H477     1.0000 0.33827  0.02623  0.28339  Biso   1.000  H
  H478     1.0000 0.68731  0.71593  0.96554  Biso   1.000  H
  H479     1.0000 0.47950  0.75389  0.33746  Biso   1.000  H
  H480     1.0000 0.84654  0.00071  0.22644  Biso   1.000  H
  N1       1.0000 0.68969  0.16857  0.47488  Biso   1.000  N
  N2       1.0000 0.50210  0.66373  0.17444  Biso   1.000  N
  N3       1.0000 0.18597  0.47980  0.67214  Biso   1.000  N
  N4       1.0000 0.19160  0.16581  0.00037  Biso   1.000  N
  N5       1.0000 0.01836  0.66061  0.31656  Biso   1.000  N
  N6       1.0000 0.68739  0.49427  0.81124  Biso   1.000  N
  N7       1.0000 0.83923  0.66852  0.49919  Biso   1.000  N
  N8       1.0000 0.01788  0.16169  0.17651  Biso   1.000  N
  N9       1.0000 0.34268  0.96963  0.67842  Biso   1.000  N
  N10      1.0000 0.33791  0.66862  0.00098  Biso   1.000  N
  N11      1.0000 0.51389  0.16020  0.31517  Biso   1.000  N
  N12      1.0000 0.83788  0.98711  0.81689  Biso   1.000  N
  N13      1.0000 0.34218  0.80398  0.50170  Biso   1.000  N
  N14      1.0000 0.51331  0.31632  0.81419  Biso   1.000  N
  N15      1.0000 0.84336  0.50652  0.31391  Biso   1.000  N
  N16      1.0000 0.83618  0.81907  0.99888  Biso   1.000  N
  N17      1.0000 0.01588  0.31572  0.67574  Biso   1.000  N
  N18      1.0000 0.33809  0.47630  0.16877  Biso   1.000  N
  N19      1.0000 0.18816  0.30477  0.48488  Biso   1.000  N
  N20      1.0000 0.00732  0.81644  0.81087  Biso   1.000  N
  N21      1.0000 0.69191  0.98354  0.31510  Biso   1.000  N
  N22      1.0000 0.68996  0.31674  0.99645  Biso   1.000  N
  N23      1.0000 0.50407  0.81186  0.67950  Biso   1.000  N
  N24      1.0000 0.19115  0.99596  0.17564  Biso   1.000  N
  N25      1.0000 0.83258  0.49140  0.66587  Biso   1.000  N
  N26      1.0000 0.69534  0.81737  0.50455  Biso   1.000  N
  N27      1.0000 0.49885  0.66632  0.82448  Biso   1.000  N
  N28      1.0000 0.32927  0.49519  0.81907  Biso   1.000  N
  N29      1.0000 0.19022  0.81615  0.99626  Biso   1.000  N
  N30      1.0000 0.01510  0.66486  0.66733  Biso   1.000  N
  N31      1.0000 0.69122  0.98946  0.66813  Biso   1.000  N
  N32      1.0000 0.83346  0.31809  0.47700  Biso   1.000  N
  N33      1.0000 0.02331  0.17025  0.82246  Biso   1.000  N
  N34      1.0000 0.19075  0.98505  0.81805  Biso   1.000  N
  N35      1.0000 0.33497  0.31543  0.99704  Biso   1.000  N
  N36      1.0000 0.51259  0.16340  0.66984  Biso   1.000  N
  N37      1.0000 0.19621  0.49114  0.31943  Biso   1.000  N
  N38      1.0000 0.33867  0.15764  0.48523  Biso   1.000  N
  N39      1.0000 0.50585  0.31101  0.17285  Biso   1.000  N
  N40      1.0000 0.69267  0.50047  0.16828  Biso   1.000  N
  N41      1.0000 0.83798  0.16858  0.99182  Biso   1.000  N
  N42      1.0000 0.01356  0.31121  0.31871  Biso   1.000  N
  N43      1.0000 0.33775  0.98998  0.32531  Biso   1.000  N
  N44      1.0000 0.19315  0.65734  0.49830  Biso   1.000  N
  N45      1.0000 0.01027  0.81004  0.16628  Biso   1.000  N
  N46      1.0000 0.83881  0.97951  0.17065  Biso   1.000  N
  N47      1.0000 0.69165  0.66797  0.99229  Biso   1.000  N
  N48      1.0000 0.50331  0.80894  0.33011  Biso   1.000  N
  O1       1.0000 0.35438  0.53386  0.98857  Biso   1.000  O
  O2       1.0000 0.01011  0.33172  0.53896  Biso   1.000  O
  O3       1.0000 0.55917  0.98583  0.34383  Biso   1.000  O
  O4       1.0000 0.85965  0.53485  0.48904  Biso   1.000  O
  O5       1.0000 0.51576  0.33855  0.95103  Biso   1.000  O
  O6       1.0000 0.05434  0.99407  0.15016  Biso   1.000  O
  O7       1.0000 0.17266  0.03192  0.99652  Biso   1.000  O
  O8       1.0000 0.52065  0.82997  0.54611  Biso   1.000  O
  O9       1.0000 0.97743  0.49416  0.33638  Biso   1.000  O
  O10      1.0000 0.67453  0.03617  0.49407  Biso   1.000  O
  O11      1.0000 0.01804  0.83376  0.94855  Biso   1.000  O
  O12      1.0000 0.47530  0.48434  0.14675  Biso   1.000  O
  O13      1.0000 0.66970  0.45337  0.98925  Biso   1.000  O
  O14      1.0000 0.01456  0.64896  0.45128  Biso   1.000  O
  O15      1.0000 0.47446  0.99077  0.65470  Biso   1.000  O
  O16      1.0000 0.16640  0.43831  0.49151  Biso   1.000  O
  O17      1.0000 0.51095  0.64426  0.03995  Biso   1.000  O
  O18      1.0000 0.97185  0.99763  0.83647  Biso   1.000  O
  O19      1.0000 0.85643  0.95225  0.99903  Biso   1.000  O
  O20      1.0000 0.51309  0.14286  0.44970  Biso   1.000  O
  O21      1.0000 0.04997  0.48639  0.65058  Biso   1.000  O
  O22      1.0000 0.36078  0.93742  0.50167  Biso   1.000  O
  O23      1.0000 0.01565  0.14555  0.04118  Biso   1.000  O
  O24      1.0000 0.55148  0.49078  0.83654  Biso   1.000  O
  O25      1.0000 0.97135  0.98225  0.14500  Biso   1.000  O
  O26      1.0000 0.17115  0.95022  0.99167  Biso   1.000  O
  O27      1.0000 0.01296  0.14693  0.95831  Biso   1.000  O
  O28      1.0000 0.47480  0.98924  0.34060  Biso   1.000  O
  O29      1.0000 0.67136  0.95293  0.49092  Biso   1.000  O
  O30      1.0000 0.51713  0.14473  0.53544  Biso   1.000  O
  O31      1.0000 0.55912  0.48549  0.14758  Biso   1.000  O
  O32      1.0000 0.35186  0.44845  0.99608  Biso   1.000  O
  O33      1.0000 0.52157  0.64469  0.95760  Biso   1.000  O
  O34      1.0000 0.06136  0.48112  0.33621  Biso   1.000  O
  O35      1.0000 0.85624  0.45173  0.48583  Biso   1.000  O
  O36      1.0000 0.01705  0.64582  0.53375  Biso   1.000  O
  O37      1.0000 0.05708  0.98618  0.83588  Biso   1.000  O
  O38      1.0000 0.85725  0.03353  0.99309  Biso   1.000  O
  O39      1.0000 0.01031  0.83421  0.03263  Biso   1.000  O
  O40      1.0000 0.55556  0.98203  0.65512  Biso   1.000  O
  O41      1.0000 0.36295  0.02333  0.50678  Biso   1.000  O
  O42      1.0000 0.52041  0.82950  0.46106  Biso   1.000  O
  O43      1.0000 0.46538  0.49358  0.84119  Biso   1.000  O
  O44      1.0000 0.66726  0.53465  0.99245  Biso   1.000  O
  O45      1.0000 0.51212  0.33309  0.03866  Biso   1.000  O
  O46      1.0000 0.96662  0.49058  0.64931  Biso   1.000  O
  O47      1.0000 0.17055  0.52288  0.50271  Biso   1.000  O
  O48      1.0000 0.01053  0.32842  0.45654  Biso   1.000  O
  O49      1.0000 0.01723  0.94600  0.14767  Biso   1.000  O
  O50      1.0000 0.16969  0.99403  0.95384  Biso   1.000  O
  O51      1.0000 0.97406  0.14880  0.99866  Biso   1.000  O
  O52      1.0000 0.51353  0.94519  0.34570  Biso   1.000  O
  O53      1.0000 0.67096  0.99252  0.53312  Biso   1.000  O
  O54      1.0000 0.47404  0.14350  0.49572  Biso   1.000  O
  O55      1.0000 0.52137  0.44497  0.15228  Biso   1.000  O
  O56      1.0000 0.35178  0.48958  0.95071  Biso   1.000  O
  O57      1.0000 0.55507  0.64715  0.00078  Biso   1.000  O
  O58      1.0000 0.01588  0.44490  0.33856  Biso   1.000  O
  O59      1.0000 0.85671  0.49347  0.53042  Biso   1.000  O
  O60      1.0000 0.05762  0.64170  0.49438  Biso   1.000  O
  O61      1.0000 0.01911  0.03475  0.83637  Biso   1.000  O
  O62      1.0000 0.85725  0.99530  0.03344  Biso   1.000  O
  O63      1.0000 0.05455  0.83391  0.99227  Biso   1.000  O
  O64      1.0000 0.52041  0.02762  0.65066  Biso   1.000  O
  O65      1.0000 0.36121  0.98303  0.46114  Biso   1.000  O
  O66      1.0000 0.55999  0.82960  0.50164  Biso   1.000  O
  O67      1.0000 0.50621  0.53344  0.84310  Biso   1.000  O
  O68      1.0000 0.67014  0.48967  0.03620  Biso   1.000  O
  O69      1.0000 0.46963  0.33444  0.99246  Biso   1.000  O
  O70      1.0000 0.01038  0.52914  0.65236  Biso   1.000  O
  O71      1.0000 0.16888  0.48874  0.45311  Biso   1.000  O
  O72      1.0000 0.96856  0.33267  0.50006  Biso   1.000  O
  O73      1.0000 0.00458  0.44833  0.65297  Biso   1.000  O
  O74      1.0000 0.67725  0.99891  0.44673  Biso   1.000  O
  O75      1.0000 0.47229  0.64520  0.99367  Biso   1.000  O
  O76      1.0000 0.50921  0.45077  0.83418  Biso   1.000  O
  O77      1.0000 0.16981  0.98765  0.04015  Biso   1.000  O
  O78      1.0000 0.97566  0.64489  0.49668  Biso   1.000  O
  O79      1.0000 0.51029  0.94641  0.65561  Biso   1.000  O
  O80      1.0000 0.85661  0.48667  0.44665  Biso   1.000  O
  O81      1.0000 0.05922  0.14358  0.00181  Biso   1.000  O
  O82      1.0000 0.01380  0.95126  0.83161  Biso   1.000  O
  O83      1.0000 0.35527  0.49412  0.03617  Biso   1.000  O
  O84      1.0000 0.55824  0.14665  0.49191  Biso   1.000  O
  O85      1.0000 0.02213  0.52774  0.33945  Biso   1.000  O
  O86      1.0000 0.35683  0.98306  0.54469  Biso   1.000  O
  O87      1.0000 0.55307  0.34082  0.99447  Biso   1.000  O
  O88      1.0000 0.51205  0.52827  0.15240  Biso   1.000  O
  O89      1.0000 0.85264  0.99133  0.95141  Biso   1.000  O
  O90      1.0000 0.05488  0.32927  0.50011  Biso   1.000  O
  O91      1.0000 0.51899  0.02855  0.33896  Biso   1.000  O
  O92      1.0000 0.16708  0.47047  0.53746  Biso   1.000  O
  O93      1.0000 0.97170  0.83439  0.98886  Biso   1.000  O
  O94      1.0000 0.01096  0.02936  0.14944  Biso   1.000  O
  O95      1.0000 0.67006  0.49576  0.94915  Biso   1.000  O
  O96      1.0000 0.47617  0.82810  0.50382  Biso   1.000  O
  O97      1.0000 0.47095  0.19207  0.49357  Biso   1.000  O
  O98      1.0000 0.51166  0.44359  0.19947  Biso   1.000  O
  O99      1.0000 0.21713  0.49095  0.45650  Biso   1.000  O
  O100     1.0000 0.97046  0.19692  0.00018  Biso   1.000  O
  O101     1.0000 0.01784  0.44454  0.28858  Biso   1.000  O
  O102     1.0000 0.71920  0.48905  0.03259  Biso   1.000  O
  O103     1.0000 0.05755  0.69081  0.49216  Biso   1.000  O
  O104     1.0000 0.01661  0.94763  0.19619  Biso   1.000  O
  O105     1.0000 0.31334  0.98029  0.46094  Biso   1.000  O
  O106     1.0000 0.55609  0.69546  0.00155  Biso   1.000  O
  O107     1.0000 0.51014  0.94047  0.29829  Biso   1.000  O
  O108     1.0000 0.80790  0.99931  0.03593  Biso   1.000  O
  O109     1.0000 0.56037  0.78229  0.50682  Biso   1.000  O
  O110     1.0000 0.50892  0.53579  0.79340  Biso   1.000  O
  O111     1.0000 0.80844  0.49668  0.52976  Biso   1.000  O
  O112     1.0000 0.05430  0.78551  0.99279  Biso   1.000  O
  O113     1.0000 0.00833  0.53190  0.69979  Biso   1.000  O
  O114     1.0000 0.30311  0.49424  0.95435  Biso   1.000  O
  O115     1.0000 0.96885  0.28443  0.49913  Biso   1.000  O
  O116     1.0000 0.01482  0.03687  0.78945  Biso   1.000  O
  O117     1.0000 0.72006  0.99269  0.53445  Biso   1.000  O
  O118     1.0000 0.47058  0.28471  0.99227  Biso   1.000  O
  O119     1.0000 0.52045  0.02689  0.69972  Biso   1.000  O
  O120     1.0000 0.21882  0.99088  0.95322  Biso   1.000  O
  O121     1.0000 0.04863  0.48868  0.69929  Biso   1.000  O
  O122     1.0000 0.72341  0.03513  0.48970  Biso   1.000  O
  O123     1.0000 0.50780  0.69145  0.04005  Biso   1.000  O
  O124     1.0000 0.54716  0.49121  0.78792  Biso   1.000  O
  O125     1.0000 0.22088  0.03153  0.99729  Biso   1.000  O
  O126     1.0000 0.02052  0.69733  0.44938  Biso   1.000  O
  O127     1.0000 0.47441  0.98895  0.70416  Biso   1.000  O
  O128     1.0000 0.81067  0.53731  0.48947  Biso   1.000  O
  O129     1.0000 0.01059  0.19471  0.04356  Biso   1.000  O
  O130     1.0000 0.97007  0.99286  0.78724  Biso   1.000  O
  O131     1.0000 0.30701  0.53389  0.99693  Biso   1.000  O
  O132     1.0000 0.51093  0.19113  0.44870  Biso   1.000  O
  O133     1.0000 0.98060  0.49623  0.28783  Biso   1.000  O
  O134     1.0000 0.31175  0.93816  0.50441  Biso   1.000  O
  O135     1.0000 0.52029  0.29127  0.95147  Biso   1.000  O
  O136     1.0000 0.47349  0.48479  0.19633  Biso   1.000  O
  O137     1.0000 0.80814  0.95383  0.00586  Biso   1.000  O
  O138     1.0000 0.00973  0.28425  0.54067  Biso   1.000  O
  O139     1.0000 0.55646  0.97828  0.29495  Biso   1.000  O
  O140     1.0000 0.21545  0.43813  0.48727  Biso   1.000  O
  O141     1.0000 0.01477  0.78524  0.94499  Biso   1.000  O
  O142     1.0000 0.05622  0.99210  0.19924  Biso   1.000  O
  O143     1.0000 0.71795  0.45190  0.98654  Biso   1.000  O
  O144     1.0000 0.52211  0.78088  0.54524  Biso   1.000  O
  O145     1.0000 0.55647  0.48985  0.19559  Biso   1.000  O
  O146     1.0000 0.21998  0.52174  0.50805  Biso   1.000  O
  O147     1.0000 0.51229  0.19280  0.53404  Biso   1.000  O
  O148     1.0000 0.06231  0.48592  0.28692  Biso   1.000  O
  O149     1.0000 0.71589  0.53257  0.99492  Biso   1.000  O
  O150     1.0000 0.01689  0.19455  0.95777  Biso   1.000  O
  O151     1.0000 0.97335  0.98525  0.19407  Biso   1.000  O
  O152     1.0000 0.31426  0.02265  0.50032  Biso   1.000  O
  O153     1.0000 0.01393  0.69380  0.53519  Biso   1.000  O
  O154     1.0000 0.47200  0.98391  0.29319  Biso   1.000  O
  O155     1.0000 0.80931  0.03415  0.98787  Biso   1.000  O
  O156     1.0000 0.51694  0.69257  0.95781  Biso   1.000  O
  O157     1.0000 0.46450  0.49498  0.79253  Biso   1.000  O
  O158     1.0000 0.80813  0.45220  0.48250  Biso   1.000  O
  O159     1.0000 0.52537  0.78187  0.46187  Biso   1.000  O
  O160     1.0000 0.96502  0.49000  0.69768  Biso   1.000  O
  O161     1.0000 0.30251  0.45066  0.99637  Biso   1.000  O
  O162     1.0000 0.00846  0.78528  0.03230  Biso   1.000  O
  O163     1.0000 0.05364  0.99289  0.78692  Biso   1.000  O
  O164     1.0000 0.71895  0.95213  0.49036  Biso   1.000  O
  O165     1.0000 0.01274  0.28134  0.45662  Biso   1.000  O
  O166     1.0000 0.55904  0.98265  0.70408  Biso   1.000  O
  O167     1.0000 0.22010  0.94840  0.99347  Biso   1.000  O
  O168     1.0000 0.50972  0.28558  0.03588  Biso   1.000  O
  O169     1.0000 0.00972  0.02869  0.19841  Biso   1.000  O
  O170     1.0000 0.21824  0.98833  0.03662  Biso   1.000  O
  O171     1.0000 0.05668  0.19209  0.00552  Biso   1.000  O
  O172     1.0000 0.51661  0.02302  0.29145  Biso   1.000  O
  O173     1.0000 0.72554  0.99297  0.45062  Biso   1.000  O
  O174     1.0000 0.55308  0.19490  0.49154  Biso   1.000  O
  O175     1.0000 0.51326  0.52826  0.20141  Biso   1.000  O
  O176     1.0000 0.30576  0.49382  0.03802  Biso   1.000  O
  O177     1.0000 0.47271  0.69413  0.99519  Biso   1.000  O
  O178     1.0000 0.02565  0.52904  0.29102  Biso   1.000  O
  O179     1.0000 0.80850  0.49475  0.44711  Biso   1.000  O
  O180     1.0000 0.97566  0.69224  0.49051  Biso   1.000  O
  O181     1.0000 0.00933  0.95297  0.78356  Biso   1.000  O
  O182     1.0000 0.80514  0.98669  0.95354  Biso   1.000  O
  O183     1.0000 0.97096  0.78645  0.98915  Biso   1.000  O
  O184     1.0000 0.51303  0.94612  0.70391  Biso   1.000  O
  O185     1.0000 0.30873  0.98019  0.54385  Biso   1.000  O
  O186     1.0000 0.47922  0.77908  0.49613  Biso   1.000  O
  O187     1.0000 0.50583  0.45159  0.78555  Biso   1.000  O
  O188     1.0000 0.71755  0.50063  0.94960  Biso   1.000  O
  O189     1.0000 0.55528  0.29291  0.00060  Biso   1.000  O
  O190     1.0000 0.00937  0.44952  0.70097  Biso   1.000  O
  O191     1.0000 0.21685  0.47397  0.53785  Biso   1.000  O
  O192     1.0000 0.05249  0.28197  0.50195  Biso   1.000  O
