data_image0
_cell_length_a       47.4836
_cell_length_b       46.6664
_cell_length_c       46.4796
_cell_angle_alpha    90
_cell_angle_beta     90
_cell_angle_gamma    90

_symmetry_space_group_name_H-M    "P 1"
_symmetry_int_tables_number       1

loop_
  _symmetry_equiv_pos_as_xyz
  'x, y, z'

loop_
  _atom_site_label
  _atom_site_occupancy
  _atom_site_fract_x
  _atom_site_fract_y
  _atom_site_fract_z
  _atom_site_thermal_displace_type
  _atom_site_B_iso_or_equiv
  _atom_site_type_symbol
  C1       1.0000 0.54569  0.98317  0.32662  Biso   1.000  C
  C2       1.0000 0.31076  0.53855  0.01326  Biso   1.000  C
  C3       1.0000 0.99573  0.29798  0.55993  Biso   1.000  C
  C4       1.0000 0.04523  0.99650  0.19595  Biso   1.000  C
  C5       1.0000 0.80650  0.53592  0.51784  Biso   1.000  C
  C6       1.0000 0.48599  0.31075  0.95636  Biso   1.000  C
  C7       1.0000 0.93053  0.50034  0.33050  Biso   1.000  C
  C8       1.0000 0.17092  0.04609  0.00575  Biso   1.000  C
  C9       1.0000 0.46924  0.80114  0.57149  Biso   1.000  C
  C10      1.0000 0.43524  0.49288  0.19842  Biso   1.000  C
  C11      1.0000 0.67228  0.03090  0.51399  Biso   1.000  C
  C12      1.0000 0.99158  0.79648  0.96828  Biso   1.000  C
  C13      1.0000 0.43482  0.98304  0.69502  Biso   1.000  C
  C14      1.0000 0.67076  0.43644  0.01730  Biso   1.000  C
  C15      1.0000 0.98098  0.66432  0.46692  Biso   1.000  C
  C16      1.0000 0.93194  0.97085  0.83200  Biso   1.000  C
  C17      1.0000 0.17727  0.43543  0.51043  Biso   1.000  C
  C18      1.0000 0.49434  0.66356  0.07420  Biso   1.000  C
  C19      1.0000 0.04838  0.46708  0.69420  Biso   1.000  C
  C20      1.0000 0.80968  0.93161  0.02597  Biso   1.000  C
  C21      1.0000 0.50370  0.16638  0.45537  Biso   1.000  C
  C22      1.0000 0.54832  0.49557  0.82902  Biso   1.000  C
  C23      1.0000 0.30282  0.93652  0.51961  Biso   1.000  C
  C24      1.0000 0.97585  0.16889  0.06172  Biso   1.000  C
  C25      1.0000 0.31220  0.04548  0.50602  Biso   1.000  C
  C26      1.0000 0.49466  0.30751  0.06606  Biso   1.000  C
  C27      1.0000 0.04042  0.49301  0.33118  Biso   1.000  C
  C28      1.0000 0.80533  0.03893  0.01288  Biso   1.000  C
  C29      1.0000 0.99217  0.30921  0.45119  Biso   1.000  C
  C30      1.0000 0.54161  0.47578  0.19968  Biso   1.000  C
  C31      1.0000 0.16743  0.54615  0.50864  Biso   1.000  C
  C32      1.0000 0.99220  0.81413  0.07416  Biso   1.000  C
  C33      1.0000 0.43544  0.98714  0.32713  Biso   1.000  C
  C34      1.0000 0.66773  0.54275  0.01502  Biso   1.000  C
  C35      1.0000 0.48502  0.81089  0.46179  Biso   1.000  C
  C36      1.0000 0.93834  0.00484  0.19747  Biso   1.000  C
  C37      1.0000 0.67044  0.92150  0.51651  Biso   1.000  C
  C38      1.0000 0.47589  0.66405  0.96711  Biso   1.000  C
  C39      1.0000 0.94028  0.47657  0.69534  Biso   1.000  C
  C40      1.0000 0.16790  0.93618  0.00490  Biso   1.000  C
  C41      1.0000 0.97635  0.65632  0.57258  Biso   1.000  C
  C42      1.0000 0.44103  0.48202  0.83053  Biso   1.000  C
  C43      1.0000 0.81344  0.42630  0.51397  Biso   1.000  C
  C44      1.0000 0.99423  0.15912  0.95359  Biso   1.000  C
  C45      1.0000 0.54360  0.98518  0.69739  Biso   1.000  C
  C46      1.0000 0.31401  0.43336  0.00043  Biso   1.000  C
  C47      1.0000 0.49716  0.16982  0.56561  Biso   1.000  C
  C48      1.0000 0.04042  0.96576  0.82949  Biso   1.000  C
  C49      1.0000 0.99265  0.02343  0.82750  Biso   1.000  C
  C50      1.0000 0.80949  0.99689  0.07311  Biso   1.000  C
  C51      1.0000 0.04368  0.80481  0.02012  Biso   1.000  C
  C52      1.0000 0.48832  0.03866  0.68942  Biso   1.000  C
  C53      1.0000 0.30852  0.98380  0.45345  Biso   1.000  C
  C54      1.0000 0.53370  0.80803  0.52388  Biso   1.000  C
  C55      1.0000 0.48982  0.54350  0.83179  Biso   1.000  C
  C56      1.0000 0.66781  0.48399  0.07103  Biso   1.000  C
  C57      1.0000 0.43813  0.30394  0.01209  Biso   1.000  C
  C58      1.0000 0.99632  0.52476  0.69666  Biso   1.000  C
  C59      1.0000 0.17219  0.49324  0.45548  Biso   1.000  C
  C60      1.0000 0.94323  0.30062  0.51195  Biso   1.000  C
  C61      1.0000 0.98726  0.94439  0.20049  Biso   1.000  C
  C62      1.0000 0.16800  0.99262  0.95383  Biso   1.000  C
  C63      1.0000 0.93129  0.16482  0.00094  Biso   1.000  C
  C64      1.0000 0.48579  0.93423  0.33254  Biso   1.000  C
  C65      1.0000 0.67154  0.98244  0.56930  Biso   1.000  C
  C66      1.0000 0.44551  0.16691  0.50521  Biso   1.000  C
  C67      1.0000 0.48197  0.43313  0.19656  Biso   1.000  C
  C68      1.0000 0.31371  0.49185  0.95469  Biso   1.000  C
  C69      1.0000 0.53663  0.67084  0.00827  Biso   1.000  C
  C70      1.0000 0.98086  0.44243  0.33103  Biso   1.000  C
  C71      1.0000 0.81066  0.48444  0.56867  Biso   1.000  C
  C72      1.0000 0.03184  0.66171  0.52266  Biso   1.000  C
  C73      1.0000 0.98734  0.54919  0.32975  Biso   1.000  C
  C74      1.0000 0.31420  0.99472  0.56466  Biso   1.000  C
  C75      1.0000 0.54590  0.30896  0.00806  Biso   1.000  C
  C76      1.0000 0.49745  0.53779  0.20320  Biso   1.000  C
  C77      1.0000 0.80826  0.97792  0.96394  Biso   1.000  C
  C78      1.0000 0.05286  0.30648  0.50466  Biso   1.000  C
  C79      1.0000 0.49520  0.04272  0.32637  Biso   1.000  C
  C80      1.0000 0.17116  0.49316  0.56338  Biso   1.000  C
  C81      1.0000 0.93420  0.80287  0.02064  Biso   1.000  C
  C82      1.0000 0.99516  0.05289  0.19340  Biso   1.000  C
  C83      1.0000 0.66825  0.48795  0.95976  Biso   1.000  C
  C84      1.0000 0.42483  0.81358  0.51698  Biso   1.000  C
  C85      1.0000 0.98958  0.41390  0.69494  Biso   1.000  C
  C86      1.0000 0.66728  0.97584  0.46053  Biso   1.000  C
  C87      1.0000 0.42884  0.66527  0.03442  Biso   1.000  C
  C88      1.0000 0.49846  0.43511  0.83119  Biso   1.000  C
  C89      1.0000 0.16614  0.99134  0.06249  Biso   1.000  C
  C90      1.0000 0.92513  0.66162  0.52131  Biso   1.000  C
  C91      1.0000 0.49188  0.92918  0.69564  Biso   1.000  C
  C92      1.0000 0.80946  0.47342  0.45991  Biso   1.000  C
  C93      1.0000 0.04008  0.16448  0.01538  Biso   1.000  C
  C94      1.0000 0.98007  0.91225  0.83166  Biso   1.000  C
  C95      1.0000 0.31543  0.48445  0.06258  Biso   1.000  C
  C96      1.0000 0.55378  0.16790  0.51102  Biso   1.000  C
  C97      1.0000 0.67556  0.06374  0.51080  Biso   1.000  C
  C98      1.0000 0.49223  0.66380  0.10583  Biso   1.000  C
  C99      1.0000 0.07973  0.46715  0.69258  Biso   1.000  C
  C100     1.0000 0.17238  0.07719  0.00160  Biso   1.000  C
  C101     1.0000 0.98565  0.66842  0.43499  Biso   1.000  C
  C102     1.0000 0.58048  0.49567  0.82822  Biso   1.000  C
  C103     1.0000 0.80269  0.56686  0.52453  Biso   1.000  C
  C104     1.0000 0.97494  0.17275  0.09368  Biso   1.000  C
  C105     1.0000 0.40275  0.98573  0.69502  Biso   1.000  C
  C106     1.0000 0.30842  0.56981  0.01433  Biso   1.000  C
  C107     1.0000 0.50882  0.16597  0.42375  Biso   1.000  C
  C108     1.0000 0.90081  0.96608  0.83574  Biso   1.000  C
  C109     1.0000 0.29853  0.90463  0.51889  Biso   1.000  C
  C110     1.0000 0.48466  0.31100  0.92479  Biso   1.000  C
  C111     1.0000 0.89774  0.50043  0.32944  Biso   1.000  C
  C112     1.0000 0.80843  0.90076  0.02189  Biso   1.000  C
  C113     1.0000 0.99166  0.29544  0.59283  Biso   1.000  C
  C114     1.0000 0.40330  0.49147  0.19617  Biso   1.000  C
  C115     1.0000 0.17785  0.40323  0.51076  Biso   1.000  C
  C116     1.0000 0.98744  0.79428  0.93583  Biso   1.000  C
  C117     1.0000 0.57818  0.98129  0.32759  Biso   1.000  C
  C118     1.0000 0.67104  0.40550  0.01583  Biso   1.000  C
  C119     1.0000 0.46832  0.79998  0.60306  Biso   1.000  C
  C120     1.0000 0.07623  0.00118  0.19545  Biso   1.000  C
  C121     1.0000 0.81143  0.00209  0.10500  Biso   1.000  C
  C122     1.0000 0.07698  0.80634  0.01816  Biso   1.000  C
  C123     1.0000 0.99763  0.05598  0.82821  Biso   1.000  C
  C124     1.0000 0.30843  0.98103  0.42205  Biso   1.000  C
  C125     1.0000 0.56702  0.80777  0.52740  Biso   1.000  C
  C126     1.0000 0.49062  0.07195  0.69050  Biso   1.000  C
  C127     1.0000 0.66556  0.47580  0.10236  Biso   1.000  C
  C128     1.0000 0.40591  0.30397  0.01217  Biso   1.000  C
  C129     1.0000 0.48614  0.57543  0.83227  Biso   1.000  C
  C130     1.0000 0.17138  0.49827  0.42399  Biso   1.000  C
  C131     1.0000 0.91050  0.29935  0.50959  Biso   1.000  C
  C132     1.0000 0.99996  0.55641  0.69520  Biso   1.000  C
  C133     1.0000 0.16865  0.99827  0.92207  Biso   1.000  C
  C134     1.0000 0.89926  0.16562  0.00062  Biso   1.000  C
  C135     1.0000 0.98576  0.91272  0.20186  Biso   1.000  C
  C136     1.0000 0.67354  0.98576  0.60064  Biso   1.000  C
  C137     1.0000 0.41427  0.16748  0.50029  Biso   1.000  C
  C138     1.0000 0.47788  0.90307  0.33464  Biso   1.000  C
  C139     1.0000 0.31507  0.49403  0.92189  Biso   1.000  C
  C140     1.0000 0.56790  0.67049  0.00318  Biso   1.000  C
  C141     1.0000 0.48381  0.40055  0.19643  Biso   1.000  C
  C142     1.0000 0.81096  0.48572  0.60246  Biso   1.000  C
  C143     1.0000 0.06396  0.66366  0.52933  Biso   1.000  C
  C144     1.0000 0.97866  0.41005  0.33224  Biso   1.000  C
  C145     1.0000 0.31460  0.48727  0.09489  Biso   1.000  C
  C146     1.0000 0.08591  0.30611  0.50158  Biso   1.000  C
  C147     1.0000 0.50167  0.07402  0.32597  Biso   1.000  C
  C148     1.0000 0.80939  0.47218  0.42790  Biso   1.000  C
  C149     1.0000 0.57789  0.31012  0.01001  Biso   1.000  C
  C150     1.0000 0.99068  0.08510  0.19150  Biso   1.000  C
  C151     1.0000 0.16590  0.99673  0.09368  Biso   1.000  C
  C152     1.0000 0.39187  0.81353  0.51818  Biso   1.000  C
  C153     1.0000 0.98578  0.58156  0.33217  Biso   1.000  C
  C154     1.0000 0.66693  0.97769  0.42938  Biso   1.000  C
  C155     1.0000 0.90260  0.80219  0.01442  Biso   1.000  C
  C156     1.0000 0.49923  0.56976  0.20390  Biso   1.000  C
  C157     1.0000 0.66975  0.49156  0.92761  Biso   1.000  C
  C158     1.0000 0.89351  0.66205  0.52877  Biso   1.000  C
  C159     1.0000 0.49111  0.89635  0.69669  Biso   1.000  C
  C160     1.0000 0.17055  0.49691  0.59732  Biso   1.000  C
  C161     1.0000 0.39717  0.66534  0.03473  Biso   1.000  C
  C162     1.0000 0.97959  0.88085  0.83375  Biso   1.000  C
  C163     1.0000 0.80780  0.97645  0.93185  Biso   1.000  C
  C164     1.0000 0.58618  0.16520  0.51089  Biso   1.000  C
  C165     1.0000 0.99342  0.38190  0.69542  Biso   1.000  C
  C166     1.0000 0.31411  0.99942  0.59630  Biso   1.000  C
  C167     1.0000 0.07180  0.16770  0.01321  Biso   1.000  C
  C168     1.0000 0.50461  0.40349  0.83074  Biso   1.000  C
  C169     1.0000 0.99343  0.81654  0.10658  Biso   1.000  C
  C170     1.0000 0.07351  0.96925  0.82763  Biso   1.000  C
  C171     1.0000 0.80466  0.07182  0.01293  Biso   1.000  C
  C172     1.0000 0.48567  0.81092  0.42929  Biso   1.000  C
  C173     1.0000 0.57652  0.98223  0.69665  Biso   1.000  C
  C174     1.0000 0.31443  0.07838  0.50881  Biso   1.000  C
  C175     1.0000 0.49786  0.30696  0.09770  Biso   1.000  C
  C176     1.0000 0.40937  0.48464  0.82871  Biso   1.000  C
  C177     1.0000 0.66749  0.57485  0.00909  Biso   1.000  C
  C178     1.0000 0.98529  0.31357  0.42045  Biso   1.000  C
  C179     1.0000 0.90854  0.48154  0.69417  Biso   1.000  C
  C180     1.0000 0.16622  0.57813  0.50882  Biso   1.000  C
  C181     1.0000 0.99760  0.15599  0.92138  Biso   1.000  C
  C182     1.0000 0.90732  0.00486  0.19890  Biso   1.000  C
  C183     1.0000 0.16666  0.90381  0.00467  Biso   1.000  C
  C184     1.0000 0.49598  0.16679  0.59782  Biso   1.000  C
  C185     1.0000 0.40340  0.98699  0.32421  Biso   1.000  C
  C186     1.0000 0.66667  0.88982  0.51049  Biso   1.000  C
  C187     1.0000 0.47811  0.66605  0.93563  Biso   1.000  C
  C188     1.0000 0.57358  0.47281  0.19969  Biso   1.000  C
  C189     1.0000 0.31261  0.40057  0.00253  Biso   1.000  C
  C190     1.0000 0.97556  0.65371  0.60447  Biso   1.000  C
  C191     1.0000 0.07288  0.49917  0.33111  Biso   1.000  C
  C192     1.0000 0.81433  0.39453  0.51302  Biso   1.000  C
  C193     1.0000 0.83339  0.98080  0.91470  Biso   1.000  C
  C194     1.0000 0.88583  0.82849  0.01752  Biso   1.000  C
  C195     1.0000 0.98019  0.86716  0.86195  Biso   1.000  C
  C196     1.0000 0.34041  0.99455  0.61237  Biso   1.000  C
  C197     1.0000 0.37545  0.83940  0.51535  Biso   1.000  C
  C198     1.0000 0.48672  0.88028  0.66945  Biso   1.000  C
  C199     1.0000 0.64337  0.49280  0.90974  Biso   1.000  C
  C200     1.0000 0.59200  0.33720  0.01209  Biso   1.000  C
  C201     1.0000 0.49979  0.38715  0.85696  Biso   1.000  C
  C202     1.0000 0.14451  0.48863  0.61295  Biso   1.000  C
  C203     1.0000 0.10139  0.33294  0.50383  Biso   1.000  C
  C204     1.0000 0.99377  0.36788  0.66676  Biso   1.000  C
  C205     1.0000 0.13924  0.99594  0.11135  Biso   1.000  C
  C206     1.0000 0.08929  0.14234  0.01163  Biso   1.000  C
  C207     1.0000 0.98902  0.09828  0.16319  Biso   1.000  C
  C208     1.0000 0.64172  0.97286  0.41101  Biso   1.000  C
  C209     1.0000 0.59959  0.13657  0.51025  Biso   1.000  C
  C210     1.0000 0.50726  0.09043  0.35164  Biso   1.000  C
  C211     1.0000 0.34123  0.48757  0.11085  Biso   1.000  C
  C212     1.0000 0.38240  0.63819  0.03280  Biso   1.000  C
  C213     1.0000 0.49775  0.58370  0.17577  Biso   1.000  C
  C214     1.0000 0.83521  0.47986  0.41100  Biso   1.000  C
  C215     1.0000 0.87710  0.63575  0.52594  Biso   1.000  C
  C216     1.0000 0.98656  0.59572  0.36052  Biso   1.000  C
  C217     1.0000 0.08993  0.97178  0.85440  Biso   1.000  C
  C218     1.0000 0.83151  0.08719  0.00892  Biso   1.000  C
  C219     1.0000 0.98939  0.84590  0.12335  Biso   1.000  C
  C220     1.0000 0.59253  0.98490  0.67019  Biso   1.000  C
  C221     1.0000 0.34106  0.09226  0.51006  Biso   1.000  C
  C222     1.0000 0.48315  0.83698  0.41178  Biso   1.000  C
  C223     1.0000 0.39131  0.48620  0.85474  Biso   1.000  C
  C224     1.0000 0.63996  0.59173  0.01255  Biso   1.000  C
  C225     1.0000 0.49702  0.33394  0.11346  Biso   1.000  C
  C226     1.0000 0.89208  0.47861  0.66779  Biso   1.000  C
  C227     1.0000 0.13808  0.59175  0.51391  Biso   1.000  C
  C228     1.0000 0.98366  0.34235  0.40651  Biso   1.000  C
  C229     1.0000 0.89080  0.00394  0.17226  Biso   1.000  C
  C230     1.0000 0.14068  0.88786  0.01283  Biso   1.000  C
  C231     1.0000 0.99835  0.12881  0.90654  Biso   1.000  C
  C232     1.0000 0.38775  0.98568  0.35137  Biso   1.000  C
  C233     1.0000 0.63858  0.87653  0.51177  Biso   1.000  C
  C234     1.0000 0.49596  0.13965  0.61279  Biso   1.000  C
  C235     1.0000 0.58941  0.47403  0.17248  Biso   1.000  C
  C236     1.0000 0.34050  0.38372  0.00253  Biso   1.000  C
  C237     1.0000 0.48409  0.64071  0.91703  Biso   1.000  C
  C238     1.0000 0.09066  0.49892  0.35795  Biso   1.000  C
  C239     1.0000 0.84165  0.37819  0.51328  Biso   1.000  C
  C240     1.0000 0.98011  0.62678  0.61762  Biso   1.000  C
  C241     1.0000 0.59546  0.49452  0.85619  Biso   1.000  C
  C242     1.0000 0.82800  0.58504  0.52302  Biso   1.000  C
  C243     1.0000 0.46955  0.82712  0.61955  Biso   1.000  C
  C244     1.0000 0.09512  0.47367  0.66617  Biso   1.000  C
  C245     1.0000 0.33386  0.58698  0.02142  Biso   1.000  C
  C246     1.0000 0.98741  0.82048  0.91792  Biso   1.000  C
  C247     1.0000 0.88536  0.96871  0.86305  Biso   1.000  C
  C248     1.0000 0.64922  0.08136  0.50911  Biso   1.000  C
  C249     1.0000 0.99196  0.32169  0.61094  Biso   1.000  C
  C250     1.0000 0.38812  0.98752  0.66671  Biso   1.000  C
  C251     1.0000 0.14424  0.09302  0.00251  Biso   1.000  C
  C252     1.0000 0.48595  0.33734  0.90764  Biso   1.000  C
  C253     1.0000 0.38925  0.48872  0.16806  Biso   1.000  C
  C254     1.0000 0.15130  0.38683  0.50698  Biso   1.000  C
  C255     1.0000 0.50891  0.13942  0.40737  Biso   1.000  C
  C256     1.0000 0.88207  0.49699  0.35676  Biso   1.000  C
  C257     1.0000 0.64433  0.39047  0.01277  Biso   1.000  C
  C258     1.0000 0.98097  0.14720  0.11067  Biso   1.000  C
  C259     1.0000 0.09065  0.99671  0.16780  Biso   1.000  C
  C260     1.0000 0.32525  0.88883  0.51445  Biso   1.000  C
  C261     1.0000 0.98587  0.64249  0.41681  Biso   1.000  C
  C262     1.0000 0.59229  0.97738  0.35691  Biso   1.000  C
  C263     1.0000 0.83461  0.88150  0.02113  Biso   1.000  C
  C264     1.0000 0.49582  0.63638  0.12266  Biso   1.000  C
  C265     1.0000 0.99955  0.07440  0.85465  Biso   1.000  C
  C266     1.0000 0.83863  0.00132  0.12010  Biso   1.000  C
  C267     1.0000 0.09137  0.83366  0.02157  Biso   1.000  C
  C268     1.0000 0.49218  0.08850  0.66421  Biso   1.000  C
  C269     1.0000 0.33667  0.98366  0.40548  Biso   1.000  C
  C270     1.0000 0.58503  0.83282  0.52101  Biso   1.000  C
  C271     1.0000 0.48842  0.59051  0.86016  Biso   1.000  C
  C272     1.0000 0.63920  0.47320  0.12044  Biso   1.000  C
  C273     1.0000 0.39032  0.33033  0.01045  Biso   1.000  C
  C274     1.0000 0.99648  0.57276  0.66815  Biso   1.000  C
  C275     1.0000 0.14429  0.49860  0.40859  Biso   1.000  C
  C276     1.0000 0.89299  0.32547  0.50715  Biso   1.000  C
  C277     1.0000 0.98536  0.89617  0.17427  Biso   1.000  C
  C278     1.0000 0.14185  0.99060  0.90712  Biso   1.000  C
  C279     1.0000 0.88341  0.13848  0.00385  Biso   1.000  C
  C280     1.0000 0.47826  0.88800  0.36184  Biso   1.000  C
  C281     1.0000 0.64695  0.98637  0.61805  Biso   1.000  C
  C282     1.0000 0.39746  0.14113  0.50560  Biso   1.000  C
  C283     1.0000 0.48783  0.38593  0.16761  Biso   1.000  C
  C284     1.0000 0.34126  0.49047  0.90538  Biso   1.000  C
  C285     1.0000 0.58414  0.64302  0.00703  Biso   1.000  C
  C286     1.0000 0.98419  0.39519  0.35813  Biso   1.000  C
  C287     1.0000 0.83893  0.48223  0.61654  Biso   1.000  C
  C288     1.0000 0.08330  0.63903  0.52475  Biso   1.000  C
  C289     1.0000 0.32307  0.85857  0.51473  Biso   1.000  C
  C290     1.0000 0.49195  0.33463  0.87610  Biso   1.000  C
  C291     1.0000 0.85123  0.48832  0.35701  Biso   1.000  C
  C292     1.0000 0.83300  0.85125  0.01340  Biso   1.000  C
  C293     1.0000 0.99443  0.31805  0.64213  Biso   1.000  C
  C294     1.0000 0.35851  0.49092  0.16650  Biso   1.000  C
  C295     1.0000 0.15301  0.35552  0.51012  Biso   1.000  C
  C296     1.0000 0.98561  0.81740  0.88681  Biso   1.000  C
  C297     1.0000 0.62345  0.97946  0.35751  Biso   1.000  C
  C298     1.0000 0.64632  0.35922  0.01237  Biso   1.000  C
  C299     1.0000 0.47836  0.82685  0.64980  Biso   1.000  C
  C300     1.0000 0.12186  0.99779  0.16707  Biso   1.000  C
  C301     1.0000 0.65122  0.11323  0.51126  Biso   1.000  C
  C302     1.0000 0.49356  0.63601  0.15385  Biso   1.000  C
  C303     1.0000 0.12541  0.47946  0.66600  Biso   1.000  C
  C304     1.0000 0.14270  0.12486  0.00311  Biso   1.000  C
  C305     1.0000 0.98739  0.64554  0.38515  Biso   1.000  C
  C306     1.0000 0.62617  0.49697  0.85600  Biso   1.000  C
  C307     1.0000 0.82579  0.61519  0.52904  Biso   1.000  C
  C308     1.0000 0.98482  0.14977  0.14197  Biso   1.000  C
  C309     1.0000 0.35791  0.99530  0.66592  Biso   1.000  C
  C310     1.0000 0.33183  0.61867  0.02025  Biso   1.000  C
  C311     1.0000 0.50769  0.14221  0.37496  Biso   1.000  C
  C312     1.0000 0.85413  0.97009  0.86178  Biso   1.000  C
  C313     1.0000 0.14462  0.49898  0.37717  Biso   1.000  C
  C314     1.0000 0.36641  0.14333  0.50670  Biso   1.000  C
  C315     1.0000 0.49440  0.35478  0.16665  Biso   1.000  C
  C316     1.0000 0.64104  0.47132  0.15169  Biso   1.000  C
  C317     1.0000 0.85161  0.13983  0.00705  Biso   1.000  C
  C318     1.0000 0.98095  0.36476  0.35552  Biso   1.000  C
  C319     1.0000 0.33610  0.98417  0.37298  Biso   1.000  C
  C320     1.0000 0.11398  0.64185  0.52375  Biso   1.000  C
  C321     1.0000 0.98610  0.86573  0.17685  Biso   1.000  C
  C322     1.0000 0.83773  0.00446  0.15222  Biso   1.000  C
  C323     1.0000 0.61617  0.64449  0.00646  Biso   1.000  C
  C324     1.0000 0.47986  0.85711  0.35966  Biso   1.000  C
  C325     1.0000 0.83874  0.48692  0.64777  Biso   1.000  C
  C326     1.0000 0.61487  0.82596  0.51772  Biso   1.000  C
  C327     1.0000 0.48519  0.62167  0.86254  Biso   1.000  C
  C328     1.0000 0.33911  0.48937  0.87328  Biso   1.000  C
  C329     1.0000 0.12334  0.83490  0.01864  Biso   1.000  C
  C330     1.0000 0.99451  0.60392  0.66902  Biso   1.000  C
  C331     1.0000 0.64747  0.98506  0.64932  Biso   1.000  C
  C332     1.0000 0.86202  0.32402  0.51108  Biso   1.000  C
  C333     1.0000 0.00026  0.10557  0.85410  Biso   1.000  C
  C334     1.0000 0.14266  0.98663  0.87470  Biso   1.000  C
  C335     1.0000 0.35858  0.33033  0.00675  Biso   1.000  C
  C336     1.0000 0.49408  0.11951  0.66672  Biso   1.000  C
  C337     1.0000 0.64598  0.49592  0.87892  Biso   1.000  C
  C338     1.0000 0.84577  0.63735  0.53025  Biso   1.000  C
  C339     1.0000 0.48343  0.84875  0.67080  Biso   1.000  C
  C340     1.0000 0.14529  0.48799  0.64399  Biso   1.000  C
  C341     1.0000 0.35174  0.64033  0.02454  Biso   1.000  C
  C342     1.0000 0.98343  0.83647  0.86347  Biso   1.000  C
  C343     1.0000 0.83248  0.97542  0.88387  Biso   1.000  C
  C344     1.0000 0.63082  0.13614  0.51101  Biso   1.000  C
  C345     1.0000 0.99495  0.33634  0.66546  Biso   1.000  C
  C346     1.0000 0.33685  0.99713  0.64292  Biso   1.000  C
  C347     1.0000 0.12016  0.14555  0.00775  Biso   1.000  C
  C348     1.0000 0.49730  0.35697  0.85560  Biso   1.000  C
  C349     1.0000 0.33939  0.49090  0.14325  Biso   1.000  C
  C350     1.0000 0.13262  0.33373  0.50848  Biso   1.000  C
  C351     1.0000 0.50605  0.12083  0.35168  Biso   1.000  C
  C352     1.0000 0.83231  0.48207  0.37936  Biso   1.000  C
  C353     1.0000 0.62451  0.33810  0.01312  Biso   1.000  C
  C354     1.0000 0.98816  0.13079  0.16407  Biso   1.000  C
  C355     1.0000 0.14158  0.99824  0.14320  Biso   1.000  C
  C356     1.0000 0.34422  0.83713  0.51442  Biso   1.000  C
  C357     1.0000 0.98667  0.62643  0.36156  Biso   1.000  C
  C358     1.0000 0.64394  0.97596  0.37931  Biso   1.000  C
  C359     1.0000 0.85396  0.82921  0.01270  Biso   1.000  C
  C360     1.0000 0.49539  0.61421  0.17595  Biso   1.000  C
  C361     1.0000 0.99949  0.12799  0.87583  Biso   1.000  C
  C362     1.0000 0.85877  0.00484  0.17364  Biso   1.000  C
  C363     1.0000 0.14361  0.85642  0.01362  Biso   1.000  C
  C364     1.0000 0.49710  0.14048  0.64521  Biso   1.000  C
  C365     1.0000 0.35767  0.98407  0.35101  Biso   1.000  C
  C366     1.0000 0.63783  0.84541  0.51500  Biso   1.000  C
  C367     1.0000 0.48362  0.64209  0.88540  Biso   1.000  C
  C368     1.0000 0.61986  0.47158  0.17323  Biso   1.000  C
  C369     1.0000 0.33923  0.35248  0.00262  Biso   1.000  C
  C370     1.0000 0.98735  0.62535  0.64823  Biso   1.000  C
  C371     1.0000 0.12250  0.49985  0.35577  Biso   1.000  C
  C372     1.0000 0.84186  0.34670  0.51442  Biso   1.000  C
  C373     1.0000 0.98760  0.84370  0.15443  Biso   1.000  C
  C374     1.0000 0.12097  0.97859  0.85267  Biso   1.000  C
  C375     1.0000 0.83017  0.11895  0.00811  Biso   1.000  C
  C376     1.0000 0.48101  0.83489  0.38039  Biso   1.000  C
  C377     1.0000 0.62432  0.98402  0.67087  Biso   1.000  C
  C378     1.0000 0.34346  0.12264  0.50861  Biso   1.000  C
  C379     1.0000 0.49905  0.33416  0.14489  Biso   1.000  C
  C380     1.0000 0.36119  0.48694  0.85257  Biso   1.000  C
  C381     1.0000 0.63903  0.62339  0.00906  Biso   1.000  C
  C382     1.0000 0.98167  0.34228  0.37518  Biso   1.000  C
  C383     1.0000 0.86121  0.48527  0.66911  Biso   1.000  C
  C384     1.0000 0.13789  0.62300  0.52131  Biso   1.000  C
  C385     1.0000 0.16893  0.14031  0.99961  Biso   1.000  C
  C386     1.0000 0.98231  0.17917  0.15574  Biso   1.000  C
  C387     1.0000 0.13889  0.00028  0.19304  Biso   1.000  C
  C388     1.0000 0.67900  0.12725  0.51349  Biso   1.000  C
  C389     1.0000 0.50728  0.16802  0.36062  Biso   1.000  C
  C390     1.0000 0.64032  0.98326  0.33036  Biso   1.000  C
  C391     1.0000 0.30616  0.63219  0.01088  Biso   1.000  C
  C392     1.0000 0.48837  0.66224  0.16892  Biso   1.000  C
  C393     1.0000 0.34176  0.49923  0.19108  Biso   1.000  C
  C394     1.0000 0.79781  0.62888  0.53357  Biso   1.000  C
  C395     1.0000 0.98909  0.67401  0.37152  Biso   1.000  C
  C396     1.0000 0.83542  0.48367  0.33050  Biso   1.000  C
  C397     1.0000 0.80581  0.83686  0.00868  Biso   1.000  C
  C398     1.0000 0.98525  0.78940  0.87334  Biso   1.000  C
  C399     1.0000 0.83875  0.96552  0.83510  Biso   1.000  C
  C400     1.0000 0.29658  0.84236  0.51868  Biso   1.000  C
  C401     1.0000 0.47814  0.80048  0.66530  Biso   1.000  C
  C402     1.0000 0.34225  0.99877  0.69211  Biso   1.000  C
  C403     1.0000 0.67350  0.34328  0.01082  Biso   1.000  C
  C404     1.0000 0.49445  0.30812  0.86073  Biso   1.000  C
  C405     1.0000 0.64321  0.49833  0.82923  Biso   1.000  C
  C406     1.0000 0.17993  0.34058  0.51418  Biso   1.000  C
  C407     1.0000 0.99786  0.28961  0.65501  Biso   1.000  C
  C408     1.0000 0.14211  0.47816  0.69141  Biso   1.000  C
  C409     1.0000 0.13610  0.98014  0.82613  Biso   1.000  C
  C410     1.0000 0.80365  0.13545  0.00989  Biso   1.000  C
  C411     1.0000 0.99043  0.81777  0.17120  Biso   1.000  C
  C412     1.0000 0.63866  0.98176  0.69871  Biso   1.000  C
  C413     1.0000 0.31769  0.14038  0.50862  Biso   1.000  C
  C414     1.0000 0.48119  0.80693  0.36397  Biso   1.000  C
  C415     1.0000 0.34717  0.48774  0.82502  Biso   1.000  C
  C416     1.0000 0.66487  0.63927  0.00689  Biso   1.000  C
  C417     1.0000 0.50197  0.30686  0.16069  Biso   1.000  C
  C418     1.0000 0.84693  0.49117  0.69653  Biso   1.000  C
  C419     1.0000 0.16319  0.64154  0.52072  Biso   1.000  C
  C420     1.0000 0.98048  0.31553  0.35813  Biso   1.000  C
  C421     1.0000 0.84438  0.00988  0.20109  Biso   1.000  C
  C422     1.0000 0.17126  0.84205  0.00851  Biso   1.000  C
  C423     1.0000 0.00109  0.15422  0.85898  Biso   1.000  C
  C424     1.0000 0.34143  0.98393  0.32589  Biso   1.000  C
  C425     1.0000 0.66389  0.82906  0.51716  Biso   1.000  C
  C426     1.0000 0.49804  0.16785  0.66088  Biso   1.000  C
  C427     1.0000 0.63697  0.46714  0.19899  Biso   1.000  C
  C428     1.0000 0.31165  0.33772  0.99833  Biso   1.000  C
  C429     1.0000 0.47931  0.66992  0.87213  Biso   1.000  C
  C430     1.0000 0.13712  0.50353  0.32828  Biso   1.000  C
  C431     1.0000 0.81581  0.33078  0.51700  Biso   1.000  C
  C432     1.0000 0.98530  0.65134  0.66553  Biso   1.000  C
  C433     1.0000 0.00071  0.12023  0.82684  Biso   1.000  C
  C434     1.0000 0.81152  0.00820  0.16770  Biso   1.000  C
  C435     1.0000 0.13961  0.80887  0.01523  Biso   1.000  C
  C436     1.0000 0.49594  0.13433  0.69393  Biso   1.000  C
  C437     1.0000 0.30885  0.98450  0.35685  Biso   1.000  C
  C438     1.0000 0.62951  0.79927  0.52325  Biso   1.000  C
  C439     1.0000 0.48131  0.63779  0.83708  Biso   1.000  C
  C440     1.0000 0.66883  0.46715  0.16613  Biso   1.000  C
  C441     1.0000 0.34279  0.30392  0.00521  Biso   1.000  C
  C442     1.0000 0.99783  0.61965  0.69575  Biso   1.000  C
  C443     1.0000 0.17086  0.50177  0.36014  Biso   1.000  C
  C444     1.0000 0.84675  0.29743  0.51302  Biso   1.000  C
  C445     1.0000 0.98426  0.85057  0.20413  Biso   1.000  C
  C446     1.0000 0.16814  0.99318  0.85883  Biso   1.000  C
  C447     1.0000 0.83595  0.16687  0.00594  Biso   1.000  C
  C448     1.0000 0.47951  0.84083  0.33197  Biso   1.000  C
  C449     1.0000 0.67299  0.98070  0.66527  Biso   1.000  C
  C450     1.0000 0.35174  0.17065  0.50304  Biso   1.000  C
  C451     1.0000 0.49588  0.33895  0.19427  Biso   1.000  C
  C452     1.0000 0.31398  0.49023  0.85732  Biso   1.000  C
  C453     1.0000 0.63087  0.67058  0.00255  Biso   1.000  C
  C454     1.0000 0.97822  0.34955  0.32812  Biso   1.000  C
  C455     1.0000 0.81341  0.49468  0.66335  Biso   1.000  C
  C456     1.0000 0.12691  0.67028  0.52759  Biso   1.000  C
  C457     1.0000 0.98815  0.64439  0.33549  Biso   1.000  C
  C458     1.0000 0.31067  0.00269  0.65894  Biso   1.000  C
  C459     1.0000 0.63924  0.31063  0.01097  Biso   1.000  C
  C460     1.0000 0.49245  0.63007  0.20306  Biso   1.000  C
  C461     1.0000 0.80547  0.97281  0.86830  Biso   1.000  C
  C462     1.0000 0.14821  0.30696  0.50859  Biso   1.000  C
  C463     1.0000 0.50273  0.13770  0.32540  Biso   1.000  C
  C464     1.0000 0.17278  0.49337  0.65913  Biso   1.000  C
  C465     1.0000 0.83900  0.80413  0.00574  Biso   1.000  C
  C466     1.0000 0.98768  0.14878  0.18936  Biso   1.000  C
  C467     1.0000 0.67331  0.49823  0.86423  Biso   1.000  C
  C468     1.0000 0.32806  0.81113  0.51716  Biso   1.000  C
  C469     1.0000 0.99614  0.31893  0.69191  Biso   1.000  C
  C470     1.0000 0.67034  0.98152  0.36540  Biso   1.000  C
  C471     1.0000 0.33600  0.66640  0.01913  Biso   1.000  C
  C472     1.0000 0.50197  0.34108  0.82744  Biso   1.000  C
  C473     1.0000 0.16911  0.00104  0.15654  Biso   1.000  C
  C474     1.0000 0.82908  0.66347  0.53750  Biso   1.000  C
  C475     1.0000 0.48581  0.83346  0.69770  Biso   1.000  C
  C476     1.0000 0.80658  0.47360  0.36493  Biso   1.000  C
  C477     1.0000 0.13465  0.17159  0.00671  Biso   1.000  C
  C478     1.0000 0.98420  0.81983  0.83750  Biso   1.000  C
  C479     1.0000 0.31051  0.49685  0.15827  Biso   1.000  C
  C480     1.0000 0.64755  0.16139  0.51287  Biso   1.000  C
  C481     1.0000 0.34466  0.78377  0.52064  Biso   1.000  C
  C482     1.0000 0.50814  0.35708  0.80124  Biso   1.000  C
  C483     1.0000 0.78266  0.45936  0.38098  Biso   1.000  C
  C484     1.0000 0.85617  0.77668  0.99996  Biso   1.000  C
  C485     1.0000 0.99300  0.33330  0.72044  Biso   1.000  C
  C486     1.0000 0.28435  0.49807  0.14028  Biso   1.000  C
  C487     1.0000 0.13455  0.27965  0.50418  Biso   1.000  C
  C488     1.0000 0.98380  0.83315  0.80897  Biso   1.000  C
  C489     1.0000 0.69652  0.98480  0.38275  Biso   1.000  C
  C490     1.0000 0.62483  0.28273  0.01165  Biso   1.000  C
  C491     1.0000 0.49255  0.84985  0.72386  Biso   1.000  C
  C492     1.0000 0.19680  0.00004  0.13933  Biso   1.000  C
  C493     1.0000 0.63435  0.18859  0.51742  Biso   1.000  C
  C494     1.0000 0.49186  0.61579  0.23119  Biso   1.000  C
  C495     1.0000 0.19739  0.50364  0.64327  Biso   1.000  C
  C496     1.0000 0.11845  0.19843  0.01078  Biso   1.000  C
  C497     1.0000 0.98882  0.62967  0.30682  Biso   1.000  C
  C498     1.0000 0.69988  0.49813  0.88089  Biso   1.000  C
  C499     1.0000 0.84664  0.68881  0.54167  Biso   1.000  C
  C500     1.0000 0.99025  0.13394  0.21791  Biso   1.000  C
  C501     1.0000 0.28331  0.00618  0.64455  Biso   1.000  C
  C502     1.0000 0.35037  0.69375  0.02399  Biso   1.000  C
  C503     1.0000 0.49591  0.12078  0.29910  Biso   1.000  C
  C504     1.0000 0.77897  0.97349  0.88468  Biso   1.000  C
  C505     1.0000 0.62862  0.49874  0.80157  Biso   1.000  C
  C506     1.0000 0.77093  0.61189  0.53140  Biso   1.000  C
  C507     1.0000 0.46882  0.77310  0.65060  Biso   1.000  C
  C508     1.0000 0.12927  0.46897  0.71864  Biso   1.000  C
  C509     1.0000 0.28221  0.61614  0.00054  Biso   1.000  C
  C510     1.0000 0.98145  0.76325  0.89087  Biso   1.000  C
  C511     1.0000 0.85426  0.95692  0.80807  Biso   1.000  C
  C512     1.0000 0.70503  0.11013  0.51127  Biso   1.000  C
  C513     1.0000 0.99995  0.26455  0.63583  Biso   1.000  C
  C514     1.0000 0.35574  0.99908  0.72126  Biso   1.000  C
  C515     1.0000 0.19721  0.12465  0.99553  Biso   1.000  C
  C516     1.0000 0.49400  0.28217  0.87838  Biso   1.000  C
  C517     1.0000 0.35580  0.50058  0.22001  Biso   1.000  C
  C518     1.0000 0.20619  0.35791  0.51758  Biso   1.000  C
  C519     1.0000 0.51263  0.19557  0.37682  Biso   1.000  C
  C520     1.0000 0.85082  0.48883  0.30401  Biso   1.000  C
  C521     1.0000 0.70053  0.35856  0.01110  Biso   1.000  C
  C522     1.0000 0.97715  0.20557  0.13867  Biso   1.000  C
  C523     1.0000 0.12349  0.00637  0.22110  Biso   1.000  C
  C524     1.0000 0.27015  0.85907  0.52170  Biso   1.000  C
  C525     1.0000 0.98834  0.69898  0.38942  Biso   1.000  C
  C526     1.0000 0.62712  0.98485  0.30166  Biso   1.000  C
  C527     1.0000 0.77847  0.85375  0.01407  Biso   1.000  C
  C528     1.0000 0.48418  0.68971  0.15468  Biso   1.000  C
  C529     1.0000 0.77696  0.12004  0.01493  Biso   1.000  C
  C530     1.0000 0.99798  0.79151  0.15568  Biso   1.000  C
  C531     1.0000 0.12063  0.97391  0.79994  Biso   1.000  C
  C532     1.0000 0.28906  0.12678  0.50905  Biso   1.000  C
  C533     1.0000 0.48571  0.78120  0.38050  Biso   1.000  C
  C534     1.0000 0.62107  0.97790  0.72483  Biso   1.000  C
  C535     1.0000 0.69289  0.62305  0.00849  Biso   1.000  C
  C536     1.0000 0.50348  0.28042  0.14502  Biso   1.000  C
  C537     1.0000 0.36508  0.48732  0.79671  Biso   1.000  C
  C538     1.0000 0.19073  0.62614  0.51445  Biso   1.000  C
  C539     1.0000 0.97929  0.28756  0.37190  Biso   1.000  C
  C540     1.0000 0.86334  0.49335  0.72330  Biso   1.000  C
  C541     1.0000 0.19626  0.85821  0.00010  Biso   1.000  C
  C542     1.0000 0.00475  0.18178  0.87359  Biso   1.000  C
  C543     1.0000 0.86107  0.00691  0.22807  Biso   1.000  C
  C544     1.0000 0.69134  0.84110  0.51195  Biso   1.000  C
  C545     1.0000 0.49735  0.19453  0.64552  Biso   1.000  C
  C546     1.0000 0.35567  0.98583  0.29796  Biso   1.000  C
  C547     1.0000 0.28586  0.35534  0.99675  Biso   1.000  C
  C548     1.0000 0.47676  0.69526  0.89066  Biso   1.000  C
  C549     1.0000 0.62081  0.46625  0.22576  Biso   1.000  C
  C550     1.0000 0.78921  0.34690  0.51541  Biso   1.000  C
  C551     1.0000 0.98117  0.67903  0.65329  Biso   1.000  C
  C552     1.0000 0.11953  0.50443  0.30251  Biso   1.000  C
  C553     1.0000 0.00135  0.10233  0.80037  Biso   1.000  C
  C554     1.0000 0.78350  0.00931  0.15223  Biso   1.000  C
  C555     1.0000 0.12396  0.78025  0.01662  Biso   1.000  C
  C556     1.0000 0.49802  0.11739  0.72064  Biso   1.000  C
  C557     1.0000 0.28140  0.97798  0.37291  Biso   1.000  C
  C558     1.0000 0.61143  0.77583  0.53103  Biso   1.000  C
  C559     1.0000 0.47827  0.62326  0.81016  Biso   1.000  C
  C560     1.0000 0.69468  0.46471  0.14819  Biso   1.000  C
  C561     1.0000 0.35931  0.27666  0.00937  Biso   1.000  C
  C562     1.0000 0.00151  0.60562  0.72339  Biso   1.000  C
  C563     1.0000 0.19718  0.50483  0.37622  Biso   1.000  C
  C564     1.0000 0.86427  0.27029  0.51299  Biso   1.000  C
  C565     1.0000 0.98217  0.86684  0.23070  Biso   1.000  C
  C566     1.0000 0.19506  0.00293  0.87325  Biso   1.000  C
  C567     1.0000 0.85277  0.19332  0.99978  Biso   1.000  C
  C568     1.0000 0.47771  0.85662  0.30569  Biso   1.000  C
  C569     1.0000 0.70058  0.98048  0.64933  Biso   1.000  C
  C570     1.0000 0.36877  0.19656  0.49622  Biso   1.000  C
  C571     1.0000 0.49288  0.35291  0.22176  Biso   1.000  C
  C572     1.0000 0.28702  0.49829  0.87460  Biso   1.000  C
  C573     1.0000 0.61513  0.69743  0.99823  Biso   1.000  C
  C574     1.0000 0.97161  0.36470  0.30137  Biso   1.000  C
  C575     1.0000 0.78480  0.49777  0.64877  Biso   1.000  C
  C576     1.0000 0.10901  0.69549  0.53499  Biso   1.000  C
  C577     1.0000 0.28662  0.49423  0.10946  Biso   1.000  C
  C578     1.0000 0.10333  0.27787  0.50109  Biso   1.000  C
  C579     1.0000 0.49521  0.08915  0.29933  Biso   1.000  C
  C580     1.0000 0.78378  0.46063  0.41340  Biso   1.000  C
  C581     1.0000 0.59336  0.28324  0.01277  Biso   1.000  C
  C582     1.0000 0.99062  0.10283  0.21882  Biso   1.000  C
  C583     1.0000 0.19396  0.99991  0.10723  Biso   1.000  C
  C584     1.0000 0.37606  0.78642  0.52002  Biso   1.000  C
  C585     1.0000 0.98694  0.59826  0.30509  Biso   1.000  C
  C586     1.0000 0.69550  0.98266  0.41480  Biso   1.000  C
  C587     1.0000 0.88853  0.77745  0.00346  Biso   1.000  C
  C588     1.0000 0.49597  0.58497  0.23313  Biso   1.000  C
  C589     1.0000 0.69801  0.49575  0.91329  Biso   1.000  C
  C590     1.0000 0.87718  0.68872  0.53723  Biso   1.000  C
  C591     1.0000 0.49336  0.88133  0.72412  Biso   1.000  C
  C592     1.0000 0.19659  0.50550  0.61242  Biso   1.000  C
  C593     1.0000 0.38172  0.69328  0.03298  Biso   1.000  C
  C594     1.0000 0.98161  0.86420  0.80618  Biso   1.000  C
  C595     1.0000 0.78016  0.97504  0.91643  Biso   1.000  C
  C596     1.0000 0.60386  0.19038  0.51461  Biso   1.000  C
  C597     1.0000 0.99347  0.36408  0.72265  Biso   1.000  C
  C598     1.0000 0.28527  0.00455  0.61122  Biso   1.000  C
  C599     1.0000 0.08650  0.19576  0.01501  Biso   1.000  C
  C600     1.0000 0.50849  0.38881  0.80188  Biso   1.000  C
  C601     1.0000 0.19367  0.00632  0.90438  Biso   1.000  C
  C602     1.0000 0.88464  0.19224  0.99810  Biso   1.000  C
  C603     1.0000 0.98228  0.89749  0.22887  Biso   1.000  C
  C604     1.0000 0.70045  0.98475  0.61668  Biso   1.000  C
  C605     1.0000 0.40077  0.19505  0.49560  Biso   1.000  C
  C606     1.0000 0.47649  0.88792  0.30732  Biso   1.000  C
  C607     1.0000 0.28701  0.49843  0.90690  Biso   1.000  C
  C608     1.0000 0.58390  0.69741  0.99768  Biso   1.000  C
  C609     1.0000 0.48673  0.38430  0.22329  Biso   1.000  C
  C610     1.0000 0.78424  0.49232  0.61790  Biso   1.000  C
  C611     1.0000 0.07788  0.69229  0.53865  Biso   1.000  C
  C612     1.0000 0.97226  0.39615  0.30292  Biso   1.000  C
  C613     1.0000 0.78432  0.00558  0.12091  Biso   1.000  C
  C614     1.0000 0.09249  0.77913  0.01707  Biso   1.000  C
  C615     1.0000 0.99838  0.07037  0.79978  Biso   1.000  C
  C616     1.0000 0.28205  0.97910  0.40509  Biso   1.000  C
  C617     1.0000 0.58018  0.78060  0.53401  Biso   1.000  C
  C618     1.0000 0.49524  0.08688  0.71853  Biso   1.000  C
  C619     1.0000 0.69211  0.47094  0.11759  Biso   1.000  C
  C620     1.0000 0.39065  0.27556  0.01100  Biso   1.000  C
  C621     1.0000 0.48187  0.59122  0.80724  Biso   1.000  C
  C622     1.0000 0.19893  0.50186  0.40792  Biso   1.000  C
  C623     1.0000 0.89566  0.27026  0.51212  Biso   1.000  C
  C624     1.0000 0.00086  0.57300  0.72369  Biso   1.000  C
  C625     1.0000 0.00100  0.18328  0.90464  Biso   1.000  C
  C626     1.0000 0.89233  0.00527  0.22721  Biso   1.000  C
  C627     1.0000 0.19394  0.88892  0.99673  Biso   1.000  C
  C628     1.0000 0.49521  0.19326  0.61468  Biso   1.000  C
  C629     1.0000 0.38769  0.98631  0.29670  Biso   1.000  C
  C630     1.0000 0.69361  0.87258  0.50781  Biso   1.000  C
  C631     1.0000 0.47619  0.69277  0.92297  Biso   1.000  C
  C632     1.0000 0.58893  0.46754  0.22617  Biso   1.000  C
  C633     1.0000 0.28563  0.38581  0.99920  Biso   1.000  C
  C634     1.0000 0.97415  0.68054  0.62246  Biso   1.000  C
  C635     1.0000 0.08824  0.50130  0.30408  Biso   1.000  C
  C636     1.0000 0.78656  0.37863  0.51583  Biso   1.000  C
  C637     1.0000 0.99688  0.79037  0.12435  Biso   1.000  C
  C638     1.0000 0.08948  0.96886  0.80030  Biso   1.000  C
  C639     1.0000 0.77696  0.08908  0.01666  Biso   1.000  C
  C640     1.0000 0.48630  0.78305  0.41272  Biso   1.000  C
  C641     1.0000 0.59043  0.97668  0.72475  Biso   1.000  C
  C642     1.0000 0.28784  0.09574  0.51015  Biso   1.000  C
  C643     1.0000 0.50125  0.28066  0.11342  Biso   1.000  C
  C644     1.0000 0.39692  0.48488  0.79930  Biso   1.000  C
  C645     1.0000 0.69448  0.59099  0.00763  Biso   1.000  C
  C646     1.0000 0.98166  0.28706  0.40422  Biso   1.000  C
  C647     1.0000 0.89372  0.49018  0.72201  Biso   1.000  C
  C648     1.0000 0.19246  0.59530  0.50882  Biso   1.000  C
  C649     1.0000 0.98715  0.69690  0.42223  Biso   1.000  C
  C650     1.0000 0.38620  0.98893  0.72265  Biso   1.000  C
  C651     1.0000 0.69956  0.39071  0.01339  Biso   1.000  C
  C652     1.0000 0.48640  0.68989  0.12214  Biso   1.000  C
  C653     1.0000 0.88521  0.95894  0.80887  Biso   1.000  C
  C654     1.0000 0.20503  0.38846  0.51563  Biso   1.000  C
  C655     1.0000 0.51170  0.19441  0.40869  Biso   1.000  C
  C656     1.0000 0.09771  0.46371  0.71939  Biso   1.000  C
  C657     1.0000 0.78083  0.88638  0.01811  Biso   1.000  C
  C658     1.0000 0.97263  0.20250  0.10710  Biso   1.000  C
  C659     1.0000 0.59752  0.49942  0.80193  Biso   1.000  C
  C660     1.0000 0.27140  0.89062  0.52084  Biso   1.000  C
  C661     1.0000 0.99590  0.26733  0.60470  Biso   1.000  C
  C662     1.0000 0.59542  0.98668  0.30117  Biso   1.000  C
  C663     1.0000 0.28227  0.58456  0.00326  Biso   1.000  C
  C664     1.0000 0.48678  0.28419  0.90899  Biso   1.000  C
  C665     1.0000 0.09248  0.00721  0.22118  Biso   1.000  C
  C666     1.0000 0.77395  0.58045  0.52868  Biso   1.000  C
  C667     1.0000 0.46753  0.77427  0.61916  Biso   1.000  C
  C668     1.0000 0.88072  0.49898  0.30302  Biso   1.000  C
  C669     1.0000 0.19859  0.09256  0.99765  Biso   1.000  C
  C670     1.0000 0.98270  0.76564  0.92215  Biso   1.000  C
  C671     1.0000 0.38747  0.49860  0.22197  Biso   1.000  C
  C672     1.0000 0.70394  0.07804  0.51082  Biso   1.000  C
  C673     1.0000 0.18210  0.99447  0.81213  Biso   1.000  C
  C674     1.0000 0.78713  0.18046  0.00678  Biso   1.000  C
  C675     1.0000 0.98901  0.80243  0.21741  Biso   1.000  C
  C676     1.0000 0.68437  0.97556  0.71439  Biso   1.000  C
  C677     1.0000 0.30624  0.18838  0.50082  Biso   1.000  C
  C678     1.0000 0.47862  0.79342  0.31706  Biso   1.000  C
  C679     1.0000 0.30040  0.48917  0.80993  Biso   1.000  C
  C680     1.0000 0.67685  0.68642  0.00271  Biso   1.000  C
  C681     1.0000 0.50375  0.29213  0.20712  Biso   1.000  C
  C682     1.0000 0.80007  0.50076  0.71133  Biso   1.000  C
  C683     1.0000 0.17265  0.68755  0.52592  Biso   1.000  C
  C684     1.0000 0.97766  0.30389  0.31019  Biso   1.000  C
  C685     1.0000 0.79758  0.00835  0.21418  Biso   1.000  C
  C686     1.0000 0.18645  0.79533  0.00933  Biso   1.000  C
  C687     1.0000 0.00342  0.16764  0.81250  Biso   1.000  C
  C688     1.0000 0.29480  0.98482  0.31046  Biso   1.000  C
  C689     1.0000 0.67581  0.78332  0.52697  Biso   1.000  C
  C690     1.0000 0.49961  0.18208  0.70715  Biso   1.000  C
  C691     1.0000 0.68352  0.46203  0.21285  Biso   1.000  C
  C692     1.0000 0.29496  0.29242  0.99988  Biso   1.000  C
  C693     1.0000 0.47981  0.68390  0.82446  Biso   1.000  C
  C694     1.0000 0.18609  0.50621  0.31421  Biso   1.000  C
  C695     1.0000 0.79942  0.28381  0.51290  Biso   1.000  C
  C696     1.0000 0.99215  0.66456  0.71120  Biso   1.000  C
  C697     1.0000 0.68820  0.98995  0.32064  Biso   1.000  C
  C698     1.0000 0.28942  0.67872  0.01014  Biso   1.000  C
  C699     1.0000 0.00334  0.27265  0.70056  Biso   1.000  C
  C700     1.0000 0.18618  0.99725  0.20479  Biso   1.000  C
  C701     1.0000 0.78377  0.67740  0.54320  Biso   1.000  C
  C702     1.0000 0.50117  0.29360  0.81528  Biso   1.000  C
  C703     1.0000 0.79107  0.46820  0.31841  Biso   1.000  C
  C704     1.0000 0.18049  0.18883  0.99896  Biso   1.000  C
  C705     1.0000 0.48185  0.78828  0.71255  Biso   1.000  C
  C706     1.0000 0.29496  0.50471  0.20286  Biso   1.000  C
  C707     1.0000 0.69466  0.17303  0.51274  Biso   1.000  C
  C708     1.0000 0.98966  0.77159  0.82618  Biso   1.000  C
  C709     1.0000 0.29512  0.00525  0.70468  Biso   1.000  C
  C710     1.0000 0.68499  0.29641  0.00646  Biso   1.000  C
  C711     1.0000 0.98897  0.69226  0.32452  Biso   1.000  C
  C712     1.0000 0.79253  0.96659  0.82305  Biso   1.000  C
  C713     1.0000 0.19596  0.29528  0.50829  Biso   1.000  C
  C714     1.0000 0.48562  0.67763  0.21387  Biso   1.000  C
  C715     1.0000 0.18798  0.48628  0.70397  Biso   1.000  C
  C716     1.0000 0.79019  0.79011  0.00198  Biso   1.000  C
  C717     1.0000 0.50670  0.18419  0.31518  Biso   1.000  C
  C718     1.0000 0.69203  0.49733  0.81692  Biso   1.000  C
  C719     1.0000 0.28103  0.79604  0.52055  Biso   1.000  C
  C720     1.0000 0.98392  0.19493  0.20367  Biso   1.000  C
  C721     1.0000 0.49356  0.79672  0.28944  Biso   1.000  C
  C722     1.0000 0.30359  0.50262  0.78179  Biso   1.000  C
  C723     1.0000 0.77188  0.28552  0.52816  Biso   1.000  C
  C724     1.0000 0.97410  0.77374  0.21092  Biso   1.000  C
  C725     1.0000 0.77626  0.52118  0.70792  Biso   1.000  C
  C726     1.0000 0.26954  0.29665  0.98286  Biso   1.000  C
  C727     1.0000 0.96084  0.27840  0.31196  Biso   1.000  C
  C728     1.0000 0.20387  0.01846  0.81359  Biso   1.000  C
  C729     1.0000 0.69983  0.78913  0.54626  Biso   1.000  C
  C730     1.0000 0.48441  0.29125  0.23190  Biso   1.000  C
  C731     1.0000 0.70895  0.95683  0.71055  Biso   1.000  C
  C732     1.0000 0.21130  0.79454  0.98833  Biso   1.000  C
  C733     1.0000 0.47958  0.18248  0.73100  Biso   1.000  C
  C734     1.0000 0.68118  0.44413  0.23890  Biso   1.000  C
  C735     1.0000 0.16878  0.71630  0.51353  Biso   1.000  C
  C736     1.0000 0.98743  0.19490  0.81526  Biso   1.000  C
  C737     1.0000 0.21099  0.48721  0.31609  Biso   1.000  C
  C738     1.0000 0.70026  0.68809  0.02447  Biso   1.000  C
  C739     1.0000 0.01770  0.66796  0.73059  Biso   1.000  C
  C740     1.0000 0.77155  0.98975  0.20914  Biso   1.000  C
  C741     1.0000 0.28205  0.18703  0.48113  Biso   1.000  C
  C742     1.0000 0.49771  0.68062  0.79769  Biso   1.000  C
  C743     1.0000 0.29773  0.97115  0.28128  Biso   1.000  C
  C744     1.0000 0.79291  0.20769  0.02118  Biso   1.000  C
  C745     1.0000 0.00533  0.71871  0.32764  Biso   1.000  C
  C746     1.0000 0.26996  0.02588  0.70473  Biso   1.000  C
  C747     1.0000 0.71010  0.29503  0.02488  Biso   1.000  C
  C748     1.0000 0.50513  0.70191  0.21225  Biso   1.000  C
  C749     1.0000 0.79104  0.94494  0.79956  Biso   1.000  C
  C750     1.0000 0.22074  0.29577  0.52805  Biso   1.000  C
  C751     1.0000 0.52446  0.17962  0.28967  Biso   1.000  C
  C752     1.0000 0.21784  0.47491  0.69734  Biso   1.000  C
  C753     1.0000 0.76200  0.79645  0.98969  Biso   1.000  C
  C754     1.0000 0.00786  0.19910  0.22464  Biso   1.000  C
  C755     1.0000 0.69263  0.47762  0.79222  Biso   1.000  C
  C756     1.0000 0.25435  0.80067  0.53910  Biso   1.000  C
  C757     1.0000 0.99386  0.24234  0.69643  Biso   1.000  C
  C758     1.0000 0.68259  0.00941  0.29829  Biso   1.000  C
  C759     1.0000 0.26126  0.67594  0.02244  Biso   1.000  C
  C760     1.0000 0.51989  0.29432  0.78927  Biso   1.000  C
  C761     1.0000 0.21526  0.00749  0.20098  Biso   1.000  C
  C762     1.0000 0.78720  0.70699  0.52989  Biso   1.000  C
  C763     1.0000 0.47049  0.79731  0.74143  Biso   1.000  C
  C764     1.0000 0.76093  0.47647  0.32250  Biso   1.000  C
  C765     1.0000 0.20870  0.18289  0.01247  Biso   1.000  C
  C766     1.0000 0.97234  0.77384  0.80053  Biso   1.000  C
  C767     1.0000 0.29885  0.52332  0.23053  Biso   1.000  C
  C768     1.0000 0.69144  0.19913  0.49528  Biso   1.000  C
  C769     1.0000 0.46261  0.71059  0.82636  Biso   1.000  C
  C770     1.0000 0.80138  0.48100  0.73624  Biso   1.000  C
  C771     1.0000 0.67448  0.75506  0.51432  Biso   1.000  C
  C772     1.0000 0.96587  0.68248  0.71791  Biso   1.000  C
  C773     1.0000 0.27255  0.47563  0.81457  Biso   1.000  C
  C774     1.0000 0.18557  0.77178  0.03018  Biso   1.000  C
  C775     1.0000 0.02355  0.16458  0.78740  Biso   1.000  C
  C776     1.0000 0.68026  0.98879  0.74371  Biso   1.000  C
  C777     1.0000 0.80747  0.25871  0.49455  Biso   1.000  C
  C778     1.0000 0.51914  0.20652  0.70510  Biso   1.000  C
  C779     1.0000 0.18600  0.97582  0.78563  Biso   1.000  C
  C780     1.0000 0.29608  0.26559  0.01623  Biso   1.000  C
  C781     1.0000 0.52495  0.26844  0.20618  Biso   1.000  C
  C782     1.0000 0.18345  0.52343  0.28681  Biso   1.000  C
  C783     1.0000 0.31088  0.21417  0.51885  Biso   1.000  C
  C784     1.0000 0.99661  0.30778  0.28587  Biso   1.000  C
  C785     1.0000 0.71172  0.47639  0.20978  Biso   1.000  C
  C786     1.0000 0.76080  0.17688  0.99128  Biso   1.000  C
  C787     1.0000 0.00174  0.80615  0.24641  Biso   1.000  C
  C788     1.0000 0.26767  0.99911  0.31733  Biso   1.000  C
  C789     1.0000 0.20046  0.68423  0.53824  Biso   1.000  C
  C790     1.0000 0.46440  0.76628  0.32478  Biso   1.000  C
  C791     1.0000 0.80130  0.02084  0.24338  Biso   1.000  C
  C792     1.0000 0.67596  0.70837  0.98070  Biso   1.000  C
  C793     1.0000 0.48978  0.20983  0.31932  Biso   1.000  C
  C794     1.0000 0.26662  0.48960  0.20074  Biso   1.000  C
  C795     1.0000 0.19445  0.27207  0.48693  Biso   1.000  C
  C796     1.0000 0.96080  0.21584  0.20441  Biso   1.000  C
  C797     1.0000 0.80002  0.45369  0.29104  Biso   1.000  C
  C798     1.0000 0.68167  0.27345  0.98510  Biso   1.000  C
  C799     1.0000 0.97262  0.68754  0.29838  Biso   1.000  C
  C800     1.0000 0.17790  0.97937  0.23165  Biso   1.000  C
  C801     1.0000 0.28388  0.76799  0.50686  Biso   1.000  C
  C802     1.0000 0.46586  0.67579  0.23814  Biso   1.000  C
  C803     1.0000 0.71696  0.97660  0.32177  Biso   1.000  C
  C804     1.0000 0.79493  0.75883  0.00933  Biso   1.000  C
  C805     1.0000 0.49327  0.75900  0.70664  Biso   1.000  C
  C806     1.0000 0.71604  0.51733  0.82176  Biso   1.000  C
  C807     1.0000 0.75874  0.67259  0.55975  Biso   1.000  C
  C808     1.0000 0.00928  0.74691  0.82707  Biso   1.000  C
  C809     1.0000 0.18356  0.49838  0.73302  Biso   1.000  C
  C810     1.0000 0.29646  0.70420  0.99381  Biso   1.000  C
  C811     1.0000 0.01831  0.27827  0.72738  Biso   1.000  C
  C812     1.0000 0.76957  0.98926  0.82316  Biso   1.000  C
  C813     1.0000 0.72355  0.17136  0.52859  Biso   1.000  C
  C814     1.0000 0.48352  0.26808  0.81912  Biso   1.000  C
  C815     1.0000 0.29625  0.98488  0.72958  Biso   1.000  C
  C816     1.0000 0.17582  0.21821  0.98637  Biso   1.000  C
  C817     1.0000 0.99243  0.21524  0.79350  Biso   1.000  C
  C818     1.0000 0.74950  0.98899  0.23067  Biso   1.000  C
  C819     1.0000 0.23245  0.77194  0.98789  Biso   1.000  C
  C820     1.0000 0.47976  0.20443  0.75210  Biso   1.000  C
  C821     1.0000 0.27667  0.97451  0.26096  Biso   1.000  C
  C822     1.0000 0.72084  0.76811  0.55084  Biso   1.000  C
  C823     1.0000 0.49767  0.70119  0.77690  Biso   1.000  C
  C824     1.0000 0.70319  0.44121  0.25801  Biso   1.000  C
  C825     1.0000 0.24825  0.27516  0.98386  Biso   1.000  C
  C826     1.0000 0.01648  0.68945  0.75259  Biso   1.000  C
  C827     1.0000 0.23277  0.48975  0.29441  Biso   1.000  C
  C828     1.0000 0.75381  0.26183  0.52618  Biso   1.000  C
  C829     1.0000 0.97181  0.75387  0.23304  Biso   1.000  C
  C830     1.0000 0.22648  0.01991  0.79339  Biso   1.000  C
  C831     1.0000 0.77240  0.22872  0.01905  Biso   1.000  C
  C832     1.0000 0.49580  0.77267  0.27061  Biso   1.000  C
  C833     1.0000 0.72964  0.95490  0.73268  Biso   1.000  C
  C834     1.0000 0.26149  0.20949  0.48295  Biso   1.000  C
  C835     1.0000 0.48749  0.27369  0.25607  Biso   1.000  C
  C836     1.0000 0.28039  0.50339  0.76249  Biso   1.000  C
  C837     1.0000 0.72139  0.71040  0.02348  Biso   1.000  C
  C838     1.0000 0.96304  0.25839  0.28898  Biso   1.000  C
  C839     1.0000 0.75674  0.52091  0.73139  Biso   1.000  C
  C840     1.0000 0.18831  0.73850  0.51466  Biso   1.000  C
  C841     1.0000 0.20915  0.97883  0.76655  Biso   1.000  C
  C842     1.0000 0.74047  0.19999  0.98964  Biso   1.000  C
  C843     1.0000 0.00001  0.78465  0.26612  Biso   1.000  C
  C844     1.0000 0.69926  0.98397  0.76575  Biso   1.000  C
  C845     1.0000 0.29232  0.23734  0.51578  Biso   1.000  C
  C846     1.0000 0.46620  0.74449  0.30387  Biso   1.000  C
  C847     1.0000 0.25180  0.47343  0.79376  Biso   1.000  C
  C848     1.0000 0.69630  0.73086  0.98032  Biso   1.000  C
  C849     1.0000 0.52735  0.24877  0.22855  Biso   1.000  C
  C850     1.0000 0.78075  0.48232  0.75671  Biso   1.000  C
  C851     1.0000 0.22035  0.70570  0.53838  Biso   1.000  C
  C852     1.0000 0.99974  0.28698  0.26450  Biso   1.000  C
  C853     1.0000 0.77795  0.01943  0.26217  Biso   1.000  C
  C854     1.0000 0.20468  0.74984  0.02749  Biso   1.000  C
  C855     1.0000 0.02587  0.18398  0.76568  Biso   1.000  C
  C856     1.0000 0.24591  0.00012  0.29614  Biso   1.000  C
  C857     1.0000 0.69369  0.73382  0.52404  Biso   1.000  C
  C858     1.0000 0.51868  0.22787  0.72564  Biso   1.000  C
  C859     1.0000 0.73341  0.47293  0.23021  Biso   1.000  C
  C860     1.0000 0.27438  0.24524  0.01633  Biso   1.000  C
  C861     1.0000 0.46342  0.73033  0.80523  Biso   1.000  C
  C862     1.0000 0.20499  0.52333  0.26659  Biso   1.000  C
  C863     1.0000 0.78704  0.23684  0.49036  Biso   1.000  C
  C864     1.0000 0.96628  0.70150  0.74080  Biso   1.000  C
  C865     1.0000 0.71427  0.48085  0.76985  Biso   1.000  C
  C866     1.0000 0.76360  0.72633  0.53272  Biso   1.000  C
  C867     1.0000 0.47052  0.77774  0.76359  Biso   1.000  C
  C868     1.0000 0.23921  0.47425  0.71797  Biso   1.000  C
  C869     1.0000 0.24163  0.69975  0.02068  Biso   1.000  C
  C870     1.0000 0.97344  0.75252  0.77877  Biso   1.000  C
  C871     1.0000 0.76925  0.94426  0.77813  Biso   1.000  C
  C872     1.0000 0.71373  0.22041  0.49219  Biso   1.000  C
  C873     1.0000 0.99859  0.22163  0.71730  Biso   1.000  C
  C874     1.0000 0.24840  0.02300  0.72658  Biso   1.000  C
  C875     1.0000 0.23009  0.20330  0.01245  Biso   1.000  C
  C876     1.0000 0.52031  0.27263  0.76960  Biso   1.000  C
  C877     1.0000 0.27753  0.52380  0.25302  Biso   1.000  C
  C878     1.0000 0.24366  0.27788  0.52152  Biso   1.000  C
  C879     1.0000 0.52249  0.20083  0.26782  Biso   1.000  C
  C880     1.0000 0.74162  0.46828  0.30218  Biso   1.000  C
  C881     1.0000 0.72879  0.27119  0.02379  Biso   1.000  C
  C882     1.0000 0.00639  0.22349  0.24374  Biso   1.000  C
  C883     1.0000 0.23484  0.00330  0.22298  Biso   1.000  C
  C884     1.0000 0.23248  0.78029  0.53990  Biso   1.000  C
  C885     1.0000 0.00438  0.73998  0.30646  Biso   1.000  C
  C886     1.0000 0.70454  0.01608  0.27857  Biso   1.000  C
  C887     1.0000 0.73962  0.77590  0.98828  Biso   1.000  C
  C888     1.0000 0.50083  0.72466  0.23100  Biso   1.000  C
  C889     1.0000 0.73872  0.98326  0.30227  Biso   1.000  C
  C890     1.0000 0.27614  0.72614  0.99238  Biso   1.000  C
  C891     1.0000 0.02107  0.25713  0.74813  Biso   1.000  C
  C892     1.0000 0.20002  0.97740  0.25256  Biso   1.000  C
  C893     1.0000 0.73627  0.69300  0.56075  Biso   1.000  C
  C894     1.0000 0.48438  0.24633  0.79792  Biso   1.000  C
  C895     1.0000 0.77877  0.44470  0.27112  Biso   1.000  C
  C896     1.0000 0.19968  0.23749  0.98796  Biso   1.000  C
  C897     1.0000 0.49206  0.73982  0.72934  Biso   1.000  C
  C898     1.0000 0.24601  0.49148  0.22243  Biso   1.000  C
  C899     1.0000 0.74546  0.19317  0.52384  Biso   1.000  C
  C900     1.0000 0.00770  0.72505  0.80577  Biso   1.000  C
  C901     1.0000 0.27489  0.98533  0.75067  Biso   1.000  C
  C902     1.0000 0.70257  0.25156  0.98329  Biso   1.000  C
  C903     1.0000 0.97321  0.71018  0.27777  Biso   1.000  C
  C904     1.0000 0.74817  0.98696  0.80332  Biso   1.000  C
  C905     1.0000 0.21815  0.25407  0.48222  Biso   1.000  C
  C906     1.0000 0.46669  0.69763  0.25880  Biso   1.000  C
  C907     1.0000 0.20329  0.49373  0.75473  Biso   1.000  C
  C908     1.0000 0.77255  0.73885  0.00659  Biso   1.000  C
  C909     1.0000 0.49077  0.23161  0.29846  Biso   1.000  C
  C910     1.0000 0.73833  0.51861  0.80034  Biso   1.000  C
  C911     1.0000 0.26335  0.74592  0.51148  Biso   1.000  C
  C912     1.0000 0.95987  0.23814  0.22433  Biso   1.000  C
  C913     1.0000 0.75884  0.50221  0.75488  Biso   1.000  C
  C914     1.0000 0.71589  0.73945  0.54320  Biso   1.000  C
  C915     1.0000 0.48029  0.72675  0.78042  Biso   1.000  C
  C916     1.0000 0.25573  0.48669  0.76697  Biso   1.000  C
  C917     1.0000 0.22826  0.74915  0.00668  Biso   1.000  C
  C918     1.0000 0.99155  0.70597  0.75723  Biso   1.000  C
  C919     1.0000 0.72409  0.96853  0.75943  Biso   1.000  C
  C920     1.0000 0.76145  0.23942  0.50720  Biso   1.000  C
  C921     1.0000 0.01054  0.20989  0.76855  Biso   1.000  C
  C922     1.0000 0.22844  0.00097  0.77020  Biso   1.000  C
  C923     1.0000 0.25004  0.25127  0.00079  Biso   1.000  C
  C924     1.0000 0.50101  0.22640  0.75050  Biso   1.000  C
  C925     1.0000 0.23024  0.50704  0.27073  Biso   1.000  C
  C926     1.0000 0.26657  0.23418  0.49937  Biso   1.000  C
  C927     1.0000 0.50936  0.25062  0.25289  Biso   1.000  C
  C928     1.0000 0.72922  0.45444  0.25322  Biso   1.000  C
  C929     1.0000 0.74613  0.22491  0.00492  Biso   1.000  C
  C930     1.0000 0.97985  0.26466  0.26455  Biso   1.000  C
  C931     1.0000 0.25087  0.98734  0.26887  Biso   1.000  C
  C932     1.0000 0.21478  0.73264  0.52704  Biso   1.000  C
  C933     1.0000 0.98528  0.75945  0.25968  Biso   1.000  C
  C934     1.0000 0.75214  0.00454  0.25568  Biso   1.000  C
  C935     1.0000 0.71993  0.72922  0.00122  Biso   1.000  C
  C936     1.0000 0.48176  0.74694  0.27697  Biso   1.000  C
  C937     1.0000 0.72502  0.24969  0.00278  Biso   1.000  C
  C938     1.0000 0.98597  0.73745  0.28241  Biso   1.000  C
  C939     1.0000 0.25113  0.00324  0.74815  Biso   1.000  C
  C940     1.0000 0.24308  0.25681  0.49966  Biso   1.000  C
  C941     1.0000 0.48137  0.72388  0.25457  Biso   1.000  C
  C942     1.0000 0.74834  0.96649  0.78077  Biso   1.000  C
  C943     1.0000 0.74453  0.74800  0.99648  Biso   1.000  C
  C944     1.0000 0.50560  0.22592  0.27255  Biso   1.000  C
  C945     1.0000 0.23086  0.48382  0.74605  Biso   1.000  C
  C946     1.0000 0.23836  0.75280  0.52705  Biso   1.000  C
  C947     1.0000 0.98212  0.24195  0.24330  Biso   1.000  C
  C948     1.0000 0.73458  0.50199  0.77505  Biso   1.000  C
  C949     1.0000 0.24901  0.72464  0.00537  Biso   1.000  C
  C950     1.0000 0.01105  0.22899  0.74305  Biso   1.000  C
  C951     1.0000 0.73088  0.00184  0.27942  Biso   1.000  C
  C952     1.0000 0.73999  0.71969  0.54848  Biso   1.000  C
  C953     1.0000 0.50169  0.24936  0.77346  Biso   1.000  C
  C954     1.0000 0.22712  0.98942  0.24843  Biso   1.000  C
  C955     1.0000 0.22616  0.23089  0.00057  Biso   1.000  C
  C956     1.0000 0.48069  0.74929  0.75678  Biso   1.000  C
  C957     1.0000 0.75058  0.45311  0.27642  Biso   1.000  C
  C958     1.0000 0.73896  0.21731  0.50750  Biso   1.000  C
  C959     1.0000 0.99130  0.72833  0.78021  Biso   1.000  C
  C960     1.0000 0.25210  0.50810  0.24706  Biso   1.000  C
  Cu1      1.0000 0.99331  0.46822  0.66626  Biso   1.000  Cu
  Cu2      1.0000 0.64339  0.97707  0.51706  Biso   1.000  Cu
  Cu3      1.0000 0.48596  0.63796  0.02014  Biso   1.000  Cu
  Cu4      1.0000 0.49471  0.48964  0.85865  Biso   1.000  Cu
  Cu5      1.0000 0.14177  0.99217  0.00631  Biso   1.000  Cu
  Cu6      1.0000 0.97805  0.63345  0.51525  Biso   1.000  Cu
  Cu7      1.0000 0.48871  0.98248  0.66852  Biso   1.000  Cu
  Cu8      1.0000 0.83677  0.48253  0.51117  Biso   1.000  Cu
  Cu9      1.0000 0.98440  0.13696  0.00871  Biso   1.000  Cu
  Cu10     1.0000 0.98587  0.97029  0.85669  Biso   1.000  Cu
  Cu11     1.0000 0.34106  0.48711  0.00742  Biso   1.000  Cu
  Cu12     1.0000 0.49883  0.13936  0.50929  Biso   1.000  Cu
  Cu13     1.0000 0.98508  0.49610  0.35796  Biso   1.000  Cu
  Cu14     1.0000 0.33635  0.98804  0.50952  Biso   1.000  Cu
  Cu15     1.0000 0.48987  0.33472  0.01238  Biso   1.000  Cu
  Cu16     1.0000 0.49076  0.48739  0.16908  Biso   1.000  Cu
  Cu17     1.0000 0.83426  0.98491  0.01906  Biso   1.000  Cu
  Cu18     1.0000 0.99781  0.33249  0.51091  Biso   1.000  Cu
  Cu19     1.0000 0.48988  0.98888  0.35569  Biso   1.000  Cu
  Cu20     1.0000 0.14458  0.48970  0.51012  Biso   1.000  Cu
  Cu21     1.0000 0.98868  0.83301  0.01870  Biso   1.000  Cu
  Cu22     1.0000 0.99193  0.99729  0.16974  Biso   1.000  Cu
  Cu23     1.0000 0.64112  0.49014  0.01481  Biso   1.000  Cu
  Cu24     1.0000 0.47803  0.83679  0.52085  Biso   1.000  Cu
  Cu25     1.0000 0.19559  0.99041  0.00712  Biso   1.000  Cu
  Cu26     1.0000 0.98571  0.18971  0.00691  Biso   1.000  Cu
  Cu27     1.0000 0.99208  0.00124  0.22284  Biso   1.000  Cu
  Cu28     1.0000 0.69707  0.97707  0.51437  Biso   1.000  Cu
  Cu29     1.0000 0.49923  0.19300  0.51004  Biso   1.000  Cu
  Cu30     1.0000 0.49123  0.98661  0.30214  Biso   1.000  Cu
  Cu31     1.0000 0.28707  0.48555  0.00786  Biso   1.000  Cu
  Cu32     1.0000 0.48094  0.69134  0.02130  Biso   1.000  Cu
  Cu33     1.0000 0.48845  0.48504  0.22401  Biso   1.000  Cu
  Cu34     1.0000 0.78279  0.47950  0.51341  Biso   1.000  Cu
  Cu35     1.0000 0.97686  0.69064  0.52208  Biso   1.000  Cu
  Cu36     1.0000 0.98614  0.49555  0.30282  Biso   1.000  Cu
  Cu37     1.0000 0.78143  0.98548  0.02035  Biso   1.000  Cu
  Cu38     1.0000 0.98981  0.77759  0.02448  Biso   1.000  Cu
  Cu39     1.0000 0.98579  0.96650  0.80294  Biso   1.000  Cu
  Cu40     1.0000 0.28266  0.99372  0.51143  Biso   1.000  Cu
  Cu41     1.0000 0.47842  0.78255  0.51379  Biso   1.000  Cu
  Cu42     1.0000 0.48885  0.98745  0.72190  Biso   1.000  Cu
  Cu43     1.0000 0.69561  0.48825  0.01617  Biso   1.000  Cu
  Cu44     1.0000 0.49200  0.28183  0.01118  Biso   1.000  Cu
  Cu45     1.0000 0.49529  0.49009  0.80537  Biso   1.000  Cu
  Cu46     1.0000 0.19916  0.49077  0.50795  Biso   1.000  Cu
  Cu47     1.0000 0.99704  0.27696  0.50455  Biso   1.000  Cu
  Cu48     1.0000 0.99254  0.46902  0.72249  Biso   1.000  Cu
  H1       1.0000 0.21039  0.78362  0.54856  Biso   1.000  H
  H2       1.0000 0.53701  0.27453  0.75244  Biso   1.000  H
  H3       1.0000 0.71953  0.47284  0.30564  Biso   1.000  H
  H4       1.0000 0.71769  0.78437  0.98470  Biso   1.000  H
  H5       1.0000 0.99169  0.19950  0.71152  Biso   1.000  H
  H6       1.0000 0.28018  0.53561  0.27368  Biso   1.000  H
  H7       1.0000 0.26253  0.28179  0.53565  Biso   1.000  H
  H8       1.0000 0.95968  0.75423  0.75969  Biso   1.000  H
  H9       1.0000 0.70175  0.02940  0.25900  Biso   1.000  H
  H10      1.0000 0.74791  0.27497  0.03798  Biso   1.000  H
  H11      1.0000 0.46299  0.78748  0.78436  Biso   1.000  H
  H12      1.0000 0.25578  0.01394  0.21906  Biso   1.000  H
  H13      1.0000 0.71090  0.23920  0.47894  Biso   1.000  H
  H14      1.0000 0.51563  0.74286  0.22855  Biso   1.000  H
  H15      1.0000 0.26201  0.46778  0.71252  Biso   1.000  H
  H16      1.0000 0.25100  0.19535  0.02182  Biso   1.000  H
  H17      1.0000 0.01938  0.75743  0.31201  Biso   1.000  H
  H18      1.0000 0.71409  0.46882  0.74933  Biso   1.000  H
  H19      1.0000 0.76553  0.74529  0.51882  Biso   1.000  H
  H20      1.0000 0.02389  0.22604  0.25968  Biso   1.000  H
  H21      1.0000 0.22999  0.03812  0.73154  Biso   1.000  H
  H22      1.0000 0.22120  0.69633  0.03304  Biso   1.000  H
  H23      1.0000 0.53565  0.20086  0.24836  Biso   1.000  H
  H24      1.0000 0.77002  0.92571  0.76230  Biso   1.000  H
  H25      1.0000 0.24316  0.03576  0.79088  Biso   1.000  H
  H26      1.0000 0.77911  0.24850  0.02985  Biso   1.000  H
  H27      1.0000 0.95902  0.73438  0.22852  Biso   1.000  H
  H28      1.0000 0.74773  0.94096  0.72847  Biso   1.000  H
  H29      1.0000 0.24140  0.20684  0.47204  Biso   1.000  H
  H30      1.0000 0.50847  0.77493  0.25058  Biso   1.000  H
  H31      1.0000 0.28009  0.52119  0.74582  Biso   1.000  H
  H32      1.0000 0.73330  0.71275  0.04383  Biso   1.000  H
  H33      1.0000 0.47118  0.27935  0.27209  Biso   1.000  H
  H34      1.0000 0.73786  0.53570  0.73316  Biso   1.000  H
  H35      1.0000 0.18103  0.75936  0.50603  Biso   1.000  H
  H36      1.0000 0.94727  0.23976  0.28923  Biso   1.000  H
  H37      1.0000 0.72977  0.97538  0.22977  Biso   1.000  H
  H38      1.0000 0.24984  0.77266  0.97099  Biso   1.000  H
  H39      1.0000 0.98126  0.23640  0.79430  Biso   1.000  H
  H40      1.0000 0.28040  0.96369  0.24013  Biso   1.000  H
  H41      1.0000 0.73800  0.77319  0.56567  Biso   1.000  H
  H42      1.0000 0.45843  0.20390  0.76583  Biso   1.000  H
  H43      1.0000 0.70277  0.42576  0.27657  Biso   1.000  H
  H44      1.0000 0.22790  0.27717  0.97202  Biso   1.000  H
  H45      1.0000 0.51398  0.69997  0.75954  Biso   1.000  H
  H46      1.0000 0.25234  0.47636  0.29569  Biso   1.000  H
  H47      1.0000 0.73389  0.26283  0.53818  Biso   1.000  H
  H48      1.0000 0.03445  0.69443  0.76563  Biso   1.000  H
  H49      1.0000 0.20307  0.53428  0.24580  Biso   1.000  H
  H50      1.0000 0.29829  0.25674  0.52725  Biso   1.000  H
  H51      1.0000 0.54746  0.23393  0.22424  Biso   1.000  H
  H52      1.0000 0.75175  0.48644  0.23202  Biso   1.000  H
  H53      1.0000 0.72157  0.19868  0.97704  Biso   1.000  H
  H54      1.0000 0.01633  0.29275  0.24673  Biso   1.000  H
  H55      1.0000 0.22610  0.01093  0.30019  Biso   1.000  H
  H56      1.0000 0.24170  0.69973  0.54666  Biso   1.000  H
  H57      1.0000 0.00964  0.79214  0.28639  Biso   1.000  H
  H58      1.0000 0.77812  0.03008  0.28409  Biso   1.000  H
  H59      1.0000 0.69572  0.74789  0.96358  Biso   1.000  H
  H60      1.0000 0.45728  0.72192  0.30791  Biso   1.000  H
  H61      1.0000 0.78042  0.47000  0.77689  Biso   1.000  H
  H62      1.0000 0.68897  0.71280  0.51486  Biso   1.000  H
  H63      1.0000 0.44912  0.75044  0.80770  Biso   1.000  H
  H64      1.0000 0.23223  0.46220  0.79692  Biso   1.000  H
  H65      1.0000 0.19854  0.73175  0.04286  Biso   1.000  H
  H66      1.0000 0.94715  0.71320  0.74516  Biso   1.000  H
  H67      1.0000 0.69526  0.99418  0.78802  Biso   1.000  H
  H68      1.0000 0.79002  0.21961  0.47470  Biso   1.000  H
  H69      1.0000 0.04111  0.17623  0.74850  Biso   1.000  H
  H70      1.0000 0.21040  0.96310  0.74761  Biso   1.000  H
  H71      1.0000 0.27412  0.22623  0.02954  Biso   1.000  H
  H72      1.0000 0.53228  0.24650  0.72100  Biso   1.000  H
  H73      1.0000 0.75617  0.53402  0.80121  Biso   1.000  H
  H74      1.0000 0.71468  0.68851  0.57103  Biso   1.000  H
  H75      1.0000 0.49905  0.71774  0.72500  Biso   1.000  H
  H76      1.0000 0.19649  0.49955  0.77688  Biso   1.000  H
  H77      1.0000 0.27882  0.74545  0.98114  Biso   1.000  H
  H78      1.0000 0.02321  0.70645  0.80684  Biso   1.000  H
  H79      1.0000 0.73553  0.00585  0.80208  Biso   1.000  H
  H80      1.0000 0.76630  0.19420  0.53541  Biso   1.000  H
  H81      1.0000 0.03147  0.26291  0.76930  Biso   1.000  H
  H82      1.0000 0.27662  0.96722  0.76674  Biso   1.000  H
  H83      1.0000 0.19691  0.25723  0.97746  Biso   1.000  H
  H84      1.0000 0.47123  0.22625  0.80011  Biso   1.000  H
  H85      1.0000 0.22546  0.48038  0.22012  Biso   1.000  H
  H86      1.0000 0.21452  0.23749  0.46456  Biso   1.000  H
  H87      1.0000 0.47907  0.25201  0.30119  Biso   1.000  H
  H88      1.0000 0.78185  0.43016  0.25122  Biso   1.000  H
  H89      1.0000 0.70292  0.23569  0.96548  Biso   1.000  H
  H90      1.0000 0.94099  0.25177  0.22358  Biso   1.000  H
  H91      1.0000 0.19295  0.96490  0.27235  Biso   1.000  H
  H92      1.0000 0.26620  0.72365  0.50278  Biso   1.000  H
  H93      1.0000 0.95944  0.70762  0.25939  Biso   1.000  H
  H94      1.0000 0.75920  0.97186  0.30171  Biso   1.000  H
  H95      1.0000 0.77507  0.71656  0.01203  Biso   1.000  H
  H96      1.0000 0.45244  0.69421  0.27632  Biso   1.000  H
  H97      1.0000 0.85377  0.98801  0.92258  Biso   1.000  H
  H98      1.0000 0.89751  0.84794  0.02572  Biso   1.000  H
  H99      1.0000 0.97779  0.87876  0.88166  Biso   1.000  H
  H100     1.0000 0.36045  0.99133  0.60065  Biso   1.000  H
  H101     1.0000 0.38644  0.85944  0.51128  Biso   1.000  H
  H102     1.0000 0.48355  0.89341  0.64918  Biso   1.000  H
  H103     1.0000 0.62267  0.49160  0.92031  Biso   1.000  H
  H104     1.0000 0.58137  0.35735  0.00960  Biso   1.000  H
  H105     1.0000 0.49663  0.39866  0.87700  Biso   1.000  H
  H106     1.0000 0.12469  0.47897  0.60105  Biso   1.000  H
  H107     1.0000 0.08986  0.35207  0.49733  Biso   1.000  H
  H108     1.0000 0.99101  0.37740  0.64638  Biso   1.000  H
  H109     1.0000 0.11775  0.99274  0.10068  Biso   1.000  H
  H110     1.0000 0.08047  0.11959  0.01235  Biso   1.000  H
  H111     1.0000 0.98577  0.08612  0.14318  Biso   1.000  H
  H112     1.0000 0.62064  0.97444  0.42088  Biso   1.000  H
  H113     1.0000 0.58771  0.11775  0.51371  Biso   1.000  H
  H114     1.0000 0.51265  0.08077  0.37130  Biso   1.000  H
  H115     1.0000 0.36414  0.48336  0.10036  Biso   1.000  H
  H116     1.0000 0.39141  0.61699  0.03663  Biso   1.000  H
  H117     1.0000 0.49621  0.57335  0.15443  Biso   1.000  H
  H118     1.0000 0.85459  0.48856  0.42107  Biso   1.000  H
  H119     1.0000 0.88656  0.61398  0.52221  Biso   1.000  H
  H120     1.0000 0.98554  0.58373  0.38119  Biso   1.000  H
  H121     1.0000 0.07920  0.97069  0.87621  Biso   1.000  H
  H122     1.0000 0.85161  0.07586  0.00639  Biso   1.000  H
  H123     1.0000 0.98769  0.86531  0.11236  Biso   1.000  H
  H124     1.0000 0.57995  0.98816  0.64911  Biso   1.000  H
  H125     1.0000 0.36013  0.07884  0.51051  Biso   1.000  H
  H126     1.0000 0.48245  0.85995  0.42041  Biso   1.000  H
  H127     1.0000 0.40048  0.48476  0.87604  Biso   1.000  H
  H128     1.0000 0.62040  0.57758  0.01282  Biso   1.000  H
  H129     1.0000 0.49349  0.35318  0.10100  Biso   1.000  H
  H130     1.0000 0.90065  0.46978  0.64789  Biso   1.000  H
  H131     1.0000 0.11750  0.57960  0.51137  Biso   1.000  H
  H132     1.0000 0.98250  0.36334  0.41948  Biso   1.000  H
  H133     1.0000 0.90157  0.00246  0.15180  Biso   1.000  H
  H134     1.0000 0.12054  0.89783  0.02026  Biso   1.000  H
  H135     1.0000 0.99804  0.10909  0.91709  Biso   1.000  H
  H136     1.0000 0.39952  0.98481  0.37182  Biso   1.000  H
  H137     1.0000 0.61872  0.89078  0.51041  Biso   1.000  H
  H138     1.0000 0.49096  0.12044  0.60147  Biso   1.000  H
  H139     1.0000 0.57916  0.47882  0.15291  Biso   1.000  H
  H140     1.0000 0.35976  0.39764  0.00333  Biso   1.000  H
  H141     1.0000 0.48582  0.61954  0.92507  Biso   1.000  H
  H142     1.0000 0.08047  0.49511  0.37969  Biso   1.000  H
  H143     1.0000 0.86194  0.38840  0.51126  Biso   1.000  H
  H144     1.0000 0.97951  0.60747  0.60458  Biso   1.000  H
  H145     1.0000 0.58600  0.48863  0.87582  Biso   1.000  H
  H146     1.0000 0.84893  0.57651  0.51456  Biso   1.000  H
  H147     1.0000 0.46423  0.84628  0.60942  Biso   1.000  H
  H148     1.0000 0.08324  0.47666  0.64632  Biso   1.000  H
  H149     1.0000 0.35358  0.57594  0.02729  Biso   1.000  H
  H150     1.0000 0.98834  0.84184  0.92861  Biso   1.000  H
  H151     1.0000 0.89450  0.97231  0.88476  Biso   1.000  H
  H152     1.0000 0.62913  0.07022  0.50502  Biso   1.000  H
  H153     1.0000 0.98711  0.34329  0.60049  Biso   1.000  H
  H154     1.0000 0.39863  0.98435  0.64546  Biso   1.000  H
  H155     1.0000 0.12182  0.08215  0.00605  Biso   1.000  H
  H156     1.0000 0.48123  0.35723  0.91895  Biso   1.000  H
  H157     1.0000 0.40231  0.48486  0.14851  Biso   1.000  H
  H158     1.0000 0.13054  0.39876  0.50238  Biso   1.000  H
  H159     1.0000 0.50969  0.11902  0.41813  Biso   1.000  H
  H160     1.0000 0.89148  0.49892  0.37796  Biso   1.000  H
  H161     1.0000 0.62289  0.40254  0.01469  Biso   1.000  H
  H162     1.0000 0.98307  0.12483  0.10091  Biso   1.000  H
  H163     1.0000 0.07922  0.99496  0.14687  Biso   1.000  H
  H164     1.0000 0.34680  0.89833  0.51053  Biso   1.000  H
  H165     1.0000 0.98175  0.62185  0.42646  Biso   1.000  H
  H166     1.0000 0.57948  0.96941  0.37508  Biso   1.000  H
  H167     1.0000 0.85490  0.89231  0.02619  Biso   1.000  H
  H168     1.0000 0.50118  0.61616  0.11190  Biso   1.000  H
  H169     1.0000 0.99869  0.06413  0.87577  Biso   1.000  H
  H170     1.0000 0.85844  0.99912  0.10840  Biso   1.000  H
  H171     1.0000 0.07749  0.85193  0.02352  Biso   1.000  H
  H172     1.0000 0.49306  0.07899  0.64309  Biso   1.000  H
  H173     1.0000 0.35751  0.97820  0.41502  Biso   1.000  H
  H174     1.0000 0.57512  0.85412  0.51448  Biso   1.000  H
  H175     1.0000 0.49034  0.57822  0.87962  Biso   1.000  H
  H176     1.0000 0.61805  0.47260  0.11216  Biso   1.000  H
  H177     1.0000 0.40162  0.35171  0.01254  Biso   1.000  H
  H178     1.0000 0.99459  0.56143  0.64664  Biso   1.000  H
  H179     1.0000 0.12443  0.50118  0.42293  Biso   1.000  H
  H180     1.0000 0.90204  0.34674  0.50417  Biso   1.000  H
  H181     1.0000 0.98249  0.90523  0.15248  Biso   1.000  H
  H182     1.0000 0.12201  0.98862  0.92002  Biso   1.000  H
  H183     1.0000 0.89446  0.11808  0.00880  Biso   1.000  H
  H184     1.0000 0.48290  0.90086  0.38113  Biso   1.000  H
  H185     1.0000 0.62767  0.99002  0.60437  Biso   1.000  H
  H186     1.0000 0.40663  0.12102  0.50903  Biso   1.000  H
  H187     1.0000 0.48350  0.39719  0.14660  Biso   1.000  H
  H188     1.0000 0.36201  0.48926  0.91571  Biso   1.000  H
  H189     1.0000 0.57564  0.62250  0.01369  Biso   1.000  H
  H190     1.0000 0.98996  0.40539  0.37885  Biso   1.000  H
  H191     1.0000 0.85982  0.48054  0.60449  Biso   1.000  H
  H192     1.0000 0.07531  0.61701  0.52612  Biso   1.000  H
  H193     1.0000 0.24921  0.84715  0.52232  Biso   1.000  H
  H194     1.0000 0.49784  0.26025  0.86898  Biso   1.000  H
  H195     1.0000 0.84160  0.48536  0.28216  Biso   1.000  H
  H196     1.0000 0.75842  0.84401  0.01653  Biso   1.000  H
  H197     1.0000 0.00709  0.24263  0.63993  Biso   1.000  H
  H198     1.0000 0.34174  0.49913  0.23996  Biso   1.000  H
  H199     1.0000 0.22787  0.35015  0.51951  Biso   1.000  H
  H200     1.0000 0.98151  0.74174  0.88111  Biso   1.000  H
  H201     1.0000 0.64059  0.98367  0.28193  Biso   1.000  H
  H202     1.0000 0.72121  0.34661  0.01140  Biso   1.000  H
  H203     1.0000 0.46373  0.75278  0.66173  Biso   1.000  H
  H204     1.0000 0.13523  0.01142  0.24202  Biso   1.000  H
  H205     1.0000 0.72730  0.11931  0.50948  Biso   1.000  H
  H206     1.0000 0.47906  0.70962  0.16629  Biso   1.000  H
  H207     1.0000 0.14271  0.46662  0.73782  Biso   1.000  H
  H208     1.0000 0.21819  0.13547  0.99249  Biso   1.000  H
  H209     1.0000 0.98629  0.72028  0.37963  Biso   1.000  H
  H210     1.0000 0.64289  0.49795  0.78158  Biso   1.000  H
  H211     1.0000 0.74987  0.62138  0.53470  Biso   1.000  H
  H212     1.0000 0.97495  0.22720  0.14982  Biso   1.000  H
  H213     1.0000 0.34277  0.00385  0.73967  Biso   1.000  H
  H214     1.0000 0.26454  0.62687  0.99088  Biso   1.000  H
  H215     1.0000 0.51560  0.21482  0.36441  Biso   1.000  H
  H216     1.0000 0.84585  0.95192  0.78545  Biso   1.000  H
  H217     1.0000 0.21736  0.50703  0.36415  Biso   1.000  H
  H218     1.0000 0.35811  0.21613  0.48883  Biso   1.000  H
  H219     1.0000 0.49545  0.34297  0.24180  Biso   1.000  H
  H220     1.0000 0.71567  0.45837  0.15811  Biso   1.000  H
  H221     1.0000 0.83851  0.21192  0.99489  Biso   1.000  H
  H222     1.0000 0.97138  0.35507  0.27984  Biso   1.000  H
  H223     1.0000 0.26094  0.97356  0.36192  Biso   1.000  H
  H224     1.0000 0.11873  0.71703  0.53821  Biso   1.000  H
  H225     1.0000 0.97935  0.85560  0.25026  Biso   1.000  H
  H226     1.0000 0.76239  0.01108  0.16000  Biso   1.000  H
  H227     1.0000 0.62766  0.71642  0.99757  Biso   1.000  H
  H228     1.0000 0.47315  0.84541  0.28633  Biso   1.000  H
  H229     1.0000 0.76358  0.50400  0.65700  Biso   1.000  H
  H230     1.0000 0.61943  0.75336  0.53966  Biso   1.000  H
  H231     1.0000 0.46998  0.63307  0.79080  Biso   1.000  H
  H232     1.0000 0.26488  0.50210  0.86517  Biso   1.000  H
  H233     1.0000 0.13645  0.75996  0.01559  Biso   1.000  H
  H234     1.0000 0.00091  0.61801  0.74367  Biso   1.000  H
  H235     1.0000 0.72094  0.97668  0.65998  Biso   1.000  H
  H236     1.0000 0.85221  0.24944  0.51482  Biso   1.000  H
  H237     1.0000 0.99784  0.11306  0.77960  Biso   1.000  H
  H238     1.0000 0.21496  0.00595  0.86117  Biso   1.000  H
  H239     1.0000 0.34824  0.25595  0.00910  Biso   1.000  H
  H240     1.0000 0.49784  0.12777  0.74170  Biso   1.000  H
  H241     1.0000 0.72160  0.49799  0.87052  Biso   1.000  H
  H242     1.0000 0.83923  0.71131  0.54650  Biso   1.000  H
  H243     1.0000 0.49870  0.83883  0.74355  Biso   1.000  H
  H244     1.0000 0.21871  0.50679  0.65443  Biso   1.000  H
  H245     1.0000 0.33841  0.71495  0.02322  Biso   1.000  H
  H246     1.0000 0.98438  0.81941  0.78810  Biso   1.000  H
  H247     1.0000 0.75734  0.96998  0.87485  Biso   1.000  H
  H248     1.0000 0.64659  0.20698  0.52245  Biso   1.000  H
  H249     1.0000 0.99021  0.32089  0.73996  Biso   1.000  H
  H250     1.0000 0.26219  0.00998  0.65587  Biso   1.000  H
  H251     1.0000 0.12965  0.21879  0.00985  Biso   1.000  H
  H252     1.0000 0.51281  0.34526  0.78108  Biso   1.000  H
  H253     1.0000 0.26439  0.50414  0.15034  Biso   1.000  H
  H254     1.0000 0.14679  0.26037  0.50398  Biso   1.000  H
  H255     1.0000 0.49412  0.13331  0.27954  Biso   1.000  H
  H256     1.0000 0.76451  0.44862  0.36832  Biso   1.000  H
  H257     1.0000 0.63717  0.26193  0.01372  Biso   1.000  H
  H258     1.0000 0.98652  0.14562  0.23791  Biso   1.000  H
  H259     1.0000 0.21841  0.00262  0.14688  Biso   1.000  H
  H260     1.0000 0.33408  0.76325  0.52004  Biso   1.000  H
  H261     1.0000 0.99496  0.64301  0.28843  Biso   1.000  H
  H262     1.0000 0.71664  0.99218  0.37194  Biso   1.000  H
  H263     1.0000 0.84494  0.75830  0.99202  Biso   1.000  H
  H264     1.0000 0.48861  0.62930  0.25017  Biso   1.000  H
  H265     1.0000 0.00511  0.20110  0.86247  Biso   1.000  H
  H266     1.0000 0.84887  0.00456  0.24870  Biso   1.000  H
  H267     1.0000 0.21707  0.84808  0.99291  Biso   1.000  H
  H268     1.0000 0.49457  0.21459  0.65715  Biso   1.000  H
  H269     1.0000 0.34332  0.98958  0.27870  Biso   1.000  H
  H270     1.0000 0.71044  0.82697  0.50846  Biso   1.000  H
  H271     1.0000 0.47319  0.71443  0.87917  Biso   1.000  H
  H272     1.0000 0.63001  0.46866  0.24666  Biso   1.000  H
  H273     1.0000 0.26401  0.34499  0.99635  Biso   1.000  H
  H274     1.0000 0.98034  0.69868  0.66737  Biso   1.000  H
  H275     1.0000 0.12783  0.50457  0.28018  Biso   1.000  H
  H276     1.0000 0.76861  0.33683  0.51143  Biso   1.000  H
  H277     1.0000 0.00518  0.77330  0.16777  Biso   1.000  H
  H278     1.0000 0.13104  0.97148  0.77837  Biso   1.000  H
  H279     1.0000 0.75634  0.13150  0.01771  Biso   1.000  H
  H280     1.0000 0.48581  0.75910  0.37199  Biso   1.000  H
  H281     1.0000 0.62895  0.97515  0.74674  Biso   1.000  H
  H282     1.0000 0.26867  0.13929  0.50746  Biso   1.000  H
  H283     1.0000 0.50642  0.25928  0.15501  Biso   1.000  H
  H284     1.0000 0.35526  0.48986  0.77432  Biso   1.000  H
  H285     1.0000 0.71281  0.63605  0.01057  Biso   1.000  H
  H286     1.0000 0.97791  0.26887  0.35815  Biso   1.000  H
  H287     1.0000 0.85339  0.49787  0.74588  Biso   1.000  H
  H288     1.0000 0.21065  0.63794  0.51398  Biso   1.000  H
  H289     1.0000 0.07231  0.21510  0.01981  Biso   1.000  H
  H290     1.0000 0.99241  0.09259  0.23939  Biso   1.000  H
  H291     1.0000 0.21390  0.00294  0.09487  Biso   1.000  H
  H292     1.0000 0.59299  0.21103  0.51812  Biso   1.000  H
  H293     1.0000 0.49028  0.07785  0.28016  Biso   1.000  H
  H294     1.0000 0.71558  0.98522  0.42796  Biso   1.000  H
  H295     1.0000 0.39231  0.71333  0.03649  Biso   1.000  H
  H296     1.0000 0.49603  0.57443  0.25356  Biso   1.000  H
  H297     1.0000 0.26736  0.49678  0.09694  Biso   1.000  H
  H298     1.0000 0.88896  0.70937  0.53816  Biso   1.000  H
  H299     1.0000 0.98513  0.58754  0.28447  Biso   1.000  H
  H300     1.0000 0.76688  0.45121  0.42725  Biso   1.000  H
  H301     1.0000 0.90145  0.75742  0.00160  Biso   1.000  H
  H302     1.0000 0.98326  0.87287  0.78453  Biso   1.000  H
  H303     1.0000 0.76054  0.97274  0.92756  Biso   1.000  H
  H304     1.0000 0.38682  0.76538  0.52123  Biso   1.000  H
  H305     1.0000 0.49514  0.89315  0.74543  Biso   1.000  H
  H306     1.0000 0.26608  0.00610  0.59883  Biso   1.000  H
  H307     1.0000 0.58069  0.26335  0.01389  Biso   1.000  H
  H308     1.0000 0.51085  0.40055  0.78280  Biso   1.000  H
  H309     1.0000 0.71798  0.49496  0.92506  Biso   1.000  H
  H310     1.0000 0.09244  0.25720  0.49839  Biso   1.000  H
  H311     1.0000 0.99309  0.37545  0.74269  Biso   1.000  H
  H312     1.0000 0.21428  0.51275  0.59981  Biso   1.000  H
  H313     1.0000 0.21409  0.01372  0.91403  Biso   1.000  H
  H314     1.0000 0.89739  0.21248  0.99461  Biso   1.000  H
  H315     1.0000 0.97554  0.90975  0.25025  Biso   1.000  H
  H316     1.0000 0.72064  0.98253  0.60411  Biso   1.000  H
  H317     1.0000 0.41465  0.21321  0.48903  Biso   1.000  H
  H318     1.0000 0.47553  0.89821  0.28728  Biso   1.000  H
  H319     1.0000 0.26589  0.50030  0.91995  Biso   1.000  H
  H320     1.0000 0.57068  0.71703  0.99485  Biso   1.000  H
  H321     1.0000 0.48492  0.39419  0.24412  Biso   1.000  H
  H322     1.0000 0.76424  0.49478  0.60527  Biso   1.000  H
  H323     1.0000 0.06466  0.71103  0.54293  Biso   1.000  H
  H324     1.0000 0.96794  0.40852  0.28442  Biso   1.000  H
  H325     1.0000 0.76398  0.00367  0.10927  Biso   1.000  H
  H326     1.0000 0.08023  0.75909  0.01754  Biso   1.000  H
  H327     1.0000 0.99498  0.05807  0.77799  Biso   1.000  H
  H328     1.0000 0.26154  0.97532  0.41556  Biso   1.000  H
  H329     1.0000 0.56590  0.76408  0.54117  Biso   1.000  H
  H330     1.0000 0.49734  0.07572  0.73902  Biso   1.000  H
  H331     1.0000 0.71227  0.46964  0.10638  Biso   1.000  H
  H332     1.0000 0.40391  0.25488  0.01232  Biso   1.000  H
  H333     1.0000 0.47903  0.58023  0.78648  Biso   1.000  H
  H334     1.0000 0.21943  0.50567  0.42025  Biso   1.000  H
  H335     1.0000 0.91091  0.25208  0.51296  Biso   1.000  H
  H336     1.0000 0.99894  0.56048  0.74401  Biso   1.000  H
  H337     1.0000 0.99740  0.20476  0.91510  Biso   1.000  H
  H338     1.0000 0.90432  0.00339  0.24844  Biso   1.000  H
  H339     1.0000 0.21183  0.90179  0.99212  Biso   1.000  H
  H340     1.0000 0.49475  0.21430  0.60394  Biso   1.000  H
  H341     1.0000 0.39765  0.98967  0.27543  Biso   1.000  H
  H342     1.0000 0.71468  0.88182  0.50607  Biso   1.000  H
  H343     1.0000 0.47235  0.71291  0.93482  Biso   1.000  H
  H344     1.0000 0.57600  0.46605  0.24746  Biso   1.000  H
  H345     1.0000 0.26660  0.39815  0.99993  Biso   1.000  H
  H346     1.0000 0.96904  0.70128  0.61259  Biso   1.000  H
  H347     1.0000 0.07669  0.50414  0.28335  Biso   1.000  H
  H348     1.0000 0.76567  0.39049  0.51776  Biso   1.000  H
  H349     1.0000 0.99894  0.76997  0.11278  Biso   1.000  H
  H350     1.0000 0.07913  0.96592  0.77999  Biso   1.000  H
  H351     1.0000 0.75737  0.07694  0.02359  Biso   1.000  H
  H352     1.0000 0.48975  0.76301  0.42272  Biso   1.000  H
  H353     1.0000 0.57857  0.97652  0.74566  Biso   1.000  H
  H354     1.0000 0.26664  0.08638  0.51361  Biso   1.000  H
  H355     1.0000 0.50086  0.26055  0.10002  Biso   1.000  H
  H356     1.0000 0.41050  0.48249  0.77972  Biso   1.000  H
  H357     1.0000 0.71553  0.58106  0.00530  Biso   1.000  H
  H358     1.0000 0.98465  0.26543  0.41419  Biso   1.000  H
  H359     1.0000 0.90736  0.48746  0.74236  Biso   1.000  H
  H360     1.0000 0.21417  0.58487  0.50766  Biso   1.000  H
  H361     1.0000 0.98599  0.71613  0.43624  Biso   1.000  H
  H362     1.0000 0.39569  0.98559  0.74316  Biso   1.000  H
  H363     1.0000 0.72051  0.40299  0.01321  Biso   1.000  H
  H364     1.0000 0.48130  0.71028  0.11179  Biso   1.000  H
  H365     1.0000 0.89745  0.95485  0.78875  Biso   1.000  H
  H366     1.0000 0.22395  0.40041  0.52162  Biso   1.000  H
  H367     1.0000 0.51512  0.21347  0.42052  Biso   1.000  H
  H368     1.0000 0.08762  0.45479  0.73956  Biso   1.000  H
  H369     1.0000 0.76217  0.90033  0.02144  Biso   1.000  H
  H370     1.0000 0.96826  0.22092  0.09350  Biso   1.000  H
  H371     1.0000 0.58703  0.50168  0.78122  Biso   1.000  H
  H372     1.0000 0.25192  0.90242  0.52254  Biso   1.000  H
  H373     1.0000 0.99654  0.24570  0.59306  Biso   1.000  H
  H374     1.0000 0.58582  0.99031  0.28059  Biso   1.000  H
  H375     1.0000 0.26446  0.57162  0.99626  Biso   1.000  H
  H376     1.0000 0.48138  0.26506  0.92142  Biso   1.000  H
  H377     1.0000 0.07981  0.01105  0.24107  Biso   1.000  H
  H378     1.0000 0.75455  0.56714  0.53034  Biso   1.000  H
  H379     1.0000 0.46207  0.75578  0.60561  Biso   1.000  H
  H380     1.0000 0.89294  0.50269  0.28287  Biso   1.000  H
  H381     1.0000 0.21953  0.08171  0.99477  Biso   1.000  H
  H382     1.0000 0.98011  0.74672  0.93550  Biso   1.000  H
  H383     1.0000 0.39866  0.50040  0.24315  Biso   1.000  H
  H384     1.0000 0.72405  0.06587  0.51286  Biso   1.000  H
  H385     1.0000 0.21254  0.47206  0.33476  Biso   1.000  H
  H386     1.0000 0.27869  0.16913  0.46617  Biso   1.000  H
  H387     1.0000 0.46667  0.30694  0.23378  Biso   1.000  H
  H388     1.0000 0.66168  0.43038  0.24375  Biso   1.000  H
  H389     1.0000 0.81206  0.21141  0.03414  Biso   1.000  H
  H390     1.0000 0.94490  0.27459  0.32944  Biso   1.000  H
  H391     1.0000 0.31561  0.95611  0.27473  Biso   1.000  H
  H392     1.0000 0.14736  0.72274  0.50386  Biso   1.000  H
  H393     1.0000 0.96462  0.76988  0.19075  Biso   1.000  H
  H394     1.0000 0.77003  0.97826  0.18832  Biso   1.000  H
  H395     1.0000 0.70073  0.67386  0.04237  Biso   1.000  H
  H396     1.0000 0.50582  0.81520  0.28146  Biso   1.000  H
  H397     1.0000 0.77569  0.53637  0.69122  Biso   1.000  H
  H398     1.0000 0.70236  0.81139  0.55541  Biso   1.000  H
  H399     1.0000 0.51216  0.66192  0.79678  Biso   1.000  H
  H400     1.0000 0.32251  0.51650  0.77519  Biso   1.000  H
  H401     1.0000 0.21201  0.80974  0.97069  Biso   1.000  H
  H402     1.0000 0.03672  0.65392  0.72675  Biso   1.000  H
  H403     1.0000 0.71346  0.94269  0.69124  Biso   1.000  H
  H404     1.0000 0.76720  0.30304  0.54384  Biso   1.000  H
  H405     1.0000 0.97292  0.20324  0.83293  Biso   1.000  H
  H406     1.0000 0.20036  0.03798  0.82933  Biso   1.000  H
  H407     1.0000 0.26623  0.31365  0.96769  Biso   1.000  H
  H408     1.0000 0.46258  0.16603  0.73069  Biso   1.000  H
  H409     1.0000 0.26158  0.47139  0.18522  Biso   1.000  H
  H410     1.0000 0.17613  0.26713  0.47326  Biso   1.000  H
  H411     1.0000 0.47850  0.21162  0.33931  Biso   1.000  H
  H412     1.0000 0.82189  0.44699  0.28499  Biso   1.000  H
  H413     1.0000 0.66360  0.27089  0.96944  Biso   1.000  H
  H414     1.0000 0.94386  0.21311  0.18895  Biso   1.000  H
  H415     1.0000 0.15710  0.97093  0.23866  Biso   1.000  H
  H416     1.0000 0.30230  0.76253  0.49359  Biso   1.000  H
  H417     1.0000 0.95999  0.66859  0.29846  Biso   1.000  H
  H418     1.0000 0.72314  0.96124  0.33767  Biso   1.000  H
  H419     1.0000 0.81394  0.74842  0.01601  Biso   1.000  H
  H420     1.0000 0.45292  0.65689  0.24220  Biso   1.000  H
  H421     1.0000 0.71777  0.53212  0.84000  Biso   1.000  H
  H422     1.0000 0.75430  0.65449  0.57238  Biso   1.000  H
  H423     1.0000 0.50215  0.75477  0.68497  Biso   1.000  H
  H424     1.0000 0.16177  0.50848  0.73967  Biso   1.000  H
  H425     1.0000 0.31723  0.70615  0.98183  Biso   1.000  H
  H426     1.0000 0.02635  0.74588  0.84230  Biso   1.000  H
  H427     1.0000 0.77143  0.00576  0.84110  Biso   1.000  H
  H428     1.0000 0.72934  0.15444  0.54466  Biso   1.000  H
  H429     1.0000 0.03034  0.29753  0.73299  Biso   1.000  H
  H430     1.0000 0.31456  0.96978  0.73189  Biso   1.000  H
  H431     1.0000 0.15507  0.22574  0.97782  Biso   1.000  H
  H432     1.0000 0.46980  0.26469  0.83733  Biso   1.000  H
  H433     1.0000 0.26842  0.04224  0.68828  Biso   1.000  H
  H434     1.0000 0.71247  0.31174  0.04209  Biso   1.000  H
  H435     1.0000 0.02045  0.72050  0.34660  Biso   1.000  H
  H436     1.0000 0.80934  0.93008  0.79779  Biso   1.000  H
  H437     1.0000 0.21953  0.31105  0.54671  Biso   1.000  H
  H438     1.0000 0.52214  0.70252  0.19540  Biso   1.000  H
  H439     1.0000 0.22658  0.46686  0.67573  Biso   1.000  H
  H440     1.0000 0.75805  0.81921  0.98060  Biso   1.000  H
  H441     1.0000 0.54249  0.16294  0.28587  Biso   1.000  H
  H442     1.0000 0.67475  0.46282  0.78919  Biso   1.000  H
  H443     1.0000 0.25214  0.81909  0.55480  Biso   1.000  H
  H444     1.0000 0.02766  0.18607  0.22395  Biso   1.000  H
  H445     1.0000 0.66217  0.02084  0.29544  Biso   1.000  H
  H446     1.0000 0.25308  0.65533  0.03125  Biso   1.000  H
  H447     1.0000 0.98502  0.23721  0.67569  Biso   1.000  H
  H448     1.0000 0.22351  0.01821  0.18217  Biso   1.000  H
  H449     1.0000 0.80411  0.71076  0.51497  Biso   1.000  H
  H450     1.0000 0.53556  0.31118  0.78437  Biso   1.000  H
  H451     1.0000 0.75314  0.48803  0.34129  Biso   1.000  H
  H452     1.0000 0.21418  0.16466  0.02505  Biso   1.000  H
  H453     1.0000 0.46164  0.81824  0.74430  Biso   1.000  H
  H454     1.0000 0.31880  0.53542  0.23433  Biso   1.000  H
  H455     1.0000 0.67058  0.20152  0.48215  Biso   1.000  H
  H456     1.0000 0.95588  0.79241  0.80018  Biso   1.000  H
  H457     1.0000 0.66043  0.75011  0.49596  Biso   1.000  H
  H458     1.0000 0.44802  0.71468  0.84472  Biso   1.000  H
  H459     1.0000 0.81898  0.46423  0.73855  Biso   1.000  H
  H460     1.0000 0.16845  0.77176  0.04648  Biso   1.000  H
  H461     1.0000 0.94643  0.67952  0.70602  Biso   1.000  H
  H462     1.0000 0.26999  0.46156  0.83285  Biso   1.000  H
  H463     1.0000 0.82656  0.25861  0.48281  Biso   1.000  H
  H464     1.0000 0.04051  0.14616  0.78910  Biso   1.000  H
  H465     1.0000 0.66440  0.00602  0.74561  Biso   1.000  H
  H466     1.0000 0.31402  0.25889  0.02834  Biso   1.000  H
  H467     1.0000 0.53326  0.20808  0.68655  Biso   1.000  H
  H468     1.0000 0.17102  0.95656  0.78126  Biso   1.000  H
  H469     1.0000 0.33058  0.21732  0.53298  Biso   1.000  H
  H470     1.0000 0.54171  0.26793  0.18844  Biso   1.000  H
  H471     1.0000 0.16254  0.53359  0.28159  Biso   1.000  H
  H472     1.0000 0.75933  0.15830  0.97623  Biso   1.000  H
  H473     1.0000 0.00709  0.32882  0.28390  Biso   1.000  H
  H474     1.0000 0.71316  0.49146  0.19112  Biso   1.000  H
  H475     1.0000 0.20597  0.66488  0.54901  Biso   1.000  H
  H476     1.0000 0.01181  0.82575  0.25027  Biso   1.000  H
  H477     1.0000 0.26502  0.01057  0.33822  Biso   1.000  H
  H478     1.0000 0.66050  0.70938  0.96235  Biso   1.000  H
  H479     1.0000 0.45097  0.76344  0.34467  Biso   1.000  H
  H480     1.0000 0.82187  0.03310  0.25098  Biso   1.000  H
  N1       1.0000 0.67415  0.15460  0.51409  Biso   1.000  N
  N2       1.0000 0.48912  0.65682  0.19631  Biso   1.000  N
  N3       1.0000 0.16831  0.48681  0.68541  Biso   1.000  N
  N4       1.0000 0.16200  0.16838  0.00158  Biso   1.000  N
  N5       1.0000 0.98933  0.67161  0.34337  Biso   1.000  N
  N6       1.0000 0.67000  0.49846  0.83603  Biso   1.000  N
  N7       1.0000 0.80228  0.65672  0.53857  Biso   1.000  N
  N8       1.0000 0.98624  0.17543  0.18352  Biso   1.000  N
  N9       1.0000 0.31501  0.00222  0.68584  Biso   1.000  N
  N10      1.0000 0.30948  0.65981  0.01258  Biso   1.000  N
  N11      1.0000 0.50409  0.16411  0.33371  Biso   1.000  N
  N12      1.0000 0.81186  0.96935  0.84122  Biso   1.000  N
  N13      1.0000 0.30117  0.81505  0.51868  Biso   1.000  N
  N14      1.0000 0.49985  0.31430  0.83251  Biso   1.000  N
  N15      1.0000 0.80999  0.47527  0.33703  Biso   1.000  N
  N16      1.0000 0.81094  0.80930  0.00438  Biso   1.000  N
  N17      1.0000 0.99824  0.29247  0.68276  Biso   1.000  N
  N18      1.0000 0.31486  0.50047  0.18526  Biso   1.000  N
  N19      1.0000 0.17527  0.31301  0.51103  Biso   1.000  N
  N20      1.0000 0.98661  0.79263  0.84541  Biso   1.000  N
  N21      1.0000 0.66706  0.98461  0.33737  Biso   1.000  N
  N22      1.0000 0.66628  0.31667  0.00948  Biso   1.000  N
  N23      1.0000 0.48180  0.80632  0.69216  Biso   1.000  N
  N24      1.0000 0.16583  0.00013  0.18527  Biso   1.000  N
  N25      1.0000 0.82014  0.49771  0.69158  Biso   1.000  N
  N26      1.0000 0.65670  0.80257  0.52159  Biso   1.000  N
  N27      1.0000 0.48077  0.66571  0.84466  Biso   1.000  N
  N28      1.0000 0.31941  0.48958  0.82959  Biso   1.000  N
  N29      1.0000 0.16721  0.81484  0.01118  Biso   1.000  N
  N30      1.0000 0.99295  0.64630  0.69106  Biso   1.000  N
  N31      1.0000 0.66619  0.97994  0.69374  Biso   1.000  N
  N32      1.0000 0.81939  0.30319  0.51424  Biso   1.000  N
  N33      1.0000 0.00185  0.14844  0.83186  Biso   1.000  N
  N34      1.0000 0.16242  0.98889  0.83156  Biso   1.000  N
  N35      1.0000 0.31595  0.31031  0.00076  Biso   1.000  N
  N36      1.0000 0.49751  0.16239  0.68800  Biso   1.000  N
  N37      1.0000 0.16475  0.50285  0.33361  Biso   1.000  N
  N38      1.0000 0.32320  0.16680  0.50440  Biso   1.000  N
  N39      1.0000 0.50216  0.31177  0.18820  Biso   1.000  N
  N40      1.0000 0.66355  0.46413  0.19405  Biso   1.000  N
  N41      1.0000 0.80815  0.16250  0.00792  Biso   1.000  N
  N42      1.0000 0.97813  0.32213  0.33109  Biso   1.000  N
  N43      1.0000 0.31402  0.98376  0.32960  Biso   1.000  N
  N44      1.0000 0.15422  0.66761  0.52466  Biso   1.000  N
  N45      1.0000 0.98675  0.82299  0.19932  Biso   1.000  N
  N46      1.0000 0.81744  0.00955  0.19471  Biso   1.000  N
  N47      1.0000 0.65843  0.66606  0.00448  Biso   1.000  N
  N48      1.0000 0.47990  0.81324  0.33661  Biso   1.000  N
  O1       1.0000 0.33551  0.52676  0.01291  Biso   1.000  O
  O2       1.0000 0.99795  0.32321  0.55078  Biso   1.000  O
  O3       1.0000 0.53195  0.98521  0.35062  Biso   1.000  O
  O4       1.0000 0.83130  0.52577  0.51274  Biso   1.000  O
  O5       1.0000 0.48688  0.33526  0.96907  Biso   1.000  O
  O6       1.0000 0.03371  0.99582  0.17138  Biso   1.000  O
  O7       1.0000 0.14702  0.03386  0.00926  Biso   1.000  O
  O8       1.0000 0.47107  0.82726  0.56190  Biso   1.000  O
  O9       1.0000 0.94192  0.49983  0.35517  Biso   1.000  O
  O10      1.0000 0.64812  0.01965  0.51712  Biso   1.000  O
  O11      1.0000 0.98745  0.82276  0.97768  Biso   1.000  O
  O12      1.0000 0.44897  0.49382  0.17424  Biso   1.000  O
  O13      1.0000 0.64631  0.44726  0.01536  Biso   1.000  O
  O14      1.0000 0.98037  0.63915  0.47610  Biso   1.000  O
  O15      1.0000 0.44668  0.98221  0.66987  Biso   1.000  O
  O16      1.0000 0.15236  0.44766  0.51308  Biso   1.000  O
  O17      1.0000 0.49299  0.63979  0.06143  Biso   1.000  O
  O18      1.0000 0.94530  0.97337  0.85564  Biso   1.000  O
  O19      1.0000 0.83390  0.94302  0.02352  Biso   1.000  O
  O20      1.0000 0.49841  0.14164  0.46555  Biso   1.000  O
  O21      1.0000 0.03562  0.46673  0.66914  Biso   1.000  O
  O22      1.0000 0.32846  0.94763  0.51857  Biso   1.000  O
  O23      1.0000 0.97640  0.14347  0.05011  Biso   1.000  O
  O24      1.0000 0.53595  0.49415  0.85460  Biso   1.000  O
  O25      1.0000 0.95103  0.00128  0.17278  Biso   1.000  O
  O26      1.0000 0.14343  0.94828  0.00242  Biso   1.000  O
  O27      1.0000 0.99467  0.13602  0.96870  Biso   1.000  O
  O28      1.0000 0.44722  0.98863  0.35223  Biso   1.000  O
  O29      1.0000 0.64701  0.93483  0.52161  Biso   1.000  O
  O30      1.0000 0.50079  0.14642  0.55133  Biso   1.000  O
  O31      1.0000 0.53076  0.47620  0.17467  Biso   1.000  O
  O32      1.0000 0.33757  0.44648  0.00241  Biso   1.000  O
  O33      1.0000 0.48119  0.64016  0.97894  Biso   1.000  O
  O34      1.0000 0.02789  0.48916  0.35529  Biso   1.000  O
  O35      1.0000 0.83579  0.44093  0.50764  Biso   1.000  O
  O36      1.0000 0.97863  0.63361  0.55688  Biso   1.000  O
  O37      1.0000 0.02878  0.96900  0.85384  Biso   1.000  O
  O38      1.0000 0.82929  0.02554  0.01263  Biso   1.000  O
  O39      1.0000 0.99374  0.83659  0.05994  Biso   1.000  O
  O40      1.0000 0.53128  0.98388  0.67270  Biso   1.000  O
  O41      1.0000 0.33524  0.03120  0.50764  Biso   1.000  O
  O42      1.0000 0.48032  0.83486  0.47516  Biso   1.000  O
  O43      1.0000 0.45408  0.48420  0.85443  Biso   1.000  O
  O44      1.0000 0.64334  0.53001  0.01740  Biso   1.000  O
  O45      1.0000 0.49340  0.33241  0.05444  Biso   1.000  O
  O46      1.0000 0.95413  0.47204  0.67081  Biso   1.000  O
  O47      1.0000 0.14367  0.53136  0.51205  Biso   1.000  O
  O48      1.0000 0.99642  0.33325  0.46495  Biso   1.000  O
  O49      1.0000 0.99159  0.95447  0.17511  Biso   1.000  O
  O50      1.0000 0.14436  0.99247  0.96644  Biso   1.000  O
  O51      1.0000 0.94252  0.13881  0.00269  Biso   1.000  O
  O52      1.0000 0.48682  0.94845  0.35619  Biso   1.000  O
  O53      1.0000 0.64653  0.97973  0.55861  Biso   1.000  O
  O54      1.0000 0.45714  0.14258  0.50868  Biso   1.000  O
  O55      1.0000 0.48490  0.44522  0.17143  Biso   1.000  O
  O56      1.0000 0.33750  0.48914  0.96653  Biso   1.000  O
  O57      1.0000 0.52561  0.64606  0.01197  Biso   1.000  O
  O58      1.0000 0.98130  0.45541  0.35546  Biso   1.000  O
  O59      1.0000 0.83452  0.48367  0.55495  Biso   1.000  O
  O60      1.0000 0.02022  0.63735  0.51615  Biso   1.000  O
  O61      1.0000 0.98895  0.01254  0.85247  Biso   1.000  O
  O62      1.0000 0.83271  0.99259  0.06022  Biso   1.000  O
  O63      1.0000 0.03111  0.82823  0.01550  Biso   1.000  O
  O64      1.0000 0.48546  0.02391  0.66603  Biso   1.000  O
  O65      1.0000 0.33225  0.98103  0.46717  Biso   1.000  O
  O66      1.0000 0.52211  0.83318  0.52567  Biso   1.000  O
  O67      1.0000 0.49469  0.53133  0.85511  Biso   1.000  O
  O68      1.0000 0.64300  0.48665  0.05822  Biso   1.000  O
  O69      1.0000 0.44873  0.32925  0.01420  Biso   1.000  O
  O70      1.0000 0.99634  0.51147  0.67223  Biso   1.000  O
  O71      1.0000 0.14792  0.49412  0.46824  Biso   1.000  O
  O72      1.0000 0.95575  0.32562  0.51202  Biso   1.000  O
  O73      1.0000 0.99201  0.42644  0.67032  Biso   1.000  O
  O74      1.0000 0.64411  0.97200  0.47533  Biso   1.000  O
  O75      1.0000 0.44198  0.64067  0.03195  Biso   1.000  O
  O76      1.0000 0.49822  0.44744  0.85569  Biso   1.000  O
  O77      1.0000 0.14253  0.98951  0.04963  Biso   1.000  O
  O78      1.0000 0.93729  0.63670  0.51624  Biso   1.000  O
  O79      1.0000 0.48971  0.94030  0.67026  Biso   1.000  O
  O80      1.0000 0.83307  0.48148  0.46945  Biso   1.000  O
  O81      1.0000 0.02978  0.13921  0.01365  Biso   1.000  O
  O82      1.0000 0.98176  0.92614  0.85442  Biso   1.000  O
  O83      1.0000 0.33932  0.48635  0.04947  Biso   1.000  O
  O84      1.0000 0.54098  0.14353  0.51086  Biso   1.000  O
  O85      1.0000 0.98983  0.53867  0.35372  Biso   1.000  O
  O86      1.0000 0.33835  0.99077  0.55218  Biso   1.000  O
  O87      1.0000 0.53204  0.33370  0.00859  Biso   1.000  O
  O88      1.0000 0.49683  0.52629  0.17802  Biso   1.000  O
  O89      1.0000 0.83300  0.98133  0.97503  Biso   1.000  O
  O90      1.0000 0.03987  0.32984  0.50962  Biso   1.000  O
  O91      1.0000 0.49466  0.03067  0.35058  Biso   1.000  O
  O92      1.0000 0.14649  0.49126  0.55209  Biso   1.000  O
  O93      1.0000 0.94563  0.82745  0.02268  Biso   1.000  O
  O94      1.0000 0.99404  0.03753  0.16927  Biso   1.000  O
  O95      1.0000 0.64313  0.49069  0.97202  Biso   1.000  O
  O96      1.0000 0.43756  0.83791  0.51743  Biso   1.000  O
  O97      1.0000 0.45832  0.19083  0.50644  Biso   1.000  O
  O98      1.0000 0.47914  0.44410  0.22126  Biso   1.000  O
  O99      1.0000 0.19582  0.48926  0.46676  Biso   1.000  O
  O100     1.0000 0.94453  0.18831  0.00007  Biso   1.000  O
  O101     1.0000 0.97954  0.45491  0.30613  Biso   1.000  O
  O102     1.0000 0.69187  0.48730  0.05960  Biso   1.000  O
  O103     1.0000 0.01815  0.68559  0.52433  Biso   1.000  O
  O104     1.0000 0.98450  0.95977  0.22417  Biso   1.000  O
  O105     1.0000 0.28410  0.98806  0.46668  Biso   1.000  O
  O106     1.0000 0.52124  0.69338  0.00745  Biso   1.000  O
  O107     1.0000 0.49007  0.94417  0.30699  Biso   1.000  O
  O108     1.0000 0.78470  0.99752  0.06206  Biso   1.000  O
  O109     1.0000 0.51943  0.78452  0.51890  Biso   1.000  O
  O110     1.0000 0.48841  0.53116  0.80704  Biso   1.000  O
  O111     1.0000 0.78658  0.48540  0.55693  Biso   1.000  O
  O112     1.0000 0.03299  0.78059  0.02609  Biso   1.000  O
  O113     1.0000 0.99499  0.51188  0.72028  Biso   1.000  O
  O114     1.0000 0.28873  0.49354  0.96671  Biso   1.000  O
  O115     1.0000 0.95609  0.27697  0.51158  Biso   1.000  O
  O116     1.0000 0.99267  0.01057  0.80290  Biso   1.000  O
  O117     1.0000 0.69604  0.97971  0.55545  Biso   1.000  O
  O118     1.0000 0.44962  0.27948  0.00996  Biso   1.000  O
  O119     1.0000 0.48817  0.02890  0.71504  Biso   1.000  O
  O120     1.0000 0.19260  0.99048  0.96569  Biso   1.000  O
  O121     1.0000 0.03517  0.46558  0.71827  Biso   1.000  O
  O122     1.0000 0.69506  0.01750  0.51124  Biso   1.000  O
  O123     1.0000 0.49293  0.68754  0.06076  Biso   1.000  O
  O124     1.0000 0.53642  0.49442  0.80566  Biso   1.000  O
  O125     1.0000 0.19668  0.03448  0.00567  Biso   1.000  O
  O126     1.0000 0.97876  0.68776  0.48094  Biso   1.000  O
  O127     1.0000 0.44812  0.98527  0.71854  Biso   1.000  O
  O128     1.0000 0.78330  0.52237  0.51435  Biso   1.000  O
  O129     1.0000 0.97551  0.19055  0.04750  Biso   1.000  O
  O130     1.0000 0.94361  0.97259  0.80715  Biso   1.000  O
  O131     1.0000 0.28768  0.52484  0.01457  Biso   1.000  O
  O132     1.0000 0.50581  0.19007  0.46911  Biso   1.000  O
  O133     1.0000 0.94418  0.49845  0.30707  Biso   1.000  O
  O134     1.0000 0.27980  0.95079  0.51943  Biso   1.000  O
  O135     1.0000 0.48690  0.28641  0.96815  Biso   1.000  O
  O136     1.0000 0.44574  0.49279  0.22326  Biso   1.000  O
  O137     1.0000 0.78677  0.94525  0.02949  Biso   1.000  O
  O138     1.0000 0.99639  0.27408  0.54625  Biso   1.000  O
  O139     1.0000 0.53363  0.98020  0.30198  Biso   1.000  O
  O140     1.0000 0.20036  0.44850  0.50825  Biso   1.000  O
  O141     1.0000 0.99480  0.77515  0.98339  Biso   1.000  O
  O142     1.0000 0.03216  0.99237  0.21992  Biso   1.000  O
  O143     1.0000 0.69568  0.44701  0.01715  Biso   1.000  O
  O144     1.0000 0.47124  0.77767  0.55854  Biso   1.000  O
  O145     1.0000 0.52844  0.47943  0.22381  Biso   1.000  O
  O146     1.0000 0.19187  0.53438  0.50434  Biso   1.000  O
  O147     1.0000 0.49462  0.19489  0.55445  Biso   1.000  O
  O148     1.0000 0.02821  0.49422  0.30672  Biso   1.000  O
  O149     1.0000 0.69276  0.53048  0.01367  Biso   1.000  O
  O150     1.0000 0.99106  0.18437  0.96506  Biso   1.000  O
  O151     1.0000 0.94993  0.00641  0.22111  Biso   1.000  O
  O152     1.0000 0.28713  0.03456  0.50529  Biso   1.000  O
  O153     1.0000 0.97722  0.68244  0.56382  Biso   1.000  O
  O154     1.0000 0.44915  0.98844  0.30302  Biso   1.000  O
  O155     1.0000 0.78118  0.02677  0.01613  Biso   1.000  O
  O156     1.0000 0.46985  0.68715  0.98065  Biso   1.000  O
  O157     1.0000 0.45351  0.48264  0.80458  Biso   1.000  O
  O158     1.0000 0.78890  0.43878  0.51878  Biso   1.000  O
  O159     1.0000 0.48787  0.78680  0.47450  Biso   1.000  O
  O160     1.0000 0.95111  0.47425  0.72046  Biso   1.000  O
  O161     1.0000 0.29035  0.44600  0.99699  Biso   1.000  O
  O162     1.0000 0.98921  0.78827  0.06447  Biso   1.000  O
  O163     1.0000 0.02621  0.96172  0.80642  Biso   1.000  O
  O164     1.0000 0.69571  0.93367  0.51541  Biso   1.000  O
  O165     1.0000 0.99040  0.28464  0.46233  Biso   1.000  O
  O166     1.0000 0.52945  0.98908  0.72077  Biso   1.000  O
  O167     1.0000 0.19138  0.94915  0.00695  Biso   1.000  O
  O168     1.0000 0.49085  0.28339  0.05354  Biso   1.000  O
  O169     1.0000 0.99961  0.04168  0.21837  Biso   1.000  O
  O170     1.0000 0.19042  0.99165  0.05038  Biso   1.000  O
  O171     1.0000 0.02634  0.18859  0.01318  Biso   1.000  O
  O172     1.0000 0.49423  0.03084  0.30159  Biso   1.000  O
  O173     1.0000 0.69206  0.97595  0.47215  Biso   1.000  O
  O174     1.0000 0.54192  0.19235  0.51239  Biso   1.000  O
  O175     1.0000 0.49547  0.52575  0.22850  Biso   1.000  O
  O176     1.0000 0.29205  0.47998  0.05043  Biso   1.000  O
  O177     1.0000 0.44073  0.68916  0.03354  Biso   1.000  O
  O178     1.0000 0.98604  0.53602  0.30511  Biso   1.000  O
  O179     1.0000 0.78548  0.47137  0.47324  Biso   1.000  O
  O180     1.0000 0.93635  0.68640  0.52150  Biso   1.000  O
  O181     1.0000 0.97880  0.92278  0.80708  Biso   1.000  O
  O182     1.0000 0.78408  0.97706  0.97845  Biso   1.000  O
  O183     1.0000 0.94713  0.77887  0.02176  Biso   1.000  O
  O184     1.0000 0.48997  0.94361  0.71897  Biso   1.000  O
  O185     1.0000 0.28985  0.99807  0.55343  Biso   1.000  O
  O186     1.0000 0.43714  0.78906  0.51371  Biso   1.000  O
  O187     1.0000 0.49699  0.44808  0.80768  Biso   1.000  O
  O188     1.0000 0.69139  0.48628  0.97407  Biso   1.000  O
  O189     1.0000 0.53397  0.28461  0.00740  Biso   1.000  O
  O190     1.0000 0.98604  0.42680  0.72021  Biso   1.000  O
  O191     1.0000 0.19498  0.49120  0.54926  Biso   1.000  O
  O192     1.0000 0.04070  0.28157  0.50325  Biso   1.000  O
