data_image0
_cell_length_a       46.8109
_cell_length_b       47.0065
_cell_length_c       46.5751
_cell_angle_alpha    90
_cell_angle_beta     90
_cell_angle_gamma    90

_symmetry_space_group_name_H-M    "P 1"
_symmetry_int_tables_number       1

loop_
  _symmetry_equiv_pos_as_xyz
  'x, y, z'

loop_
  _atom_site_label
  _atom_site_occupancy
  _atom_site_fract_x
  _atom_site_fract_y
  _atom_site_fract_z
  _atom_site_thermal_displace_type
  _atom_site_B_iso_or_equiv
  _atom_site_type_symbol
  C1       1.0000 0.57344  0.98453  0.30269  Biso   1.000  C
  C2       1.0000 0.33127  0.53841  0.97688  Biso   1.000  C
  C3       1.0000 0.03336  0.30296  0.53666  Biso   1.000  C
  C4       1.0000 0.07527  0.99637  0.15970  Biso   1.000  C
  C5       1.0000 0.83710  0.52319  0.49119  Biso   1.000  C
  C6       1.0000 0.52681  0.29610  0.94120  Biso   1.000  C
  C7       1.0000 0.95106  0.48025  0.30263  Biso   1.000  C
  C8       1.0000 0.20200  0.04239  0.97862  Biso   1.000  C
  C9       1.0000 0.50994  0.79774  0.52963  Biso   1.000  C
  C10      1.0000 0.45155  0.47830  0.16865  Biso   1.000  C
  C11      1.0000 0.70058  0.03018  0.47793  Biso   1.000  C
  C12      1.0000 0.01415  0.80207  0.92356  Biso   1.000  C
  C13      1.0000 0.45427  0.97531  0.66613  Biso   1.000  C
  C14      1.0000 0.70017  0.43158  0.98545  Biso   1.000  C
  C15      1.0000 0.00839  0.65751  0.41958  Biso   1.000  C
  C16      1.0000 0.95567  0.97637  0.79857  Biso   1.000  C
  C17      1.0000 0.20331  0.43780  0.47650  Biso   1.000  C
  C18      1.0000 0.51285  0.66110  0.03222  Biso   1.000  C
  C19      1.0000 0.08894  0.47484  0.65488  Biso   1.000  C
  C20      1.0000 0.83795  0.92863  0.99172  Biso   1.000  C
  C21      1.0000 0.52597  0.16362  0.43906  Biso   1.000  C
  C22      1.0000 0.58714  0.47511  0.79991  Biso   1.000  C
  C23      1.0000 0.33142  0.93885  0.48248  Biso   1.000  C
  C24      1.0000 0.01270  0.16316  0.03311  Biso   1.000  C
  C25      1.0000 0.33860  0.04894  0.48506  Biso   1.000  C
  C26      1.0000 0.52537  0.29942  0.04999  Biso   1.000  C
  C27      1.0000 0.05905  0.47145  0.29814  Biso   1.000  C
  C28      1.0000 0.83707  0.03760  0.96997  Biso   1.000  C
  C29      1.0000 0.01600  0.30006  0.42577  Biso   1.000  C
  C30      1.0000 0.56050  0.48776  0.16929  Biso   1.000  C
  C31      1.0000 0.20258  0.54675  0.46994  Biso   1.000  C
  C32      1.0000 0.01232  0.80451  0.03286  Biso   1.000  C
  C33      1.0000 0.46541  0.97667  0.30899  Biso   1.000  C
  C34      1.0000 0.69851  0.54030  0.99045  Biso   1.000  C
  C35      1.0000 0.50153  0.80071  0.42194  Biso   1.000  C
  C36      1.0000 0.96546  0.97364  0.16170  Biso   1.000  C
  C37      1.0000 0.69225  0.91887  0.48244  Biso   1.000  C
  C38      1.0000 0.50616  0.65960  0.92090  Biso   1.000  C
  C39      1.0000 0.98041  0.48186  0.66111  Biso   1.000  C
  C40      1.0000 0.19470  0.93389  0.97304  Biso   1.000  C
  C41      1.0000 0.01151  0.65857  0.52920  Biso   1.000  C
  C42      1.0000 0.47905  0.46329  0.80486  Biso   1.000  C
  C43      1.0000 0.83551  0.41439  0.48961  Biso   1.000  C
  C44      1.0000 0.02809  0.15651  0.92490  Biso   1.000  C
  C45      1.0000 0.56238  0.97143  0.66226  Biso   1.000  C
  C46      1.0000 0.34339  0.42957  0.97464  Biso   1.000  C
  C47      1.0000 0.51695  0.16495  0.54770  Biso   1.000  C
  C48      1.0000 0.06472  0.98756  0.79280  Biso   1.000  C
  C49      1.0000 0.00468  0.03291  0.79935  Biso   1.000  C
  C50      1.0000 0.83806  0.99514  0.03775  Biso   1.000  C
  C51      1.0000 0.06684  0.80657  0.97555  Biso   1.000  C
  C52      1.0000 0.50536  0.02951  0.66902  Biso   1.000  C
  C53      1.0000 0.33596  0.99286  0.42880  Biso   1.000  C
  C54      1.0000 0.56160  0.79721  0.47409  Biso   1.000  C
  C55      1.0000 0.52741  0.52454  0.80054  Biso   1.000  C
  C56      1.0000 0.69294  0.48175  0.04259  Biso   1.000  C
  C57      1.0000 0.46928  0.29872  0.99881  Biso   1.000  C
  C58      1.0000 0.04226  0.53595  0.65739  Biso   1.000  C
  C59      1.0000 0.19398  0.48513  0.41870  Biso   1.000  C
  C60      1.0000 0.97169  0.29333  0.48902  Biso   1.000  C
  C61      1.0000 0.02975  0.92906  0.16123  Biso   1.000  C
  C62      1.0000 0.19434  0.99368  0.92453  Biso   1.000  C
  C63      1.0000 0.96639  0.16118  0.97408  Biso   1.000  C
  C64      1.0000 0.52287  0.92871  0.29817  Biso   1.000  C
  C65      1.0000 0.69090  0.97806  0.53583  Biso   1.000  C
  C66      1.0000 0.46882  0.17403  0.48680  Biso   1.000  C
  C67      1.0000 0.51772  0.43093  0.17107  Biso   1.000  C
  C68      1.0000 0.34596  0.48537  0.92294  Biso   1.000  C
  C69      1.0000 0.56420  0.66092  0.97494  Biso   1.000  C
  C70      1.0000 0.00143  0.42485  0.29979  Biso   1.000  C
  C71      1.0000 0.84165  0.46628  0.54285  Biso   1.000  C
  C72      1.0000 0.06532  0.66391  0.47793  Biso   1.000  C
  C73      1.0000 0.00897  0.53333  0.29709  Biso   1.000  C
  C74      1.0000 0.33282  0.99482  0.53645  Biso   1.000  C
  C75      1.0000 0.57877  0.29992  0.99245  Biso   1.000  C
  C76      1.0000 0.50457  0.53731  0.16355  Biso   1.000  C
  C77      1.0000 0.83258  0.98002  0.92720  Biso   1.000  C
  C78      1.0000 0.07888  0.30507  0.46947  Biso   1.000  C
  C79      1.0000 0.51585  0.03635  0.31107  Biso   1.000  C
  C80      1.0000 0.20974  0.49039  0.52761  Biso   1.000  C
  C81      1.0000 0.95968  0.80240  0.97172  Biso   1.000  C
  C82      1.0000 0.01368  0.03498  0.16402  Biso   1.000  C
  C83      1.0000 0.70366  0.48413  0.93527  Biso   1.000  C
  C84      1.0000 0.45229  0.80543  0.47753  Biso   1.000  C
  C85      1.0000 0.02834  0.42579  0.65804  Biso   1.000  C
  C86      1.0000 0.69789  0.96981  0.42679  Biso   1.000  C
  C87      1.0000 0.45660  0.66407  0.97739  Biso   1.000  C
  C88      1.0000 0.53857  0.41557  0.80608  Biso   1.000  C
  C89      1.0000 0.20227  0.98754  0.03308  Biso   1.000  C
  C90      1.0000 0.95556  0.65855  0.47256  Biso   1.000  C
  C91      1.0000 0.50824  0.92137  0.65826  Biso   1.000  C
  C92      1.0000 0.82826  0.47220  0.43475  Biso   1.000  C
  C93      1.0000 0.07703  0.16413  0.98330  Biso   1.000  C
  C94      1.0000 0.01406  0.92538  0.79283  Biso   1.000  C
  C95      1.0000 0.33076  0.47825  0.03129  Biso   1.000  C
  C96      1.0000 0.57569  0.15899  0.49405  Biso   1.000  C
  C97      1.0000 0.69939  0.06181  0.47142  Biso   1.000  C
  C98      1.0000 0.50760  0.66138  0.06419  Biso   1.000  C
  C99      1.0000 0.12012  0.47256  0.65548  Biso   1.000  C
  C100     1.0000 0.20272  0.07421  0.97446  Biso   1.000  C
  C101     1.0000 0.00478  0.65928  0.38740  Biso   1.000  C
  C102     1.0000 0.62078  0.47391  0.80260  Biso   1.000  C
  C103     1.0000 0.83585  0.55641  0.49236  Biso   1.000  C
  C104     1.0000 0.01190  0.16462  0.06579  Biso   1.000  C
  C105     1.0000 0.42194  0.97531  0.66673  Biso   1.000  C
  C106     1.0000 0.33002  0.57117  0.97299  Biso   1.000  C
  C107     1.0000 0.52692  0.16287  0.40704  Biso   1.000  C
  C108     1.0000 0.92377  0.97330  0.79772  Biso   1.000  C
  C109     1.0000 0.32795  0.90686  0.47778  Biso   1.000  C
  C110     1.0000 0.53164  0.29492  0.90813  Biso   1.000  C
  C111     1.0000 0.91912  0.48266  0.30395  Biso   1.000  C
  C112     1.0000 0.83646  0.89656  0.99651  Biso   1.000  C
  C113     1.0000 0.03421  0.30181  0.56859  Biso   1.000  C
  C114     1.0000 0.41988  0.47852  0.16555  Biso   1.000  C
  C115     1.0000 0.20270  0.40535  0.48025  Biso   1.000  C
  C116     1.0000 0.01222  0.80012  0.89092  Biso   1.000  C
  C117     1.0000 0.60486  0.98046  0.29958  Biso   1.000  C
  C118     1.0000 0.70038  0.39946  0.97859  Biso   1.000  C
  C119     1.0000 0.51318  0.79472  0.56110  Biso   1.000  C
  C120     1.0000 0.10694  0.00413  0.15800  Biso   1.000  C
  C121     1.0000 0.83974  0.00029  0.06988  Biso   1.000  C
  C122     1.0000 0.09887  0.80886  0.97021  Biso   1.000  C
  C123     1.0000 0.99882  0.06411  0.80049  Biso   1.000  C
  C124     1.0000 0.33677  0.98973  0.39667  Biso   1.000  C
  C125     1.0000 0.59481  0.79525  0.47568  Biso   1.000  C
  C126     1.0000 0.50560  0.06238  0.67036  Biso   1.000  C
  C127     1.0000 0.69038  0.47512  0.07427  Biso   1.000  C
  C128     1.0000 0.43760  0.30077  0.99516  Biso   1.000  C
  C129     1.0000 0.52303  0.55591  0.79848  Biso   1.000  C
  C130     1.0000 0.18951  0.48097  0.38762  Biso   1.000  C
  C131     1.0000 0.93991  0.29062  0.49430  Biso   1.000  C
  C132     1.0000 0.04369  0.56822  0.65666  Biso   1.000  C
  C133     1.0000 0.19294  0.99873  0.89293  Biso   1.000  C
  C134     1.0000 0.93344  0.16062  0.97385  Biso   1.000  C
  C135     1.0000 0.03216  0.89794  0.16005  Biso   1.000  C
  C136     1.0000 0.68909  0.98130  0.56866  Biso   1.000  C
  C137     1.0000 0.43692  0.17398  0.48394  Biso   1.000  C
  C138     1.0000 0.52299  0.89667  0.29621  Biso   1.000  C
  C139     1.0000 0.34938  0.48368  0.89162  Biso   1.000  C
  C140     1.0000 0.59676  0.66431  0.97761  Biso   1.000  C
  C141     1.0000 0.52302  0.39983  0.17279  Biso   1.000  C
  C142     1.0000 0.84590  0.46054  0.57642  Biso   1.000  C
  C143     1.0000 0.09746  0.66366  0.48270  Biso   1.000  C
  C144     1.0000 0.99695  0.39229  0.30031  Biso   1.000  C
  C145     1.0000 0.32967  0.47610  0.06320  Biso   1.000  C
  C146     1.0000 0.11045  0.30867  0.46382  Biso   1.000  C
  C147     1.0000 0.51200  0.06944  0.31149  Biso   1.000  C
  C148     1.0000 0.82748  0.46858  0.40326  Biso   1.000  C
  C149     1.0000 0.61171  0.30182  0.99187  Biso   1.000  C
  C150     1.0000 0.01080  0.06864  0.16328  Biso   1.000  C
  C151     1.0000 0.20205  0.99185  0.06393  Biso   1.000  C
  C152     1.0000 0.41927  0.80824  0.47843  Biso   1.000  C
  C153     1.0000 0.00884  0.56571  0.29626  Biso   1.000  C
  C154     1.0000 0.70089  0.97218  0.39415  Biso   1.000  C
  C155     1.0000 0.92704  0.80123  0.97184  Biso   1.000  C
  C156     1.0000 0.51184  0.56854  0.16233  Biso   1.000  C
  C157     1.0000 0.70764  0.47375  0.90383  Biso   1.000  C
  C158     1.0000 0.92277  0.65705  0.47298  Biso   1.000  C
  C159     1.0000 0.51181  0.88940  0.65748  Biso   1.000  C
  C160     1.0000 0.21298  0.48428  0.55895  Biso   1.000  C
  C161     1.0000 0.42554  0.66460  0.96707  Biso   1.000  C
  C162     1.0000 0.01554  0.89132  0.79306  Biso   1.000  C
  C163     1.0000 0.83122  0.97879  0.89549  Biso   1.000  C
  C164     1.0000 0.60751  0.15773  0.48968  Biso   1.000  C
  C165     1.0000 0.02602  0.39427  0.65951  Biso   1.000  C
  C166     1.0000 0.33227  0.99462  0.56951  Biso   1.000  C
  C167     1.0000 0.10949  0.16700  0.98143  Biso   1.000  C
  C168     1.0000 0.53828  0.38219  0.80641  Biso   1.000  C
  C169     1.0000 0.01880  0.80361  0.06410  Biso   1.000  C
  C170     1.0000 0.09661  0.99099  0.79263  Biso   1.000  C
  C171     1.0000 0.83805  0.06784  0.95883  Biso   1.000  C
  C172     1.0000 0.50401  0.80084  0.38972  Biso   1.000  C
  C173     1.0000 0.59369  0.96818  0.66062  Biso   1.000  C
  C174     1.0000 0.34123  0.08030  0.49269  Biso   1.000  C
  C175     1.0000 0.52881  0.30109  0.08209  Biso   1.000  C
  C176     1.0000 0.44751  0.46587  0.80365  Biso   1.000  C
  C177     1.0000 0.69780  0.57197  0.99101  Biso   1.000  C
  C178     1.0000 0.01417  0.29750  0.39519  Biso   1.000  C
  C179     1.0000 0.94831  0.47800  0.66404  Biso   1.000  C
  C180     1.0000 0.20134  0.57875  0.46669  Biso   1.000  C
  C181     1.0000 0.02905  0.15591  0.89221  Biso   1.000  C
  C182     1.0000 0.93362  0.97552  0.16311  Biso   1.000  C
  C183     1.0000 0.19538  0.90123  0.97328  Biso   1.000  C
  C184     1.0000 0.51549  0.16432  0.57909  Biso   1.000  C
  C185     1.0000 0.43452  0.97351  0.30738  Biso   1.000  C
  C186     1.0000 0.69229  0.88727  0.48409  Biso   1.000  C
  C187     1.0000 0.50501  0.65750  0.88785  Biso   1.000  C
  C188     1.0000 0.59210  0.48551  0.16895  Biso   1.000  C
  C189     1.0000 0.34470  0.39713  0.97625  Biso   1.000  C
  C190     1.0000 0.00827  0.65928  0.56072  Biso   1.000  C
  C191     1.0000 0.09051  0.46729  0.29741  Biso   1.000  C
  C192     1.0000 0.83813  0.38165  0.49332  Biso   1.000  C
  C193     1.0000 0.85831  0.98125  0.87888  Biso   1.000  C
  C194     1.0000 0.91144  0.82823  0.97712  Biso   1.000  C
  C195     1.0000 0.01409  0.87714  0.82132  Biso   1.000  C
  C196     1.0000 0.35841  0.98665  0.58780  Biso   1.000  C
  C197     1.0000 0.40450  0.83705  0.47583  Biso   1.000  C
  C198     1.0000 0.51724  0.87381  0.63079  Biso   1.000  C
  C199     1.0000 0.68172  0.47254  0.88531  Biso   1.000  C
  C200     1.0000 0.62587  0.33034  0.98621  Biso   1.000  C
  C201     1.0000 0.53896  0.36905  0.83447  Biso   1.000  C
  C202     1.0000 0.18699  0.48197  0.57640  Biso   1.000  C
  C203     1.0000 0.12518  0.33624  0.46490  Biso   1.000  C
  C204     1.0000 0.02571  0.37898  0.63190  Biso   1.000  C
  C205     1.0000 0.17494  0.99757  0.07884  Biso   1.000  C
  C206     1.0000 0.12524  0.14014  0.97550  Biso   1.000  C
  C207     1.0000 0.00891  0.08408  0.13619  Biso   1.000  C
  C208     1.0000 0.67366  0.97244  0.37717  Biso   1.000  C
  C209     1.0000 0.62194  0.13126  0.48346  Biso   1.000  C
  C210     1.0000 0.51604  0.08400  0.33866  Biso   1.000  C
  C211     1.0000 0.35698  0.47658  0.08045  Biso   1.000  C
  C212     1.0000 0.41002  0.63723  0.96852  Biso   1.000  C
  C213     1.0000 0.50918  0.58418  0.13508  Biso   1.000  C
  C214     1.0000 0.85284  0.47138  0.38669  Biso   1.000  C
  C215     1.0000 0.90884  0.62917  0.47666  Biso   1.000  C
  C216     1.0000 0.00468  0.58273  0.32195  Biso   1.000  C
  C217     1.0000 0.11194  0.99062  0.82101  Biso   1.000  C
  C218     1.0000 0.86343  0.08407  0.96475  Biso   1.000  C
  C219     1.0000 0.02037  0.83262  0.08053  Biso   1.000  C
  C220     1.0000 0.61010  0.97226  0.63365  Biso   1.000  C
  C221     1.0000 0.36876  0.09439  0.48799  Biso   1.000  C
  C222     1.0000 0.50838  0.82875  0.37463  Biso   1.000  C
  C223     1.0000 0.43110  0.47435  0.82876  Biso   1.000  C
  C224     1.0000 0.67055  0.58710  0.98761  Biso   1.000  C
  C225     1.0000 0.53160  0.32908  0.09566  Biso   1.000  C
  C226     1.0000 0.92928  0.47325  0.63900  Biso   1.000  C
  C227     1.0000 0.17252  0.59251  0.46913  Biso   1.000  C
  C228     1.0000 0.01034  0.32495  0.37860  Biso   1.000  C
  C229     1.0000 0.91697  0.97901  0.13760  Biso   1.000  C
  C230     1.0000 0.16745  0.88665  0.97209  Biso   1.000  C
  C231     1.0000 0.02223  0.12870  0.87645  Biso   1.000  C
  C232     1.0000 0.41675  0.97774  0.33317  Biso   1.000  C
  C233     1.0000 0.66487  0.87272  0.48023  Biso   1.000  C
  C234     1.0000 0.51639  0.13555  0.59302  Biso   1.000  C
  C235     1.0000 0.60741  0.48505  0.14180  Biso   1.000  C
  C236     1.0000 0.37235  0.38252  0.97862  Biso   1.000  C
  C237     1.0000 0.51155  0.62953  0.87437  Biso   1.000  C
  C238     1.0000 0.10894  0.47268  0.32298  Biso   1.000  C
  C239     1.0000 0.86645  0.36722  0.49848  Biso   1.000  C
  C240     1.0000 0.01497  0.63158  0.57708  Biso   1.000  C
  C241     1.0000 0.63546  0.47523  0.83071  Biso   1.000  C
  C242     1.0000 0.86173  0.57442  0.48888  Biso   1.000  C
  C243     1.0000 0.51568  0.82097  0.57614  Biso   1.000  C
  C244     1.0000 0.13486  0.47559  0.62969  Biso   1.000  C
  C245     1.0000 0.35591  0.58733  0.96903  Biso   1.000  C
  C246     1.0000 0.01343  0.82679  0.87418  Biso   1.000  C
  C247     1.0000 0.90878  0.97461  0.82552  Biso   1.000  C
  C248     1.0000 0.67293  0.07700  0.47753  Biso   1.000  C
  C249     1.0000 0.03024  0.32809  0.58289  Biso   1.000  C
  C250     1.0000 0.40705  0.97615  0.63903  Biso   1.000  C
  C251     1.0000 0.17652  0.08811  0.97700  Biso   1.000  C
  C252     1.0000 0.53324  0.31923  0.88929  Biso   1.000  C
  C253     1.0000 0.40548  0.47849  0.13790  Biso   1.000  C
  C254     1.0000 0.17529  0.38901  0.47994  Biso   1.000  C
  C255     1.0000 0.52433  0.13472  0.39153  Biso   1.000  C
  C256     1.0000 0.90486  0.47703  0.33174  Biso   1.000  C
  C257     1.0000 0.67397  0.38195  0.97952  Biso   1.000  C
  C258     1.0000 0.00895  0.13718  0.08171  Biso   1.000  C
  C259     1.0000 0.12175  0.00600  0.13075  Biso   1.000  C
  C260     1.0000 0.35435  0.89067  0.47539  Biso   1.000  C
  C261     1.0000 0.00279  0.63442  0.36951  Biso   1.000  C
  C262     1.0000 0.62192  0.97871  0.32714  Biso   1.000  C
  C263     1.0000 0.86374  0.88092  0.99217  Biso   1.000  C
  C264     1.0000 0.50648  0.63537  0.08141  Biso   1.000  C
  C265     1.0000 0.00164  0.07822  0.82750  Biso   1.000  C
  C266     1.0000 0.86662  0.99385  0.08612  Biso   1.000  C
  C267     1.0000 0.11388  0.83700  0.97172  Biso   1.000  C
  C268     1.0000 0.50638  0.07941  0.64396  Biso   1.000  C
  C269     1.0000 0.36311  0.98364  0.38290  Biso   1.000  C
  C270     1.0000 0.61081  0.82183  0.47613  Biso   1.000  C
  C271     1.0000 0.51784  0.57306  0.82462  Biso   1.000  C
  C272     1.0000 0.66399  0.47971  0.09082  Biso   1.000  C
  C273     1.0000 0.42233  0.32856  0.99079  Biso   1.000  C
  C274     1.0000 0.03839  0.58362  0.62926  Biso   1.000  C
  C275     1.0000 0.16078  0.48039  0.37149  Biso   1.000  C
  C276     1.0000 0.92294  0.31646  0.50033  Biso   1.000  C
  C277     1.0000 0.03027  0.88285  0.13201  Biso   1.000  C
  C278     1.0000 0.16531  0.99566  0.87734  Biso   1.000  C
  C279     1.0000 0.91736  0.13388  0.97319  Biso   1.000  C
  C280     1.0000 0.51936  0.88164  0.32257  Biso   1.000  C
  C281     1.0000 0.66198  0.98141  0.58389  Biso   1.000  C
  C282     1.0000 0.42114  0.14661  0.48457  Biso   1.000  C
  C283     1.0000 0.52129  0.38277  0.14576  Biso   1.000  C
  C284     1.0000 0.37722  0.48094  0.87728  Biso   1.000  C
  C285     1.0000 0.61504  0.63832  0.97975  Biso   1.000  C
  C286     1.0000 0.00355  0.37552  0.32606  Biso   1.000  C
  C287     1.0000 0.87371  0.46624  0.58931  Biso   1.000  C
  C288     1.0000 0.11449  0.63851  0.47529  Biso   1.000  C
  C289     1.0000 0.35101  0.85992  0.47582  Biso   1.000  C
  C290     1.0000 0.53619  0.31700  0.85885  Biso   1.000  C
  C291     1.0000 0.87355  0.47190  0.33332  Biso   1.000  C
  C292     1.0000 0.86109  0.84973  0.98922  Biso   1.000  C
  C293     1.0000 0.02668  0.32723  0.61388  Biso   1.000  C
  C294     1.0000 0.37361  0.47767  0.13521  Biso   1.000  C
  C295     1.0000 0.17688  0.35752  0.47870  Biso   1.000  C
  C296     1.0000 0.01197  0.82453  0.84235  Biso   1.000  C
  C297     1.0000 0.65259  0.97560  0.32368  Biso   1.000  C
  C298     1.0000 0.67809  0.35131  0.97996  Biso   1.000  C
  C299     1.0000 0.51161  0.82046  0.60761  Biso   1.000  C
  C300     1.0000 0.15322  0.00528  0.13188  Biso   1.000  C
  C301     1.0000 0.67504  0.10837  0.48203  Biso   1.000  C
  C302     1.0000 0.51061  0.63709  0.11254  Biso   1.000  C
  C303     1.0000 0.16767  0.47651  0.62997  Biso   1.000  C
  C304     1.0000 0.17960  0.11909  0.97869  Biso   1.000  C
  C305     1.0000 0.00215  0.63503  0.33885  Biso   1.000  C
  C306     1.0000 0.66607  0.47007  0.83028  Biso   1.000  C
  C307     1.0000 0.85799  0.60543  0.48241  Biso   1.000  C
  C308     1.0000 0.00935  0.13762  0.11293  Biso   1.000  C
  C309     1.0000 0.37660  0.97899  0.63982  Biso   1.000  C
  C310     1.0000 0.35564  0.61846  0.96711  Biso   1.000  C
  C311     1.0000 0.52086  0.13549  0.35978  Biso   1.000  C
  C312     1.0000 0.87735  0.97247  0.82693  Biso   1.000  C
  C313     1.0000 0.16126  0.47103  0.34182  Biso   1.000  C
  C314     1.0000 0.39035  0.14788  0.49054  Biso   1.000  C
  C315     1.0000 0.52190  0.35183  0.14726  Biso   1.000  C
  C316     1.0000 0.66320  0.47729  0.12144  Biso   1.000  C
  C317     1.0000 0.88630  0.13502  0.96634  Biso   1.000  C
  C318     1.0000 0.00248  0.34448  0.32568  Biso   1.000  C
  C319     1.0000 0.36400  0.97970  0.35238  Biso   1.000  C
  C320     1.0000 0.14636  0.64130  0.47295  Biso   1.000  C
  C321     1.0000 0.02747  0.85091  0.13265  Biso   1.000  C
  C322     1.0000 0.86612  0.99092  0.11727  Biso   1.000  C
  C323     1.0000 0.64658  0.63996  0.98406  Biso   1.000  C
  C324     1.0000 0.51618  0.85084  0.32138  Biso   1.000  C
  C325     1.0000 0.87522  0.46615  0.62117  Biso   1.000  C
  C326     1.0000 0.64186  0.81914  0.47442  Biso   1.000  C
  C327     1.0000 0.51388  0.60432  0.82322  Biso   1.000  C
  C328     1.0000 0.37756  0.47601  0.84596  Biso   1.000  C
  C329     1.0000 0.14504  0.83564  0.96784  Biso   1.000  C
  C330     1.0000 0.03046  0.61287  0.62965  Biso   1.000  C
  C331     1.0000 0.66267  0.97843  0.61590  Biso   1.000  C
  C332     1.0000 0.89168  0.31371  0.49916  Biso   1.000  C
  C333     1.0000 0.00529  0.10916  0.82557  Biso   1.000  C
  C334     1.0000 0.16616  0.99424  0.84572  Biso   1.000  C
  C335     1.0000 0.39171  0.32943  0.98588  Biso   1.000  C
  C336     1.0000 0.50914  0.11112  0.64526  Biso   1.000  C
  C337     1.0000 0.68564  0.46882  0.85435  Biso   1.000  C
  C338     1.0000 0.87680  0.62822  0.47644  Biso   1.000  C
  C339     1.0000 0.51346  0.84179  0.62965  Biso   1.000  C
  C340     1.0000 0.18794  0.47797  0.60794  Biso   1.000  C
  C341     1.0000 0.37912  0.63764  0.96693  Biso   1.000  C
  C342     1.0000 0.01264  0.84556  0.82023  Biso   1.000  C
  C343     1.0000 0.85641  0.97607  0.84763  Biso   1.000  C
  C344     1.0000 0.65406  0.13064  0.48536  Biso   1.000  C
  C345     1.0000 0.02522  0.34807  0.63408  Biso   1.000  C
  C346     1.0000 0.35563  0.98611  0.61850  Biso   1.000  C
  C347     1.0000 0.15711  0.14088  0.97891  Biso   1.000  C
  C348     1.0000 0.53892  0.33735  0.83619  Biso   1.000  C
  C349     1.0000 0.35421  0.47574  0.11174  Biso   1.000  C
  C350     1.0000 0.15627  0.33606  0.47281  Biso   1.000  C
  C351     1.0000 0.51797  0.11513  0.33635  Biso   1.000  C
  C352     1.0000 0.85276  0.46962  0.35530  Biso   1.000  C
  C353     1.0000 0.65783  0.32975  0.98286  Biso   1.000  C
  C354     1.0000 0.00909  0.11629  0.13559  Biso   1.000  C
  C355     1.0000 0.17486  0.00278  0.11044  Biso   1.000  C
  C356     1.0000 0.37297  0.83802  0.47497  Biso   1.000  C
  C357     1.0000 0.00485  0.61326  0.31821  Biso   1.000  C
  C358     1.0000 0.67444  0.97292  0.34577  Biso   1.000  C
  C359     1.0000 0.88192  0.82736  0.98351  Biso   1.000  C
  C360     1.0000 0.51349  0.61527  0.13490  Biso   1.000  C
  C361     1.0000 0.01388  0.12995  0.84613  Biso   1.000  C
  C362     1.0000 0.88592  0.98395  0.13906  Biso   1.000  C
  C363     1.0000 0.16838  0.85527  0.96842  Biso   1.000  C
  C364     1.0000 0.51281  0.13358  0.62426  Biso   1.000  C
  C365     1.0000 0.38553  0.97788  0.33116  Biso   1.000  C
  C366     1.0000 0.66393  0.84136  0.47865  Biso   1.000  C
  C367     1.0000 0.51155  0.62716  0.84339  Biso   1.000  C
  C368     1.0000 0.63956  0.47983  0.14163  Biso   1.000  C
  C369     1.0000 0.37143  0.35150  0.98148  Biso   1.000  C
  C370     1.0000 0.02137  0.63341  0.60834  Biso   1.000  C
  C371     1.0000 0.13931  0.46895  0.32112  Biso   1.000  C
  C372     1.0000 0.86934  0.33514  0.49971  Biso   1.000  C
  C373     1.0000 0.02280  0.82945  0.11172  Biso   1.000  C
  C374     1.0000 0.14341  0.99114  0.82348  Biso   1.000  C
  C375     1.0000 0.86386  0.11479  0.96148  Biso   1.000  C
  C376     1.0000 0.51168  0.82875  0.34325  Biso   1.000  C
  C377     1.0000 0.64136  0.97457  0.63583  Biso   1.000  C
  C378     1.0000 0.36827  0.12609  0.49145  Biso   1.000  C
  C379     1.0000 0.52663  0.32918  0.12711  Biso   1.000  C
  C380     1.0000 0.39956  0.47464  0.82441  Biso   1.000  C
  C381     1.0000 0.66915  0.61881  0.98723  Biso   1.000  C
  C382     1.0000 0.00537  0.32303  0.34854  Biso   1.000  C
  C383     1.0000 0.89755  0.47029  0.64191  Biso   1.000  C
  C384     1.0000 0.17039  0.62342  0.47066  Biso   1.000  C
  C385     1.0000 0.20588  0.13530  0.97888  Biso   1.000  C
  C386     1.0000 0.00982  0.16501  0.12987  Biso   1.000  C
  C387     1.0000 0.17061  0.00696  0.15827  Biso   1.000  C
  C388     1.0000 0.70258  0.12434  0.47961  Biso   1.000  C
  C389     1.0000 0.52259  0.16355  0.34508  Biso   1.000  C
  C390     1.0000 0.66819  0.97478  0.29719  Biso   1.000  C
  C391     1.0000 0.32882  0.63396  0.96861  Biso   1.000  C
  C392     1.0000 0.51542  0.66408  0.12746  Biso   1.000  C
  C393     1.0000 0.35649  0.47569  0.16097  Biso   1.000  C
  C394     1.0000 0.82977  0.61998  0.48047  Biso   1.000  C
  C395     1.0000 0.00395  0.66221  0.32289  Biso   1.000  C
  C396     1.0000 0.85837  0.46817  0.30576  Biso   1.000  C
  C397     1.0000 0.83414  0.83460  0.99114  Biso   1.000  C
  C398     1.0000 0.01022  0.79639  0.82713  Biso   1.000  C
  C399     1.0000 0.86105  0.96788  0.80093  Biso   1.000  C
  C400     1.0000 0.32366  0.84465  0.47607  Biso   1.000  C
  C401     1.0000 0.50887  0.79426  0.62357  Biso   1.000  C
  C402     1.0000 0.36066  0.97919  0.66654  Biso   1.000  C
  C403     1.0000 0.70538  0.33770  0.97563  Biso   1.000  C
  C404     1.0000 0.53691  0.28831  0.84659  Biso   1.000  C
  C405     1.0000 0.68356  0.46613  0.80538  Biso   1.000  C
  C406     1.0000 0.20252  0.34096  0.48256  Biso   1.000  C
  C407     1.0000 0.02676  0.29998  0.62957  Biso   1.000  C
  C408     1.0000 0.18448  0.47040  0.65766  Biso   1.000  C
  C409     1.0000 0.15914  0.99124  0.79684  Biso   1.000  C
  C410     1.0000 0.83812  0.13027  0.95472  Biso   1.000  C
  C411     1.0000 0.02278  0.80198  0.12580  Biso   1.000  C
  C412     1.0000 0.65694  0.97291  0.66428  Biso   1.000  C
  C413     1.0000 0.34159  0.14361  0.49409  Biso   1.000  C
  C414     1.0000 0.51194  0.80263  0.32657  Biso   1.000  C
  C415     1.0000 0.38334  0.47137  0.79622  Biso   1.000  C
  C416     1.0000 0.69515  0.63525  0.99018  Biso   1.000  C
  C417     1.0000 0.52405  0.30323  0.14403  Biso   1.000  C
  C418     1.0000 0.88423  0.47180  0.66913  Biso   1.000  C
  C419     1.0000 0.19463  0.64215  0.46936  Biso   1.000  C
  C420     1.0000 0.00420  0.29523  0.33314  Biso   1.000  C
  C421     1.0000 0.87077  0.98297  0.16510  Biso   1.000  C
  C422     1.0000 0.19490  0.83924  0.96472  Biso   1.000  C
  C423     1.0000 0.01616  0.15718  0.83042  Biso   1.000  C
  C424     1.0000 0.37093  0.97840  0.30293  Biso   1.000  C
  C425     1.0000 0.69050  0.82361  0.47996  Biso   1.000  C
  C426     1.0000 0.51131  0.16097  0.64225  Biso   1.000  C
  C427     1.0000 0.65403  0.47682  0.16973  Biso   1.000  C
  C428     1.0000 0.34318  0.33496  0.98030  Biso   1.000  C
  C429     1.0000 0.50700  0.65293  0.82526  Biso   1.000  C
  C430     1.0000 0.15451  0.46103  0.29459  Biso   1.000  C
  C431     1.0000 0.84446  0.31705  0.49907  Biso   1.000  C
  C432     1.0000 0.01770  0.65956  0.62409  Biso   1.000  C
  C433     1.0000 0.00296  0.12718  0.79875  Biso   1.000  C
  C434     1.0000 0.83896  0.99356  0.13362  Biso   1.000  C
  C435     1.0000 0.16016  0.80897  0.96196  Biso   1.000  C
  C436     1.0000 0.50875  0.12581  0.67325  Biso   1.000  C
  C437     1.0000 0.33746  0.98292  0.33418  Biso   1.000  C
  C438     1.0000 0.65685  0.79042  0.47385  Biso   1.000  C
  C439     1.0000 0.51289  0.61915  0.79486  Biso   1.000  C
  C440     1.0000 0.68918  0.47253  0.13751  Biso   1.000  C
  C441     1.0000 0.37566  0.30296  0.98873  Biso   1.000  C
  C442     1.0000 0.03076  0.62789  0.65681  Biso   1.000  C
  C443     1.0000 0.18700  0.46553  0.32674  Biso   1.000  C
  C444     1.0000 0.87855  0.28558  0.49585  Biso   1.000  C
  C445     1.0000 0.02589  0.83455  0.15930  Biso   1.000  C
  C446     1.0000 0.19268  0.99576  0.83023  Biso   1.000  C
  C447     1.0000 0.87130  0.16206  0.96036  Biso   1.000  C
  C448     1.0000 0.51801  0.83542  0.29443  Biso   1.000  C
  C449     1.0000 0.69021  0.97923  0.63267  Biso   1.000  C
  C450     1.0000 0.37530  0.17436  0.49212  Biso   1.000  C
  C451     1.0000 0.51952  0.33826  0.17489  Biso   1.000  C
  C452     1.0000 0.35139  0.47636  0.82975  Biso   1.000  C
  C453     1.0000 0.66160  0.66767  0.98719  Biso   1.000  C
  C454     1.0000 0.99677  0.32832  0.29949  Biso   1.000  C
  C455     1.0000 0.84927  0.46356  0.63875  Biso   1.000  C
  C456     1.0000 0.15876  0.66980  0.47623  Biso   1.000  C
  C457     1.0000 0.00699  0.62821  0.29118  Biso   1.000  C
  C458     1.0000 0.32977  0.99054  0.63376  Biso   1.000  C
  C459     1.0000 0.67562  0.30485  0.97949  Biso   1.000  C
  C460     1.0000 0.51680  0.63131  0.16217  Biso   1.000  C
  C461     1.0000 0.82963  0.97070  0.83309  Biso   1.000  C
  C462     1.0000 0.17055  0.30871  0.47602  Biso   1.000  C
  C463     1.0000 0.51804  0.13161  0.31092  Biso   1.000  C
  C464     1.0000 0.21539  0.47455  0.62299  Biso   1.000  C
  C465     1.0000 0.86704  0.80067  0.98325  Biso   1.000  C
  C466     1.0000 0.00867  0.13220  0.16219  Biso   1.000  C
  C467     1.0000 0.71369  0.46453  0.84188  Biso   1.000  C
  C468     1.0000 0.35521  0.81180  0.47347  Biso   1.000  C
  C469     1.0000 0.02327  0.33179  0.66128  Biso   1.000  C
  C470     1.0000 0.70147  0.97301  0.33068  Biso   1.000  C
  C471     1.0000 0.36391  0.66463  0.96647  Biso   1.000  C
  C472     1.0000 0.53938  0.31933  0.81033  Biso   1.000  C
  C473     1.0000 0.20158  0.00230  0.12563  Biso   1.000  C
  C474     1.0000 0.86016  0.65363  0.47285  Biso   1.000  C
  C475     1.0000 0.50752  0.82463  0.65675  Biso   1.000  C
  C476     1.0000 0.82561  0.46649  0.33948  Biso   1.000  C
  C477     1.0000 0.17153  0.16806  0.98437  Biso   1.000  C
  C478     1.0000 0.01183  0.82925  0.79340  Biso   1.000  C
  C479     1.0000 0.32628  0.47511  0.12639  Biso   1.000  C
  C480     1.0000 0.67091  0.15627  0.48891  Biso   1.000  C
  C481     1.0000 0.37077  0.78309  0.47669  Biso   1.000  C
  C482     1.0000 0.53729  0.33366  0.78116  Biso   1.000  C
  C483     1.0000 0.79814  0.46515  0.35672  Biso   1.000  C
  C484     1.0000 0.88152  0.77317  0.97610  Biso   1.000  C
  C485     1.0000 0.02236  0.34805  0.68742  Biso   1.000  C
  C486     1.0000 0.30018  0.47370  0.10893  Biso   1.000  C
  C487     1.0000 0.15772  0.28035  0.47080  Biso   1.000  C
  C488     1.0000 0.01756  0.84435  0.76637  Biso   1.000  C
  C489     1.0000 0.72866  0.97368  0.34841  Biso   1.000  C
  C490     1.0000 0.66082  0.27701  0.98329  Biso   1.000  C
  C491     1.0000 0.50562  0.84114  0.68362  Biso   1.000  C
  C492     1.0000 0.22897  0.99300  0.11132  Biso   1.000  C
  C493     1.0000 0.65602  0.18402  0.49616  Biso   1.000  C
  C494     1.0000 0.52072  0.61426  0.18951  Biso   1.000  C
  C495     1.0000 0.24224  0.47360  0.60615  Biso   1.000  C
  C496     1.0000 0.15548  0.19437  0.99092  Biso   1.000  C
  C497     1.0000 0.01336  0.61107  0.26484  Biso   1.000  C
  C498     1.0000 0.73949  0.46234  0.86066  Biso   1.000  C
  C499     1.0000 0.87285  0.68225  0.46952  Biso   1.000  C
  C500     1.0000 0.00622  0.11711  0.18968  Biso   1.000  C
  C501     1.0000 0.30354  0.99913  0.61596  Biso   1.000  C
  C502     1.0000 0.38037  0.69213  0.96749  Biso   1.000  C
  C503     1.0000 0.50895  0.11842  0.28386  Biso   1.000  C
  C504     1.0000 0.80348  0.96736  0.84795  Biso   1.000  C
  C505     1.0000 0.66915  0.46735  0.77727  Biso   1.000  C
  C506     1.0000 0.80440  0.60131  0.48516  Biso   1.000  C
  C507     1.0000 0.50607  0.76756  0.60756  Biso   1.000  C
  C508     1.0000 0.16816  0.46677  0.68509  Biso   1.000  C
  C509     1.0000 0.30150  0.61817  0.97138  Biso   1.000  C
  C510     1.0000 0.00843  0.77045  0.84528  Biso   1.000  C
  C511     1.0000 0.87517  0.96552  0.77152  Biso   1.000  C
  C512     1.0000 0.72749  0.10982  0.46882  Biso   1.000  C
  C513     1.0000 0.03157  0.27276  0.61412  Biso   1.000  C
  C514     1.0000 0.37569  0.97647  0.69473  Biso   1.000  C
  C515     1.0000 0.23296  0.11847  0.97608  Biso   1.000  C
  C516     1.0000 0.53984  0.26216  0.86477  Biso   1.000  C
  C517     1.0000 0.37121  0.47632  0.18864  Biso   1.000  C
  C518     1.0000 0.22944  0.35603  0.48503  Biso   1.000  C
  C519     1.0000 0.52617  0.19023  0.36072  Biso   1.000  C
  C520     1.0000 0.87290  0.47502  0.27800  Biso   1.000  C
  C521     1.0000 0.73136  0.35483  0.97178  Biso   1.000  C
  C522     1.0000 0.01346  0.19155  0.11331  Biso   1.000  C
  C523     1.0000 0.15501  0.01109  0.18538  Biso   1.000  C
  C524     1.0000 0.29792  0.86262  0.47541  Biso   1.000  C
  C525     1.0000 0.00462  0.68806  0.33972  Biso   1.000  C
  C526     1.0000 0.65000  0.97640  0.27103  Biso   1.000  C
  C527     1.0000 0.80734  0.85013  0.99883  Biso   1.000  C
  C528     1.0000 0.51578  0.69115  0.11069  Biso   1.000  C
  C529     1.0000 0.81079  0.11584  0.94756  Biso   1.000  C
  C530     1.0000 0.02447  0.77469  0.11216  Biso   1.000  C
  C531     1.0000 0.14462  0.98875  0.76973  Biso   1.000  C
  C532     1.0000 0.31384  0.12835  0.49694  Biso   1.000  C
  C533     1.0000 0.51047  0.77466  0.34261  Biso   1.000  C
  C534     1.0000 0.63981  0.96334  0.69066  Biso   1.000  C
  C535     1.0000 0.72301  0.62090  0.98998  Biso   1.000  C
  C536     1.0000 0.52463  0.27525  0.12897  Biso   1.000  C
  C537     1.0000 0.40097  0.46653  0.77067  Biso   1.000  C
  C538     1.0000 0.22269  0.62954  0.46270  Biso   1.000  C
  C539     1.0000 0.00841  0.26689  0.34998  Biso   1.000  C
  C540     1.0000 0.90321  0.47877  0.69319  Biso   1.000  C
  C541     1.0000 0.22275  0.85384  0.96887  Biso   1.000  C
  C542     1.0000 0.02709  0.18336  0.84543  Biso   1.000  C
  C543     1.0000 0.88846  0.97658  0.19186  Biso   1.000  C
  C544     1.0000 0.71780  0.83856  0.48503  Biso   1.000  C
  C545     1.0000 0.50844  0.18888  0.62883  Biso   1.000  C
  C546     1.0000 0.38891  0.97671  0.27724  Biso   1.000  C
  C547     1.0000 0.31562  0.34948  0.97641  Biso   1.000  C
  C548     1.0000 0.50016  0.68156  0.83674  Biso   1.000  C
  C549     1.0000 0.63901  0.48213  0.19620  Biso   1.000  C
  C550     1.0000 0.81544  0.33245  0.49708  Biso   1.000  C
  C551     1.0000 0.00870  0.68672  0.60941  Biso   1.000  C
  C552     1.0000 0.13625  0.45463  0.26950  Biso   1.000  C
  C553     1.0000 0.99505  0.11246  0.77275  Biso   1.000  C
  C554     1.0000 0.81304  0.00382  0.11775  Biso   1.000  C
  C555     1.0000 0.14487  0.78170  0.95968  Biso   1.000  C
  C556     1.0000 0.51086  0.10908  0.70008  Biso   1.000  C
  C557     1.0000 0.31052  0.98934  0.34810  Biso   1.000  C
  C558     1.0000 0.64016  0.76397  0.47412  Biso   1.000  C
  C559     1.0000 0.51665  0.60201  0.76838  Biso   1.000  C
  C560     1.0000 0.71684  0.46864  0.12169  Biso   1.000  C
  C561     1.0000 0.38951  0.27535  0.99204  Biso   1.000  C
  C562     1.0000 0.03793  0.61455  0.68470  Biso   1.000  C
  C563     1.0000 0.21617  0.46730  0.34117  Biso   1.000  C
  C564     1.0000 0.89545  0.25883  0.49360  Biso   1.000  C
  C565     1.0000 0.02393  0.85073  0.18798  Biso   1.000  C
  C566     1.0000 0.22122  0.99978  0.84654  Biso   1.000  C
  C567     1.0000 0.88709  0.18890  0.96234  Biso   1.000  C
  C568     1.0000 0.52235  0.85080  0.26698  Biso   1.000  C
  C569     1.0000 0.71642  0.98545  0.61697  Biso   1.000  C
  C570     1.0000 0.39087  0.20274  0.48844  Biso   1.000  C
  C571     1.0000 0.51989  0.35391  0.20324  Biso   1.000  C
  C572     1.0000 0.32451  0.48158  0.84407  Biso   1.000  C
  C573     1.0000 0.64333  0.69401  0.98582  Biso   1.000  C
  C574     1.0000 0.98804  0.34433  0.27337  Biso   1.000  C
  C575     1.0000 0.82076  0.45749  0.62372  Biso   1.000  C
  C576     1.0000 0.14145  0.69339  0.48860  Biso   1.000  C
  C577     1.0000 0.30196  0.47371  0.07782  Biso   1.000  C
  C578     1.0000 0.12822  0.28156  0.46545  Biso   1.000  C
  C579     1.0000 0.50575  0.08677  0.28383  Biso   1.000  C
  C580     1.0000 0.79940  0.46456  0.38884  Biso   1.000  C
  C581     1.0000 0.63030  0.27486  0.99002  Biso   1.000  C
  C582     1.0000 0.00913  0.08558  0.19115  Biso   1.000  C
  C583     1.0000 0.22790  0.98838  0.07947  Biso   1.000  C
  C584     1.0000 0.40231  0.78207  0.47910  Biso   1.000  C
  C585     1.0000 0.01397  0.57901  0.26830  Biso   1.000  C
  C586     1.0000 0.72884  0.97385  0.37990  Biso   1.000  C
  C587     1.0000 0.91277  0.77256  0.97338  Biso   1.000  C
  C588     1.0000 0.52013  0.58349  0.18976  Biso   1.000  C
  C589     1.0000 0.73623  0.46767  0.89103  Biso   1.000  C
  C590     1.0000 0.90548  0.68464  0.46969  Biso   1.000  C
  C591     1.0000 0.50798  0.87266  0.68498  Biso   1.000  C
  C592     1.0000 0.24022  0.47889  0.57524  Biso   1.000  C
  C593     1.0000 0.41127  0.69265  0.96908  Biso   1.000  C
  C594     1.0000 0.01832  0.87573  0.76609  Biso   1.000  C
  C595     1.0000 0.80472  0.97198  0.87939  Biso   1.000  C
  C596     1.0000 0.62436  0.18346  0.49674  Biso   1.000  C
  C597     1.0000 0.02417  0.37948  0.68656  Biso   1.000  C
  C598     1.0000 0.30512  0.00037  0.58422  Biso   1.000  C
  C599     1.0000 0.12354  0.19338  0.99049  Biso   1.000  C
  C600     1.0000 0.53670  0.36480  0.78023  Biso   1.000  C
  C601     1.0000 0.21981  0.00323  0.87717  Biso   1.000  C
  C602     1.0000 0.91742  0.18895  0.97123  Biso   1.000  C
  C603     1.0000 0.03009  0.88226  0.18669  Biso   1.000  C
  C604     1.0000 0.71690  0.98378  0.58525  Biso   1.000  C
  C605     1.0000 0.42144  0.20191  0.48475  Biso   1.000  C
  C606     1.0000 0.52337  0.88189  0.26790  Biso   1.000  C
  C607     1.0000 0.32110  0.48561  0.87523  Biso   1.000  C
  C608     1.0000 0.61065  0.69320  0.98334  Biso   1.000  C
  C609     1.0000 0.52318  0.38549  0.20266  Biso   1.000  C
  C610     1.0000 0.82032  0.45627  0.59236  Biso   1.000  C
  C611     1.0000 0.11053  0.69048  0.49114  Biso   1.000  C
  C612     1.0000 0.98904  0.37625  0.27420  Biso   1.000  C
  C613     1.0000 0.81362  0.00639  0.08603  Biso   1.000  C
  C614     1.0000 0.11395  0.78181  0.96406  Biso   1.000  C
  C615     1.0000 0.99556  0.08004  0.77444  Biso   1.000  C
  C616     1.0000 0.31049  0.99229  0.37942  Biso   1.000  C
  C617     1.0000 0.60827  0.76603  0.47401  Biso   1.000  C
  C618     1.0000 0.50982  0.07772  0.69776  Biso   1.000  C
  C619     1.0000 0.71745  0.46841  0.09032  Biso   1.000  C
  C620     1.0000 0.42049  0.27360  0.99594  Biso   1.000  C
  C621     1.0000 0.52244  0.57102  0.77037  Biso   1.000  C
  C622     1.0000 0.21491  0.47583  0.37001  Biso   1.000  C
  C623     1.0000 0.92603  0.26298  0.48965  Biso   1.000  C
  C624     1.0000 0.04381  0.58363  0.68455  Biso   1.000  C
  C625     1.0000 0.03069  0.18371  0.87656  Biso   1.000  C
  C626     1.0000 0.91978  0.97430  0.19009  Biso   1.000  C
  C627     1.0000 0.22299  0.88568  0.97205  Biso   1.000  C
  C628     1.0000 0.51273  0.19026  0.59675  Biso   1.000  C
  C629     1.0000 0.42011  0.97292  0.27888  Biso   1.000  C
  C630     1.0000 0.71932  0.86999  0.48560  Biso   1.000  C
  C631     1.0000 0.49883  0.68443  0.86847  Biso   1.000  C
  C632     1.0000 0.60764  0.48488  0.19665  Biso   1.000  C
  C633     1.0000 0.31769  0.38038  0.97344  Biso   1.000  C
  C634     1.0000 0.00439  0.68623  0.57731  Biso   1.000  C
  C635     1.0000 0.10451  0.45855  0.27107  Biso   1.000  C
  C636     1.0000 0.81291  0.36336  0.49568  Biso   1.000  C
  C637     1.0000 0.02111  0.77652  0.08062  Biso   1.000  C
  C638     1.0000 0.11245  0.98920  0.76624  Biso   1.000  C
  C639     1.0000 0.81120  0.08396  0.95226  Biso   1.000  C
  C640     1.0000 0.50607  0.77319  0.37403  Biso   1.000  C
  C641     1.0000 0.60832  0.96381  0.68839  Biso   1.000  C
  C642     1.0000 0.31570  0.09713  0.49706  Biso   1.000  C
  C643     1.0000 0.52499  0.27448  0.09791  Biso   1.000  C
  C644     1.0000 0.43250  0.46363  0.77438  Biso   1.000  C
  C645     1.0000 0.72479  0.58860  0.99224  Biso   1.000  C
  C646     1.0000 0.01186  0.26896  0.38192  Biso   1.000  C
  C647     1.0000 0.93537  0.48149  0.69172  Biso   1.000  C
  C648     1.0000 0.22597  0.59806  0.46425  Biso   1.000  C
  C649     1.0000 0.00515  0.68688  0.37161  Biso   1.000  C
  C650     1.0000 0.40791  0.97500  0.69532  Biso   1.000  C
  C651     1.0000 0.72759  0.38599  0.97162  Biso   1.000  C
  C652     1.0000 0.51135  0.68987  0.07926  Biso   1.000  C
  C653     1.0000 0.90692  0.96934  0.77153  Biso   1.000  C
  C654     1.0000 0.22983  0.38828  0.48488  Biso   1.000  C
  C655     1.0000 0.52886  0.19024  0.39103  Biso   1.000  C
  C656     1.0000 0.13680  0.46889  0.68358  Biso   1.000  C
  C657     1.0000 0.80868  0.88186  0.00177  Biso   1.000  C
  C658     1.0000 0.01507  0.19196  0.08078  Biso   1.000  C
  C659     1.0000 0.63699  0.46952  0.77533  Biso   1.000  C
  C660     1.0000 0.29922  0.89352  0.47831  Biso   1.000  C
  C661     1.0000 0.03533  0.27372  0.58286  Biso   1.000  C
  C662     1.0000 0.61827  0.98051  0.27107  Biso   1.000  C
  C663     1.0000 0.30277  0.58634  0.97078  Biso   1.000  C
  C664     1.0000 0.53568  0.26584  0.89598  Biso   1.000  C
  C665     1.0000 0.12386  0.00763  0.18538  Biso   1.000  C
  C666     1.0000 0.80789  0.57064  0.49171  Biso   1.000  C
  C667     1.0000 0.50851  0.76689  0.57544  Biso   1.000  C
  C668     1.0000 0.90204  0.48413  0.27814  Biso   1.000  C
  C669     1.0000 0.23115  0.08795  0.97153  Biso   1.000  C
  C670     1.0000 0.00986  0.77145  0.87603  Biso   1.000  C
  C671     1.0000 0.40262  0.47889  0.19112  Biso   1.000  C
  C672     1.0000 0.72609  0.07902  0.46388  Biso   1.000  C
  C673     1.0000 0.20716  0.99115  0.78502  Biso   1.000  C
  C674     1.0000 0.82603  0.17885  0.95380  Biso   1.000  C
  C675     1.0000 0.02385  0.78582  0.17054  Biso   1.000  C
  C676     1.0000 0.70328  0.97123  0.68125  Biso   1.000  C
  C677     1.0000 0.32890  0.18954  0.49607  Biso   1.000  C
  C678     1.0000 0.51442  0.78899  0.28219  Biso   1.000  C
  C679     1.0000 0.33757  0.47384  0.78159  Biso   1.000  C
  C680     1.0000 0.70856  0.68176  0.99292  Biso   1.000  C
  C681     1.0000 0.51976  0.29074  0.19039  Biso   1.000  C
  C682     1.0000 0.83907  0.46697  0.68668  Biso   1.000  C
  C683     1.0000 0.20144  0.69053  0.46746  Biso   1.000  C
  C684     1.0000 0.99629  0.28238  0.28729  Biso   1.000  C
  C685     1.0000 0.82469  0.98984  0.18079  Biso   1.000  C
  C686     1.0000 0.20839  0.79366  0.96158  Biso   1.000  C
  C687     1.0000 0.01105  0.17464  0.78506  Biso   1.000  C
  C688     1.0000 0.32373  0.98443  0.28780  Biso   1.000  C
  C689     1.0000 0.70388  0.77510  0.47425  Biso   1.000  C
  C690     1.0000 0.51353  0.17220  0.68768  Biso   1.000  C
  C691     1.0000 0.70218  0.47224  0.18581  Biso   1.000  C
  C692     1.0000 0.32882  0.28906  0.98737  Biso   1.000  C
  C693     1.0000 0.50782  0.66532  0.77914  Biso   1.000  C
  C694     1.0000 0.20009  0.46146  0.27901  Biso   1.000  C
  C695     1.0000 0.83180  0.27036  0.49850  Biso   1.000  C
  C696     1.0000 0.01701  0.67348  0.67028  Biso   1.000  C
  C697     1.0000 0.71478  0.97562  0.28268  Biso   1.000  C
  C698     1.0000 0.31701  0.68303  0.96575  Biso   1.000  C
  C699     1.0000 0.02139  0.28480  0.67764  Biso   1.000  C
  C700     1.0000 0.21739  0.00450  0.17137  Biso   1.000  C
  C701     1.0000 0.81101  0.66277  0.47220  Biso   1.000  C
  C702     1.0000 0.53914  0.27160  0.80044  Biso   1.000  C
  C703     1.0000 0.81335  0.46275  0.29176  Biso   1.000  C
  C704     1.0000 0.21835  0.18183  0.98274  Biso   1.000  C
  C705     1.0000 0.50326  0.77619  0.67019  Biso   1.000  C
  C706     1.0000 0.31021  0.47431  0.17304  Biso   1.000  C
  C707     1.0000 0.71770  0.17028  0.49060  Biso   1.000  C
  C708     1.0000 0.00940  0.78302  0.77864  Biso   1.000  C
  C709     1.0000 0.31206  0.98362  0.67804  Biso   1.000  C
  C710     1.0000 0.72036  0.29186  0.96938  Biso   1.000  C
  C711     1.0000 0.00758  0.67413  0.27582  Biso   1.000  C
  C712     1.0000 0.81456  0.96761  0.78688  Biso   1.000  C
  C713     1.0000 0.21779  0.29407  0.48418  Biso   1.000  C
  C714     1.0000 0.51860  0.67712  0.17610  Biso   1.000  C
  C715     1.0000 0.23120  0.46710  0.67024  Biso   1.000  C
  C716     1.0000 0.81890  0.78931  0.98811  Biso   1.000  C
  C717     1.0000 0.51898  0.17803  0.29741  Biso   1.000  C
  C718     1.0000 0.73109  0.46165  0.79684  Biso   1.000  C
  C719     1.0000 0.30799  0.79863  0.47017  Biso   1.000  C
  C720     1.0000 0.00724  0.17835  0.17607  Biso   1.000  C
  C721     1.0000 0.53648  0.78792  0.25931  Biso   1.000  C
  C722     1.0000 0.34082  0.48768  0.75267  Biso   1.000  C
  C723     1.0000 0.80539  0.27469  0.51536  Biso   1.000  C
  C724     1.0000 0.99866  0.76615  0.16929  Biso   1.000  C
  C725     1.0000 0.80997  0.48126  0.68346  Biso   1.000  C
  C726     1.0000 0.30785  0.28728  0.96294  Biso   1.000  C
  C727     1.0000 0.98155  0.25423  0.29220  Biso   1.000  C
  C728     1.0000 0.22974  0.01416  0.78390  Biso   1.000  C
  C729     1.0000 0.73044  0.77258  0.49262  Biso   1.000  C
  C730     1.0000 0.49544  0.28827  0.21207  Biso   1.000  C
  C731     1.0000 0.73153  0.95860  0.67474  Biso   1.000  C
  C732     1.0000 0.23604  0.79924  0.94756  Biso   1.000  C
  C733     1.0000 0.49708  0.17002  0.71397  Biso   1.000  C
  C734     1.0000 0.69641  0.45516  0.21177  Biso   1.000  C
  C735     1.0000 0.19289  0.71841  0.45482  Biso   1.000  C
  C736     1.0000 0.00165  0.20454  0.79284  Biso   1.000  C
  C737     1.0000 0.22902  0.44970  0.28283  Biso   1.000  C
  C738     1.0000 0.73229  0.67922  0.01386  Biso   1.000  C
  C739     1.0000 0.03999  0.67739  0.69064  Biso   1.000  C
  C740     1.0000 0.79703  0.97859  0.17358  Biso   1.000  C
  C741     1.0000 0.30099  0.18420  0.48161  Biso   1.000  C
  C742     1.0000 0.52921  0.66672  0.75707  Biso   1.000  C
  C743     1.0000 0.29578  0.96885  0.28856  Biso   1.000  C
  C744     1.0000 0.82658  0.20214  0.97667  Biso   1.000  C
  C745     1.0000 0.02028  0.70155  0.28140  Biso   1.000  C
  C746     1.0000 0.29195  0.00838  0.67803  Biso   1.000  C
  C747     1.0000 0.75027  0.29425  0.98037  Biso   1.000  C
  C748     1.0000 0.53327  0.70365  0.17137  Biso   1.000  C
  C749     1.0000 0.81530  0.94623  0.76334  Biso   1.000  C
  C750     1.0000 0.23620  0.29456  0.50900  Biso   1.000  C
  C751     1.0000 0.53311  0.17490  0.26870  Biso   1.000  C
  C752     1.0000 0.25780  0.44999  0.66561  Biso   1.000  C
  C753     1.0000 0.78985  0.79568  0.97761  Biso   1.000  C
  C754     1.0000 0.02233  0.17713  0.20382  Biso   1.000  C
  C755     1.0000 0.72800  0.44721  0.76978  Biso   1.000  C
  C756     1.0000 0.28057  0.80156  0.48349  Biso   1.000  C
  C757     1.0000 0.00508  0.25749  0.67223  Biso   1.000  C
  C758     1.0000 0.71042  0.99621  0.25872  Biso   1.000  C
  C759     1.0000 0.29707  0.68667  0.98896  Biso   1.000  C
  C760     1.0000 0.55533  0.27305  0.77447  Biso   1.000  C
  C761     1.0000 0.24743  0.01536  0.16975  Biso   1.000  C
  C762     1.0000 0.81104  0.68580  0.45163  Biso   1.000  C
  C763     1.0000 0.48722  0.77898  0.69806  Biso   1.000  C
  C764     1.0000 0.78828  0.48189  0.29437  Biso   1.000  C
  C765     1.0000 0.24559  0.17903  0.99894  Biso   1.000  C
  C766     1.0000 0.99589  0.78696  0.74990  Biso   1.000  C
  C767     1.0000 0.31159  0.49285  0.19819  Biso   1.000  C
  C768     1.0000 0.71472  0.19936  0.47767  Biso   1.000  C
  C769     1.0000 0.48393  0.68677  0.77867  Biso   1.000  C
  C770     1.0000 0.84508  0.45353  0.71658  Biso   1.000  C
  C771     1.0000 0.69976  0.75258  0.45276  Biso   1.000  C
  C772     1.0000 0.99117  0.69103  0.67231  Biso   1.000  C
  C773     1.0000 0.31337  0.45526  0.78575  Biso   1.000  C
  C774     1.0000 0.20458  0.76570  0.97393  Biso   1.000  C
  C775     1.0000 0.02016  0.17051  0.75458  Biso   1.000  C
  C776     1.0000 0.69563  0.97911  0.71003  Biso   1.000  C
  C777     1.0000 0.83240  0.24304  0.48179  Biso   1.000  C
  C778     1.0000 0.53558  0.19491  0.68457  Biso   1.000  C
  C779     1.0000 0.20619  0.96985  0.76173  Biso   1.000  C
  C780     1.0000 0.32425  0.26928  0.01091  Biso   1.000  C
  C781     1.0000 0.53930  0.26566  0.19128  Biso   1.000  C
  C782     1.0000 0.19338  0.47467  0.25006  Biso   1.000  C
  C783     1.0000 0.33240  0.21749  0.51285  Biso   1.000  C
  C784     1.0000 0.00996  0.28926  0.26020  Biso   1.000  C
  C785     1.0000 0.73135  0.48375  0.18324  Biso   1.000  C
  C786     1.0000 0.80494  0.18327  0.93114  Biso   1.000  C
  C787     1.0000 0.04501  0.78063  0.19361  Biso   1.000  C
  C788     1.0000 0.32937  0.00099  0.26119  Biso   1.000  C
  C789     1.0000 0.23087  0.68917  0.47765  Biso   1.000  C
  C790     1.0000 0.49255  0.76540  0.28140  Biso   1.000  C
  C791     1.0000 0.83070  0.00007  0.21009  Biso   1.000  C
  C792     1.0000 0.70873  0.70582  0.97281  Biso   1.000  C
  C793     1.0000 0.50356  0.20514  0.30288  Biso   1.000  C
  C794     1.0000 0.28491  0.45469  0.16903  Biso   1.000  C
  C795     1.0000 0.21905  0.27067  0.46401  Biso   1.000  C
  C796     1.0000 0.99035  0.20567  0.16970  Biso   1.000  C
  C797     1.0000 0.81619  0.44484  0.26572  Biso   1.000  C
  C798     1.0000 0.71379  0.26753  0.95071  Biso   1.000  C
  C799     1.0000 0.99367  0.66977  0.24680  Biso   1.000  C
  C800     1.0000 0.21196  0.98705  0.19678  Biso   1.000  C
  C801     1.0000 0.31051  0.77589  0.44801  Biso   1.000  C
  C802     1.0000 0.50375  0.67333  0.20328  Biso   1.000  C
  C803     1.0000 0.74258  0.95976  0.28584  Biso   1.000  C
  C804     1.0000 0.82443  0.75944  0.99896  Biso   1.000  C
  C805     1.0000 0.51736  0.74757  0.66543  Biso   1.000  C
  C806     1.0000 0.75757  0.47787  0.80212  Biso   1.000  C
  C807     1.0000 0.78605  0.66165  0.49161  Biso   1.000  C
  C808     1.0000 0.02541  0.75616  0.78266  Biso   1.000  C
  C809     1.0000 0.22847  0.47994  0.69948  Biso   1.000  C
  C810     1.0000 0.31474  0.70496  0.94265  Biso   1.000  C
  C811     1.0000 0.03380  0.28882  0.70695  Biso   1.000  C
  C812     1.0000 0.79030  0.98565  0.78914  Biso   1.000  C
  C813     1.0000 0.74499  0.16403  0.50557  Biso   1.000  C
  C814     1.0000 0.52210  0.24543  0.80539  Biso   1.000  C
  C815     1.0000 0.30850  0.96045  0.70063  Biso   1.000  C
  C816     1.0000 0.21376  0.20873  0.96754  Biso   1.000  C
  C817     1.0000 0.00331  0.22801  0.77135  Biso   1.000  C
  C818     1.0000 0.77629  0.97962  0.19425  Biso   1.000  C
  C819     1.0000 0.25939  0.77888  0.94938  Biso   1.000  C
  C820     1.0000 0.50053  0.19089  0.73557  Biso   1.000  C
  C821     1.0000 0.27613  0.97388  0.26536  Biso   1.000  C
  C822     1.0000 0.74846  0.74836  0.49039  Biso   1.000  C
  C823     1.0000 0.52744  0.68817  0.73597  Biso   1.000  C
  C824     1.0000 0.71704  0.44838  0.23231  Biso   1.000  C
  C825     1.0000 0.28480  0.26702  0.96224  Biso   1.000  C
  C826     1.0000 0.03668  0.69844  0.71274  Biso   1.000  C
  C827     1.0000 0.24933  0.45403  0.26185  Biso   1.000  C
  C828     1.0000 0.78259  0.25630  0.51386  Biso   1.000  C
  C829     1.0000 0.99475  0.74258  0.18811  Biso   1.000  C
  C830     1.0000 0.25021  0.01394  0.76154  Biso   1.000  C
  C831     1.0000 0.80597  0.22359  0.97560  Biso   1.000  C
  C832     1.0000 0.53599  0.76899  0.23611  Biso   1.000  C
  C833     1.0000 0.75275  0.95996  0.69700  Biso   1.000  C
  C834     1.0000 0.28051  0.20553  0.48207  Biso   1.000  C
  C835     1.0000 0.49738  0.26615  0.23367  Biso   1.000  C
  C836     1.0000 0.31880  0.48265  0.73148  Biso   1.000  C
  C837     1.0000 0.75353  0.70195  0.01568  Biso   1.000  C
  C838     1.0000 0.98279  0.23411  0.26975  Biso   1.000  C
  C839     1.0000 0.79096  0.48046  0.70599  Biso   1.000  C
  C840     1.0000 0.21203  0.74082  0.45260  Biso   1.000  C
  C841     1.0000 0.22918  0.96867  0.74243  Biso   1.000  C
  C842     1.0000 0.78441  0.20586  0.93180  Biso   1.000  C
  C843     1.0000 0.04087  0.75826  0.21330  Biso   1.000  C
  C844     1.0000 0.71674  0.97675  0.73254  Biso   1.000  C
  C845     1.0000 0.30984  0.23763  0.51197  Biso   1.000  C
  C846     1.0000 0.49389  0.74534  0.25916  Biso   1.000  C
  C847     1.0000 0.29341  0.45027  0.76361  Biso   1.000  C
  C848     1.0000 0.73081  0.72621  0.97463  Biso   1.000  C
  C849     1.0000 0.53942  0.24335  0.21129  Biso   1.000  C
  C850     1.0000 0.82378  0.45283  0.73817  Biso   1.000  C
  C851     1.0000 0.25185  0.71038  0.47274  Biso   1.000  C
  C852     1.0000 0.01182  0.26752  0.23896  Biso   1.000  C
  C853     1.0000 0.80927  0.00008  0.23034  Biso   1.000  C
  C854     1.0000 0.22736  0.74454  0.97347  Biso   1.000  C
  C855     1.0000 0.02028  0.19477  0.73526  Biso   1.000  C
  C856     1.0000 0.30946  0.00270  0.23826  Biso   1.000  C
  C857     1.0000 0.71906  0.72856  0.45070  Biso   1.000  C
  C858     1.0000 0.53740  0.21556  0.70660  Biso   1.000  C
  C859     1.0000 0.75296  0.47831  0.20539  Biso   1.000  C
  C860     1.0000 0.30102  0.25011  0.00957  Biso   1.000  C
  C861     1.0000 0.48300  0.70900  0.75676  Biso   1.000  C
  C862     1.0000 0.21567  0.47890  0.22995  Biso   1.000  C
  C863     1.0000 0.80896  0.22437  0.48163  Biso   1.000  C
  C864     1.0000 0.98931  0.71345  0.69293  Biso   1.000  C
  C865     1.0000 0.74958  0.44762  0.74931  Biso   1.000  C
  C866     1.0000 0.78949  0.70558  0.44999  Biso   1.000  C
  C867     1.0000 0.48660  0.75652  0.71810  Biso   1.000  C
  C868     1.0000 0.27913  0.44945  0.68804  Biso   1.000  C
  C869     1.0000 0.27568  0.70813  0.98797  Biso   1.000  C
  C870     1.0000 0.99828  0.76559  0.72835  Biso   1.000  C
  C871     1.0000 0.79099  0.94449  0.74448  Biso   1.000  C
  C872     1.0000 0.73838  0.21754  0.47949  Biso   1.000  C
  C873     1.0000 0.00423  0.23807  0.69447  Biso   1.000  C
  C874     1.0000 0.27184  0.01037  0.70056  Biso   1.000  C
  C875     1.0000 0.26516  0.20115  0.00125  Biso   1.000  C
  C876     1.0000 0.55084  0.25318  0.75261  Biso   1.000  C
  C877     1.0000 0.29032  0.48806  0.21995  Biso   1.000  C
  C878     1.0000 0.25764  0.27493  0.51208  Biso   1.000  C
  C879     1.0000 0.53288  0.19604  0.24894  Biso   1.000  C
  C880     1.0000 0.76512  0.47911  0.27478  Biso   1.000  C
  C881     1.0000 0.76939  0.27324  0.97407  Biso   1.000  C
  C882     1.0000 0.01605  0.19824  0.22444  Biso   1.000  C
  C883     1.0000 0.26728  0.00984  0.19147  Biso   1.000  C
  C884     1.0000 0.25821  0.78147  0.47941  Biso   1.000  C
  C885     1.0000 0.02395  0.72094  0.25890  Biso   1.000  C
  C886     1.0000 0.73240  0.00099  0.23844  Biso   1.000  C
  C887     1.0000 0.76754  0.77635  0.98117  Biso   1.000  C
  C888     1.0000 0.53147  0.72603  0.19132  Biso   1.000  C
  C889     1.0000 0.76396  0.96542  0.26492  Biso   1.000  C
  C890     1.0000 0.29536  0.72777  0.94301  Biso   1.000  C
  C891     1.0000 0.02922  0.26993  0.72948  Biso   1.000  C
  C892     1.0000 0.23279  0.98251  0.21864  Biso   1.000  C
  C893     1.0000 0.76417  0.68229  0.48967  Biso   1.000  C
  C894     1.0000 0.51758  0.22583  0.78322  Biso   1.000  C
  C895     1.0000 0.79238  0.44488  0.24610  Biso   1.000  C
  C896     1.0000 0.23439  0.23149  0.97011  Biso   1.000  C
  C897     1.0000 0.51521  0.72496  0.68678  Biso   1.000  C
  C898     1.0000 0.26355  0.45316  0.19042  Biso   1.000  C
  C899     1.0000 0.76638  0.18442  0.50917  Biso   1.000  C
  C900     1.0000 0.02588  0.73579  0.76155  Biso   1.000  C
  C901     1.0000 0.28752  0.96366  0.72085  Biso   1.000  C
  C902     1.0000 0.73573  0.24689  0.94454  Biso   1.000  C
  C903     1.0000 0.99761  0.69170  0.22515  Biso   1.000  C
  C904     1.0000 0.76621  0.98397  0.77091  Biso   1.000  C
  C905     1.0000 0.24149  0.25089  0.46618  Biso   1.000  C
  C906     1.0000 0.50463  0.69501  0.22317  Biso   1.000  C
  C907     1.0000 0.24854  0.47804  0.72111  Biso   1.000  C
  C908     1.0000 0.80147  0.74161  0.00213  Biso   1.000  C
  C909     1.0000 0.50671  0.22794  0.28282  Biso   1.000  C
  C910     1.0000 0.77860  0.47872  0.78121  Biso   1.000  C
  C911     1.0000 0.28800  0.75620  0.44561  Biso   1.000  C
  C912     1.0000 0.98616  0.22764  0.19147  Biso   1.000  C
  C913     1.0000 0.79675  0.46665  0.73286  Biso   1.000  C
  C914     1.0000 0.74291  0.72726  0.47035  Biso   1.000  C
  C915     1.0000 0.50481  0.70917  0.73506  Biso   1.000  C
  C916     1.0000 0.29624  0.46395  0.73729  Biso   1.000  C
  C917     1.0000 0.25412  0.75213  0.96351  Biso   1.000  C
  C918     1.0000 0.01165  0.71605  0.71342  Biso   1.000  C
  C919     1.0000 0.74424  0.96583  0.72540  Biso   1.000  C
  C920     1.0000 0.78514  0.23188  0.49716  Biso   1.000  C
  C921     1.0000 0.01226  0.22118  0.74418  Biso   1.000  C
  C922     1.0000 0.25009  0.99015  0.74188  Biso   1.000  C
  C923     1.0000 0.28142  0.24883  0.98594  Biso   1.000  C
  C924     1.0000 0.52232  0.21270  0.73168  Biso   1.000  C
  C925     1.0000 0.24288  0.46788  0.23600  Biso   1.000  C
  C926     1.0000 0.28480  0.23186  0.49529  Biso   1.000  C
  C927     1.0000 0.51980  0.24623  0.23358  Biso   1.000  C
  C928     1.0000 0.74522  0.45996  0.22881  Biso   1.000  C
  C929     1.0000 0.78463  0.22632  0.95530  Biso   1.000  C
  C930     1.0000 0.99572  0.24198  0.24387  Biso   1.000  C
  C931     1.0000 0.28261  0.98965  0.23996  Biso   1.000  C
  C932     1.0000 0.24204  0.73581  0.45736  Biso   1.000  C
  C933     1.0000 0.01587  0.74050  0.21010  Biso   1.000  C
  C934     1.0000 0.78267  0.98918  0.22202  Biso   1.000  C
  C935     1.0000 0.75168  0.72497  0.99539  Biso   1.000  C
  C936     1.0000 0.51566  0.74569  0.23858  Biso   1.000  C
  C937     1.0000 0.76281  0.24930  0.95725  Biso   1.000  C
  C938     1.0000 0.01448  0.71616  0.23043  Biso   1.000  C
  C939     1.0000 0.27200  0.98911  0.72140  Biso   1.000  C
  C940     1.0000 0.26093  0.25362  0.49034  Biso   1.000  C
  C941     1.0000 0.51790  0.72149  0.21777  Biso   1.000  C
  C942     1.0000 0.76767  0.96316  0.74862  Biso   1.000  C
  C943     1.0000 0.77364  0.74922  0.99499  Biso   1.000  C
  C944     1.0000 0.51905  0.22350  0.25627  Biso   1.000  C
  C945     1.0000 0.27358  0.46222  0.71453  Biso   1.000  C
  C946     1.0000 0.26118  0.76040  0.45785  Biso   1.000  C
  C947     1.0000 0.99745  0.22207  0.21905  Biso   1.000  C
  C948     1.0000 0.77408  0.46449  0.75460  Biso   1.000  C
  C949     1.0000 0.27543  0.72913  0.96460  Biso   1.000  C
  C950     1.0000 0.01456  0.24499  0.72233  Biso   1.000  C
  C951     1.0000 0.75921  0.98637  0.24250  Biso   1.000  C
  C952     1.0000 0.76637  0.70391  0.46938  Biso   1.000  C
  C953     1.0000 0.53060  0.23061  0.75704  Biso   1.000  C
  C954     1.0000 0.26041  0.99421  0.21622  Biso   1.000  C
  C955     1.0000 0.25957  0.22726  0.98638  Biso   1.000  C
  C956     1.0000 0.50139  0.73058  0.71358  Biso   1.000  C
  C957     1.0000 0.76688  0.45923  0.25150  Biso   1.000  C
  C958     1.0000 0.76156  0.21094  0.49682  Biso   1.000  C
  C959     1.0000 0.01205  0.73978  0.73534  Biso   1.000  C
  C960     1.0000 0.26634  0.46919  0.21498  Biso   1.000  C
  Cu1      1.0000 0.03368  0.48115  0.63108  Biso   1.000  Cu
  Cu2      1.0000 0.66731  0.97530  0.47846  Biso   1.000  Cu
  Cu3      1.0000 0.51153  0.63311  0.97742  Biso   1.000  Cu
  Cu4      1.0000 0.53364  0.47022  0.83053  Biso   1.000  Cu
  Cu5      1.0000 0.17163  0.98945  0.97994  Biso   1.000  Cu
  Cu6      1.0000 0.01246  0.63254  0.47539  Biso   1.000  Cu
  Cu7      1.0000 0.50489  0.97680  0.63698  Biso   1.000  Cu
  Cu8      1.0000 0.86313  0.46943  0.48757  Biso   1.000  Cu
  Cu9      1.0000 0.02289  0.13572  0.98164  Biso   1.000  Cu
  Cu10     1.0000 0.01141  0.97889  0.82361  Biso   1.000  Cu
  Cu11     1.0000 0.36397  0.48516  0.98015  Biso   1.000  Cu
  Cu12     1.0000 0.51949  0.14037  0.49393  Biso   1.000  Cu
  Cu13     1.0000 0.00613  0.48113  0.32578  Biso   1.000  Cu
  Cu14     1.0000 0.36002  0.99182  0.48323  Biso   1.000  Cu
  Cu15     1.0000 0.52446  0.32677  0.99480  Biso   1.000  Cu
  Cu16     1.0000 0.50590  0.48304  0.14268  Biso   1.000  Cu
  Cu17     1.0000 0.86294  0.98335  0.98451  Biso   1.000  Cu
  Cu18     1.0000 0.02132  0.32724  0.48054  Biso   1.000  Cu
  Cu19     1.0000 0.52231  0.98002  0.33335  Biso   1.000  Cu
  Cu20     1.0000 0.17550  0.49246  0.47614  Biso   1.000  Cu
  Cu21     1.0000 0.01041  0.83028  0.97605  Biso   1.000  Cu
  Cu22     1.0000 0.01984  0.98405  0.13384  Biso   1.000  Cu
  Cu23     1.0000 0.67136  0.48765  0.98558  Biso   1.000  Cu
  Cu24     1.0000 0.50873  0.82859  0.47761  Biso   1.000  Cu
  Cu25     1.0000 0.22459  0.98695  0.97799  Biso   1.000  Cu
  Cu26     1.0000 0.02116  0.19045  0.97712  Biso   1.000  Cu
  Cu27     1.0000 0.02109  0.98110  0.18760  Biso   1.000  Cu
  Cu28     1.0000 0.72211  0.97354  0.48478  Biso   1.000  Cu
  Cu29     1.0000 0.52279  0.19325  0.49339  Biso   1.000  Cu
  Cu30     1.0000 0.51862  0.98603  0.28031  Biso   1.000  Cu
  Cu31     1.0000 0.31145  0.48195  0.97403  Biso   1.000  Cu
  Cu32     1.0000 0.51019  0.68859  0.97520  Biso   1.000  Cu
  Cu33     1.0000 0.50687  0.48430  0.19622  Biso   1.000  Cu
  Cu34     1.0000 0.80994  0.46801  0.49113  Biso   1.000  Cu
  Cu35     1.0000 0.00886  0.68541  0.47424  Biso   1.000  Cu
  Cu36     1.0000 0.00265  0.47826  0.27236  Biso   1.000  Cu
  Cu37     1.0000 0.81044  0.98686  0.98245  Biso   1.000  Cu
  Cu38     1.0000 0.01485  0.77613  0.97762  Biso   1.000  Cu
  Cu39     1.0000 0.00978  0.98330  0.76909  Biso   1.000  Cu
  Cu40     1.0000 0.30765  0.99714  0.48199  Biso   1.000  Cu
  Cu41     1.0000 0.50494  0.77387  0.47623  Biso   1.000  Cu
  Cu42     1.0000 0.50733  0.97420  0.69037  Biso   1.000  Cu
  Cu43     1.0000 0.72565  0.48650  0.99062  Biso   1.000  Cu
  Cu44     1.0000 0.52552  0.27014  0.99683  Biso   1.000  Cu
  Cu45     1.0000 0.53158  0.47001  0.77650  Biso   1.000  Cu
  Cu46     1.0000 0.22853  0.49294  0.47025  Biso   1.000  Cu
  Cu47     1.0000 0.02760  0.27356  0.48106  Biso   1.000  Cu
  Cu48     1.0000 0.03592  0.48133  0.68523  Biso   1.000  Cu
  H1       1.0000 0.24118  0.78057  0.49531  Biso   1.000  H
  H2       1.0000 0.56099  0.25691  0.73093  Biso   1.000  H
  H3       1.0000 0.74539  0.49107  0.27825  Biso   1.000  H
  H4       1.0000 0.74530  0.78184  0.97656  Biso   1.000  H
  H5       1.0000 0.99273  0.21688  0.68852  Biso   1.000  H
  H6       1.0000 0.29201  0.50080  0.23942  Biso   1.000  H
  H7       1.0000 0.27291  0.27606  0.53029  Biso   1.000  H
  H8       1.0000 0.98612  0.76777  0.70808  Biso   1.000  H
  H9       1.0000 0.73089  0.00908  0.21780  Biso   1.000  H
  H10      1.0000 0.78934  0.27404  0.98770  Biso   1.000  H
  H11      1.0000 0.47357  0.76238  0.73643  Biso   1.000  H
  H12      1.0000 0.28901  0.01747  0.18888  Biso   1.000  H
  H13      1.0000 0.73847  0.23948  0.46849  Biso   1.000  H
  H14      1.0000 0.53897  0.74746  0.18524  Biso   1.000  H
  H15      1.0000 0.30100  0.43938  0.68518  Biso   1.000  H
  H16      1.0000 0.28586  0.19600  0.01342  Biso   1.000  H
  H17      1.0000 0.03362  0.74269  0.26156  Biso   1.000  H
  H18      1.0000 0.74417  0.43456  0.72918  Biso   1.000  H
  H19      1.0000 0.79130  0.72154  0.43212  Biso   1.000  H
  H20      1.0000 0.02760  0.19572  0.24587  Biso   1.000  H
  H21      1.0000 0.25761  0.02890  0.70169  Biso   1.000  H
  H22      1.0000 0.26060  0.70972  0.00526  Biso   1.000  H
  H23      1.0000 0.54104  0.19300  0.22830  Biso   1.000  H
  H24      1.0000 0.79396  0.92945  0.72697  Biso   1.000  H
  H25      1.0000 0.26682  0.02892  0.76137  Biso   1.000  H
  H26      1.0000 0.80802  0.23941  0.99355  Biso   1.000  H
  H27      1.0000 0.97523  0.72881  0.18654  Biso   1.000  H
  H28      1.0000 0.77503  0.95449  0.69318  Biso   1.000  H
  H29      1.0000 0.26038  0.19844  0.47147  Biso   1.000  H
  H30      1.0000 0.55260  0.76833  0.21889  Biso   1.000  H
  H31      1.0000 0.32030  0.49181  0.70947  Biso   1.000  H
  H32      1.0000 0.77242  0.70018  0.02978  Biso   1.000  H
  H33      1.0000 0.47939  0.26623  0.24909  Biso   1.000  H
  H34      1.0000 0.76821  0.48831  0.70283  Biso   1.000  H
  H35      1.0000 0.20436  0.76131  0.44166  Biso   1.000  H
  H36      1.0000 0.97436  0.21282  0.26964  Biso   1.000  H
  H37      1.0000 0.75346  0.97229  0.19043  Biso   1.000  H
  H38      1.0000 0.28221  0.78492  0.94389  Biso   1.000  H
  H39      1.0000 0.99767  0.24994  0.77536  Biso   1.000  H
  H40      1.0000 0.25438  0.96369  0.26852  Biso   1.000  H
  H41      1.0000 0.76594  0.74593  0.50513  Biso   1.000  H
  H42      1.0000 0.48585  0.18725  0.75430  Biso   1.000  H
  H43      1.0000 0.71397  0.43290  0.24993  Biso   1.000  H
  H44      1.0000 0.26936  0.26523  0.94402  Biso   1.000  H
  H45      1.0000 0.54736  0.69005  0.72280  Biso   1.000  H
  H46      1.0000 0.27117  0.44436  0.26336  Biso   1.000  H
  H47      1.0000 0.76355  0.26270  0.52630  Biso   1.000  H
  H48      1.0000 0.05399  0.70406  0.72643  Biso   1.000  H
  H49      1.0000 0.21073  0.48715  0.20724  Biso   1.000  H
  H50      1.0000 0.31344  0.25625  0.52459  Biso   1.000  H
  H51      1.0000 0.55664  0.22654  0.21060  Biso   1.000  H
  H52      1.0000 0.77261  0.48946  0.20642  Biso   1.000  H
  H53      1.0000 0.77209  0.21203  0.91316  Biso   1.000  H
  H54      1.0000 0.02234  0.27128  0.21775  Biso   1.000  H
  H55      1.0000 0.31332  0.01367  0.21754  Biso   1.000  H
  H56      1.0000 0.27356  0.70798  0.48280  Biso   1.000  H
  H57      1.0000 0.06113  0.75343  0.22679  Biso   1.000  H
  H58      1.0000 0.80832  0.00919  0.25065  Biso   1.000  H
  H59      1.0000 0.72895  0.74451  0.96040  Biso   1.000  H
  H60      1.0000 0.47561  0.73016  0.26027  Biso   1.000  H
  H61      1.0000 0.82663  0.44535  0.75880  Biso   1.000  H
  H62      1.0000 0.71686  0.71166  0.43491  Biso   1.000  H
  H63      1.0000 0.46277  0.72133  0.75722  Biso   1.000  H
  H64      1.0000 0.27353  0.43585  0.76654  Biso   1.000  H
  H65      1.0000 0.22519  0.72386  0.98436  Biso   1.000  H
  H66      1.0000 0.96842  0.72566  0.69478  Biso   1.000  H
  H67      1.0000 0.71232  0.98290  0.75489  Biso   1.000  H
  H68      1.0000 0.80741  0.20524  0.46745  Biso   1.000  H
  H69      1.0000 0.02628  0.19230  0.71312  Biso   1.000  H
  H70      1.0000 0.22778  0.95070  0.72595  Biso   1.000  H
  H71      1.0000 0.29800  0.23408  0.02743  Biso   1.000  H
  H72      1.0000 0.55224  0.23430  0.70248  Biso   1.000  H
  H73      1.0000 0.79760  0.49095  0.78469  Biso   1.000  H
  H74      1.0000 0.74270  0.67842  0.50106  Biso   1.000  H
  H75      1.0000 0.52540  0.70511  0.68049  Biso   1.000  H
  H76      1.0000 0.24411  0.48717  0.74191  Biso   1.000  H
  H77      1.0000 0.29629  0.74311  0.92441  Biso   1.000  H
  H78      1.0000 0.03519  0.71467  0.77099  Biso   1.000  H
  H79      1.0000 0.74849  0.99882  0.77195  Biso   1.000  H
  H80      1.0000 0.78558  0.17990  0.52268  Biso   1.000  H
  H81      1.0000 0.03990  0.27211  0.75091  Biso   1.000  H
  H82      1.0000 0.28420  0.94626  0.73812  Biso   1.000  H
  H83      1.0000 0.23254  0.25228  0.95695  Biso   1.000  H
  H84      1.0000 0.50138  0.21018  0.78692  Biso   1.000  H
  H85      1.0000 0.24352  0.44094  0.18846  Biso   1.000  H
  H86      1.0000 0.24267  0.23149  0.45173  Biso   1.000  H
  H87      1.0000 0.49888  0.24871  0.29097  Biso   1.000  H
  H88      1.0000 0.79347  0.42923  0.22765  Biso   1.000  H
  H89      1.0000 0.73165  0.23053  0.92893  Biso   1.000  H
  H90      1.0000 0.97426  0.24675  0.18685  Biso   1.000  H
  H91      1.0000 0.23022  0.96514  0.23469  Biso   1.000  H
  H92      1.0000 0.29017  0.73729  0.43046  Biso   1.000  H
  H93      1.0000 0.98729  0.69065  0.20378  Biso   1.000  H
  H94      1.0000 0.78491  0.95466  0.26784  Biso   1.000  H
  H95      1.0000 0.80431  0.71823  0.00817  Biso   1.000  H
  H96      1.0000 0.49330  0.69214  0.24341  Biso   1.000  H
  H97      1.0000 0.87962  0.98298  0.89032  Biso   1.000  H
  H98      1.0000 0.92378  0.84677  0.97856  Biso   1.000  H
  H99      1.0000 0.00950  0.88650  0.84188  Biso   1.000  H
  H100     1.0000 0.37965  0.98388  0.57891  Biso   1.000  H
  H101     1.0000 0.41932  0.85580  0.47631  Biso   1.000  H
  H102     1.0000 0.51987  0.88563  0.61068  Biso   1.000  H
  H103     1.0000 0.66056  0.47760  0.89320  Biso   1.000  H
  H104     1.0000 0.61415  0.35056  0.98634  Biso   1.000  H
  H105     1.0000 0.53795  0.38242  0.85350  Biso   1.000  H
  H106     1.0000 0.16644  0.48475  0.56603  Biso   1.000  H
  H107     1.0000 0.11504  0.35761  0.46202  Biso   1.000  H
  H108     1.0000 0.03051  0.39084  0.61156  Biso   1.000  H
  H109     1.0000 0.15394  0.99502  0.06838  Biso   1.000  H
  H110     1.0000 0.11399  0.12129  0.96845  Biso   1.000  H
  H111     1.0000 0.00815  0.07335  0.11545  Biso   1.000  H
  H112     1.0000 0.65221  0.97206  0.38759  Biso   1.000  H
  H113     1.0000 0.60927  0.11119  0.48059  Biso   1.000  H
  H114     1.0000 0.51758  0.07471  0.36058  Biso   1.000  H
  H115     1.0000 0.37778  0.48034  0.07119  Biso   1.000  H
  H116     1.0000 0.42124  0.61653  0.96742  Biso   1.000  H
  H117     1.0000 0.50466  0.57427  0.11545  Biso   1.000  H
  H118     1.0000 0.87488  0.47267  0.39632  Biso   1.000  H
  H119     1.0000 0.92205  0.60784  0.47863  Biso   1.000  H
  H120     1.0000 0.00543  0.57228  0.34327  Biso   1.000  H
  H121     1.0000 0.09967  0.99083  0.84110  Biso   1.000  H
  H122     1.0000 0.88372  0.07321  0.96891  Biso   1.000  H
  H123     1.0000 0.01789  0.85468  0.06887  Biso   1.000  H
  H124     1.0000 0.59943  0.97190  0.61368  Biso   1.000  H
  H125     1.0000 0.38932  0.08276  0.48431  Biso   1.000  H
  H126     1.0000 0.50958  0.84998  0.38632  Biso   1.000  H
  H127     1.0000 0.44190  0.47676  0.84862  Biso   1.000  H
  H128     1.0000 0.64961  0.57520  0.98714  Biso   1.000  H
  H129     1.0000 0.53310  0.34914  0.08434  Biso   1.000  H
  H130     1.0000 0.93966  0.47050  0.61811  Biso   1.000  H
  H131     1.0000 0.15355  0.57881  0.46748  Biso   1.000  H
  H132     1.0000 0.01466  0.34716  0.38770  Biso   1.000  H
  H133     1.0000 0.92758  0.97862  0.11703  Biso   1.000  H
  H134     1.0000 0.14654  0.89681  0.97502  Biso   1.000  H
  H135     1.0000 0.02488  0.10786  0.88734  Biso   1.000  H
  H136     1.0000 0.42583  0.97848  0.35552  Biso   1.000  H
  H137     1.0000 0.64548  0.88765  0.47533  Biso   1.000  H
  H138     1.0000 0.52294  0.11665  0.57965  Biso   1.000  H
  H139     1.0000 0.59481  0.48656  0.12125  Biso   1.000  H
  H140     1.0000 0.39162  0.39527  0.97996  Biso   1.000  H
  H141     1.0000 0.51062  0.61111  0.88711  Biso   1.000  H
  H142     1.0000 0.10054  0.47926  0.34303  Biso   1.000  H
  H143     1.0000 0.88687  0.37787  0.49583  Biso   1.000  H
  H144     1.0000 0.01449  0.60978  0.56790  Biso   1.000  H
  H145     1.0000 0.62208  0.47951  0.84973  Biso   1.000  H
  H146     1.0000 0.88258  0.56269  0.48780  Biso   1.000  H
  H147     1.0000 0.52318  0.84088  0.56524  Biso   1.000  H
  H148     1.0000 0.12399  0.48142  0.60955  Biso   1.000  H
  H149     1.0000 0.37657  0.57480  0.96629  Biso   1.000  H
  H150     1.0000 0.01598  0.84693  0.88626  Biso   1.000  H
  H151     1.0000 0.91935  0.97556  0.84643  Biso   1.000  H
  H152     1.0000 0.65360  0.06576  0.48045  Biso   1.000  H
  H153     1.0000 0.03295  0.34755  0.57156  Biso   1.000  H
  H154     1.0000 0.41690  0.97737  0.61878  Biso   1.000  H
  H155     1.0000 0.15601  0.07684  0.97522  Biso   1.000  H
  H156     1.0000 0.53308  0.34178  0.89850  Biso   1.000  H
  H157     1.0000 0.41696  0.47794  0.11694  Biso   1.000  H
  H158     1.0000 0.15446  0.40125  0.48044  Biso   1.000  H
  H159     1.0000 0.52262  0.11381  0.40374  Biso   1.000  H
  H160     1.0000 0.91695  0.47667  0.35204  Biso   1.000  H
  H161     1.0000 0.65247  0.39057  0.98268  Biso   1.000  H
  H162     1.0000 0.00914  0.11620  0.06897  Biso   1.000  H
  H163     1.0000 0.11043  0.00760  0.11056  Biso   1.000  H
  H164     1.0000 0.37621  0.89918  0.47225  Biso   1.000  H
  H165     1.0000 0.00365  0.61156  0.37957  Biso   1.000  H
  H166     1.0000 0.61063  0.97914  0.34805  Biso   1.000  H
  H167     1.0000 0.88480  0.89200  0.98821  Biso   1.000  H
  H168     1.0000 0.50328  0.61344  0.07174  Biso   1.000  H
  H169     1.0000 0.00537  0.06648  0.84802  Biso   1.000  H
  H170     1.0000 0.88808  0.98931  0.07800  Biso   1.000  H
  H171     1.0000 0.10297  0.85780  0.97477  Biso   1.000  H
  H172     1.0000 0.50302  0.06944  0.62243  Biso   1.000  H
  H173     1.0000 0.38304  0.98164  0.39459  Biso   1.000  H
  H174     1.0000 0.60047  0.84270  0.47961  Biso   1.000  H
  H175     1.0000 0.51668  0.56222  0.84606  Biso   1.000  H
  H176     1.0000 0.64386  0.48209  0.07953  Biso   1.000  H
  H177     1.0000 0.43406  0.34859  0.99101  Biso   1.000  H
  H178     1.0000 0.03810  0.57082  0.60916  Biso   1.000  H
  H179     1.0000 0.13885  0.48458  0.37922  Biso   1.000  H
  H180     1.0000 0.93260  0.33701  0.50481  Biso   1.000  H
  H181     1.0000 0.03314  0.89501  0.11115  Biso   1.000  H
  H182     1.0000 0.14242  0.99143  0.88429  Biso   1.000  H
  H183     1.0000 0.92989  0.11340  0.97709  Biso   1.000  H
  H184     1.0000 0.51816  0.89270  0.34279  Biso   1.000  H
  H185     1.0000 0.64098  0.98055  0.57218  Biso   1.000  H
  H186     1.0000 0.42951  0.12507  0.48115  Biso   1.000  H
  H187     1.0000 0.52476  0.39609  0.12566  Biso   1.000  H
  H188     1.0000 0.39834  0.48069  0.89067  Biso   1.000  H
  H189     1.0000 0.60458  0.61638  0.97616  Biso   1.000  H
  H190     1.0000 0.00691  0.38823  0.34539  Biso   1.000  H
  H191     1.0000 0.89464  0.47023  0.57899  Biso   1.000  H
  H192     1.0000 0.10467  0.61691  0.47369  Biso   1.000  H
  H193     1.0000 0.27770  0.85240  0.47378  Biso   1.000  H
  H194     1.0000 0.54295  0.24024  0.85717  Biso   1.000  H
  H195     1.0000 0.85975  0.47364  0.25863  Biso   1.000  H
  H196     1.0000 0.78633  0.84257  0.00187  Biso   1.000  H
  H197     1.0000 0.03209  0.25228  0.62493  Biso   1.000  H
  H198     1.0000 0.35927  0.47619  0.20668  Biso   1.000  H
  H199     1.0000 0.24840  0.34270  0.48769  Biso   1.000  H
  H200     1.0000 0.00705  0.75100  0.83350  Biso   1.000  H
  H201     1.0000 0.66059  0.97504  0.24955  Biso   1.000  H
  H202     1.0000 0.75423  0.34777  0.96816  Biso   1.000  H
  H203     1.0000 0.50033  0.74957  0.62058  Biso   1.000  H
  H204     1.0000 0.16574  0.01594  0.20549  Biso   1.000  H
  H205     1.0000 0.74889  0.12138  0.46697  Biso   1.000  H
  H206     1.0000 0.51943  0.71233  0.12035  Biso   1.000  H
  H207     1.0000 0.17650  0.46313  0.70604  Biso   1.000  H
  H208     1.0000 0.25445  0.12936  0.97713  Biso   1.000  H
  H209     1.0000 0.00370  0.71011  0.32755  Biso   1.000  H
  H210     1.0000 0.68137  0.46875  0.75773  Biso   1.000  H
  H211     1.0000 0.78201  0.60992  0.47948  Biso   1.000  H
  H212     1.0000 0.01352  0.21219  0.12551  Biso   1.000  H
  H213     1.0000 0.36075  0.97528  0.71349  Biso   1.000  H
  H214     1.0000 0.28136  0.62998  0.97268  Biso   1.000  H
  H215     1.0000 0.52956  0.20883  0.34846  Biso   1.000  H
  H216     1.0000 0.86289  0.96692  0.75229  Biso   1.000  H
  H217     1.0000 0.23576  0.46503  0.32969  Biso   1.000  H
  H218     1.0000 0.38020  0.22387  0.48808  Biso   1.000  H
  H219     1.0000 0.52072  0.34234  0.22397  Biso   1.000  H
  H220     1.0000 0.73711  0.46545  0.13400  Biso   1.000  H
  H221     1.0000 0.87400  0.20816  0.95802  Biso   1.000  H
  H222     1.0000 0.98199  0.33243  0.25323  Biso   1.000  H
  H223     1.0000 0.28990  0.99043  0.33601  Biso   1.000  H
  H224     1.0000 0.15092  0.71496  0.49692  Biso   1.000  H
  H225     1.0000 0.02000  0.83826  0.20745  Biso   1.000  H
  H226     1.0000 0.79272  0.00775  0.12855  Biso   1.000  H
  H227     1.0000 0.65449  0.71321  0.98832  Biso   1.000  H
  H228     1.0000 0.52226  0.84076  0.24581  Biso   1.000  H
  H229     1.0000 0.80066  0.45518  0.63536  Biso   1.000  H
  H230     1.0000 0.65086  0.74271  0.47407  Biso   1.000  H
  H231     1.0000 0.51628  0.61268  0.74651  Biso   1.000  H
  H232     1.0000 0.30464  0.48571  0.83102  Biso   1.000  H
  H233     1.0000 0.15635  0.76152  0.95357  Biso   1.000  H
  H234     1.0000 0.03769  0.62501  0.70567  Biso   1.000  H
  H235     1.0000 0.73766  0.98864  0.62910  Biso   1.000  H
  H236     1.0000 0.88576  0.23679  0.49263  Biso   1.000  H
  H237     1.0000 0.99241  0.12406  0.75136  Biso   1.000  H
  H238     1.0000 0.24122  0.00412  0.83619  Biso   1.000  H
  H239     1.0000 0.37934  0.25486  0.99404  Biso   1.000  H
  H240     1.0000 0.51460  0.11800  0.72080  Biso   1.000  H
  H241     1.0000 0.76073  0.45838  0.85071  Biso   1.000  H
  H242     1.0000 0.85956  0.70083  0.46639  Biso   1.000  H
  H243     1.0000 0.50472  0.82957  0.70390  Biso   1.000  H
  H244     1.0000 0.26338  0.47152  0.61528  Biso   1.000  H
  H245     1.0000 0.36689  0.71121  0.96305  Biso   1.000  H
  H246     1.0000 0.02181  0.83157  0.74748  Biso   1.000  H
  H247     1.0000 0.78271  0.96271  0.83670  Biso   1.000  H
  H248     1.0000 0.66550  0.20589  0.49996  Biso   1.000  H
  H249     1.0000 0.02066  0.33561  0.70769  Biso   1.000  H
  H250     1.0000 0.28361  0.99955  0.62691  Biso   1.000  H
  H251     1.0000 0.16622  0.21234  0.00066  Biso   1.000  H
  H252     1.0000 0.53880  0.32146  0.76136  Biso   1.000  H
  H253     1.0000 0.27965  0.47792  0.11838  Biso   1.000  H
  H254     1.0000 0.16754  0.25896  0.47218  Biso   1.000  H
  H255     1.0000 0.50878  0.13012  0.26364  Biso   1.000  H
  H256     1.0000 0.77762  0.46441  0.34484  Biso   1.000  H
  H257     1.0000 0.67376  0.25720  0.98191  Biso   1.000  H
  H258     1.0000 0.00165  0.13048  0.20808  Biso   1.000  H
  H259     1.0000 0.24701  0.98681  0.12338  Biso   1.000  H
  H260     1.0000 0.35923  0.76353  0.47896  Biso   1.000  H
  H261     1.0000 0.01853  0.62291  0.24540  Biso   1.000  H
  H262     1.0000 0.74982  0.97584  0.33670  Biso   1.000  H
  H263     1.0000 0.87045  0.75291  0.97122  Biso   1.000  H
  H264     1.0000 0.52755  0.62423  0.21004  Biso   1.000  H
  H265     1.0000 0.03176  0.20321  0.83278  Biso   1.000  H
  H266     1.0000 0.87861  0.97585  0.21330  Biso   1.000  H
  H267     1.0000 0.24311  0.84272  0.96971  Biso   1.000  H
  H268     1.0000 0.50489  0.20817  0.64192  Biso   1.000  H
  H269     1.0000 0.37850  0.97608  0.25454  Biso   1.000  H
  H270     1.0000 0.73748  0.82579  0.48370  Biso   1.000  H
  H271     1.0000 0.49613  0.70164  0.82338  Biso   1.000  H
  H272     1.0000 0.65060  0.47943  0.21751  Biso   1.000  H
  H273     1.0000 0.29436  0.33869  0.97963  Biso   1.000  H
  H274     1.0000 0.00630  0.70683  0.62072  Biso   1.000  H
  H275     1.0000 0.14475  0.44791  0.24881  Biso   1.000  H
  H276     1.0000 0.79534  0.31966  0.49632  Biso   1.000  H
  H277     1.0000 0.02376  0.75202  0.12179  Biso   1.000  H
  H278     1.0000 0.15769  0.98669  0.74954  Biso   1.000  H
  H279     1.0000 0.79298  0.12919  0.94337  Biso   1.000  H
  H280     1.0000 0.51430  0.75533  0.32969  Biso   1.000  H
  H281     1.0000 0.64742  0.95932  0.71214  Biso   1.000  H
  H282     1.0000 0.29333  0.13704  0.50208  Biso   1.000  H
  H283     1.0000 0.52011  0.25415  0.13934  Biso   1.000  H
  H284     1.0000 0.39041  0.46338  0.74971  Biso   1.000  H
  H285     1.0000 0.74241  0.63365  0.98889  Biso   1.000  H
  H286     1.0000 0.00595  0.24496  0.34142  Biso   1.000  H
  H287     1.0000 0.89367  0.48167  0.71438  Biso   1.000  H
  H288     1.0000 0.23998  0.64439  0.45700  Biso   1.000  H
  H289     1.0000 0.11131  0.21337  0.99204  Biso   1.000  H
  H290     1.0000 0.01077  0.07234  0.21065  Biso   1.000  H
  H291     1.0000 0.24879  0.98021  0.06907  Biso   1.000  H
  H292     1.0000 0.61180  0.20366  0.50279  Biso   1.000  H
  H293     1.0000 0.49879  0.07721  0.26349  Biso   1.000  H
  H294     1.0000 0.74863  0.97279  0.39350  Biso   1.000  H
  H295     1.0000 0.42307  0.71400  0.96848  Biso   1.000  H
  H296     1.0000 0.52323  0.57119  0.21023  Biso   1.000  H
  H297     1.0000 0.28162  0.46987  0.06524  Biso   1.000  H
  H298     1.0000 0.91474  0.70563  0.46656  Biso   1.000  H
  H299     1.0000 0.01649  0.56461  0.24919  Biso   1.000  H
  H300     1.0000 0.77953  0.46179  0.40033  Biso   1.000  H
  H301     1.0000 0.92370  0.75248  0.97224  Biso   1.000  H
  H302     1.0000 0.02068  0.88751  0.74491  Biso   1.000  H
  H303     1.0000 0.78455  0.97115  0.88996  Biso   1.000  H
  H304     1.0000 0.41064  0.75856  0.48074  Biso   1.000  H
  H305     1.0000 0.50420  0.88590  0.70519  Biso   1.000  H
  H306     1.0000 0.28662  0.00306  0.57312  Biso   1.000  H
  H307     1.0000 0.62340  0.25284  0.99306  Biso   1.000  H
  H308     1.0000 0.53785  0.37578  0.75989  Biso   1.000  H
  H309     1.0000 0.75602  0.46892  0.90391  Biso   1.000  H
  H310     1.0000 0.11740  0.26124  0.46147  Biso   1.000  H
  H311     1.0000 0.02457  0.39363  0.70530  Biso   1.000  H
  H312     1.0000 0.25942  0.47332  0.56277  Biso   1.000  H
  H313     1.0000 0.24014  0.00764  0.88931  Biso   1.000  H
  H314     1.0000 0.92963  0.20879  0.97673  Biso   1.000  H
  H315     1.0000 0.02890  0.89456  0.20611  Biso   1.000  H
  H316     1.0000 0.73773  0.98451  0.57475  Biso   1.000  H
  H317     1.0000 0.43330  0.22175  0.48248  Biso   1.000  H
  H318     1.0000 0.52564  0.89317  0.24731  Biso   1.000  H
  H319     1.0000 0.29926  0.48423  0.88258  Biso   1.000  H
  H320     1.0000 0.59780  0.71179  0.98074  Biso   1.000  H
  H321     1.0000 0.52695  0.39671  0.22379  Biso   1.000  H
  H322     1.0000 0.79962  0.44946  0.58107  Biso   1.000  H
  H323     1.0000 0.09606  0.70751  0.49868  Biso   1.000  H
  H324     1.0000 0.98025  0.38602  0.25440  Biso   1.000  H
  H325     1.0000 0.79191  0.01079  0.07514  Biso   1.000  H
  H326     1.0000 0.10189  0.76274  0.96096  Biso   1.000  H
  H327     1.0000 0.99066  0.06928  0.75436  Biso   1.000  H
  H328     1.0000 0.29084  0.99812  0.39083  Biso   1.000  H
  H329     1.0000 0.59389  0.74720  0.47249  Biso   1.000  H
  H330     1.0000 0.50936  0.06240  0.71626  Biso   1.000  H
  H331     1.0000 0.73782  0.46255  0.08003  Biso   1.000  H
  H332     1.0000 0.43147  0.25135  0.00035  Biso   1.000  H
  H333     1.0000 0.52721  0.55941  0.74905  Biso   1.000  H
  H334     1.0000 0.23533  0.48270  0.38034  Biso   1.000  H
  H335     1.0000 0.93738  0.24306  0.48750  Biso   1.000  H
  H336     1.0000 0.05039  0.57219  0.70488  Biso   1.000  H
  H337     1.0000 0.03918  0.20234  0.88808  Biso   1.000  H
  H338     1.0000 0.93377  0.96998  0.20965  Biso   1.000  H
  H339     1.0000 0.24277  0.89892  0.97329  Biso   1.000  H
  H340     1.0000 0.51107  0.21138  0.58639  Biso   1.000  H
  H341     1.0000 0.43312  0.96460  0.26134  Biso   1.000  H
  H342     1.0000 0.74149  0.87732  0.49013  Biso   1.000  H
  H343     1.0000 0.49516  0.70510  0.87978  Biso   1.000  H
  H344     1.0000 0.59849  0.48476  0.21813  Biso   1.000  H
  H345     1.0000 0.29557  0.39123  0.97033  Biso   1.000  H
  H346     1.0000 0.99809  0.70658  0.56536  Biso   1.000  H
  H347     1.0000 0.09191  0.45575  0.25281  Biso   1.000  H
  H348     1.0000 0.79149  0.37455  0.49716  Biso   1.000  H
  H349     1.0000 0.01834  0.75575  0.07055  Biso   1.000  H
  H350     1.0000 0.10123  0.98773  0.74538  Biso   1.000  H
  H351     1.0000 0.79311  0.07068  0.94524  Biso   1.000  H
  H352     1.0000 0.50590  0.75359  0.38600  Biso   1.000  H
  H353     1.0000 0.59540  0.95919  0.70690  Biso   1.000  H
  H354     1.0000 0.29646  0.08343  0.50022  Biso   1.000  H
  H355     1.0000 0.52276  0.25259  0.08933  Biso   1.000  H
  H356     1.0000 0.44590  0.45583  0.75631  Biso   1.000  H
  H357     1.0000 0.74597  0.57948  0.99383  Biso   1.000  H
  H358     1.0000 0.01439  0.24910  0.39294  Biso   1.000  H
  H359     1.0000 0.94951  0.48518  0.71098  Biso   1.000  H
  H360     1.0000 0.24602  0.58723  0.46322  Biso   1.000  H
  H361     1.0000 0.00677  0.71079  0.37951  Biso   1.000  H
  H362     1.0000 0.41981  0.97334  0.71493  Biso   1.000  H
  H363     1.0000 0.74683  0.39869  0.96676  Biso   1.000  H
  H364     1.0000 0.51237  0.70962  0.06671  Biso   1.000  H
  H365     1.0000 0.91763  0.96600  0.75150  Biso   1.000  H
  H366     1.0000 0.25148  0.39680  0.48874  Biso   1.000  H
  H367     1.0000 0.53237  0.20986  0.40405  Biso   1.000  H
  H368     1.0000 0.12363  0.46590  0.70302  Biso   1.000  H
  H369     1.0000 0.78972  0.89670  0.00861  Biso   1.000  H
  H370     1.0000 0.01738  0.21306  0.07164  Biso   1.000  H
  H371     1.0000 0.62579  0.46741  0.75528  Biso   1.000  H
  H372     1.0000 0.27864  0.90467  0.47718  Biso   1.000  H
  H373     1.0000 0.04186  0.25611  0.57124  Biso   1.000  H
  H374     1.0000 0.60487  0.98187  0.25048  Biso   1.000  H
  H375     1.0000 0.28295  0.57391  0.97218  Biso   1.000  H
  H376     1.0000 0.53695  0.24719  0.91127  Biso   1.000  H
  H377     1.0000 0.11290  0.01113  0.20495  Biso   1.000  H
  H378     1.0000 0.78837  0.55879  0.49418  Biso   1.000  H
  H379     1.0000 0.50343  0.74513  0.56534  Biso   1.000  H
  H380     1.0000 0.91330  0.48868  0.25675  Biso   1.000  H
  H381     1.0000 0.25169  0.07526  0.96932  Biso   1.000  H
  H382     1.0000 0.01289  0.75223  0.88995  Biso   1.000  H
  H383     1.0000 0.41311  0.48094  0.21162  Biso   1.000  H
  H384     1.0000 0.74655  0.06959  0.45799  Biso   1.000  H
  H385     1.0000 0.23311  0.43642  0.30103  Biso   1.000  H
  H386     1.0000 0.29524  0.16496  0.46869  Biso   1.000  H
  H387     1.0000 0.47794  0.30305  0.21401  Biso   1.000  H
  H388     1.0000 0.67458  0.44451  0.21151  Biso   1.000  H
  H389     1.0000 0.84255  0.20269  0.99436  Biso   1.000  H
  H390     1.0000 0.97086  0.25030  0.31204  Biso   1.000  H
  H391     1.0000 0.28933  0.95314  0.30335  Biso   1.000  H
  H392     1.0000 0.17155  0.72053  0.44451  Biso   1.000  H
  H393     1.0000 0.98320  0.77102  0.15173  Biso   1.000  H
  H394     1.0000 0.78963  0.96867  0.15299  Biso   1.000  H
  H395     1.0000 0.73430  0.66070  0.02812  Biso   1.000  H
  H396     1.0000 0.55480  0.80420  0.25893  Biso   1.000  H
  H397     1.0000 0.80314  0.49223  0.66260  Biso   1.000  H
  H398     1.0000 0.73392  0.78802  0.50970  Biso   1.000  H
  H399     1.0000 0.54598  0.65039  0.75533  Biso   1.000  H
  H400     1.0000 0.35781  0.50272  0.74959  Biso   1.000  H
  H401     1.0000 0.23902  0.81827  0.93449  Biso   1.000  H
  H402     1.0000 0.06089  0.66682  0.69070  Biso   1.000  H
  H403     1.0000 0.73365  0.95123  0.65376  Biso   1.000  H
  H404     1.0000 0.80501  0.29304  0.52997  Biso   1.000  H
  H405     1.0000 0.99273  0.21217  0.81250  Biso   1.000  H
  H406     1.0000 0.23078  0.02927  0.80130  Biso   1.000  H
  H407     1.0000 0.31161  0.30155  0.94391  Biso   1.000  H
  H408     1.0000 0.48165  0.15300  0.71713  Biso   1.000  H
  H409     1.0000 0.28329  0.44323  0.14866  Biso   1.000  H
  H410     1.0000 0.20517  0.26934  0.44358  Biso   1.000  H
  H411     1.0000 0.49178  0.21050  0.32216  Biso   1.000  H
  H412     1.0000 0.83373  0.42987  0.26307  Biso   1.000  H
  H413     1.0000 0.69283  0.26671  0.93966  Biso   1.000  H
  H414     1.0000 0.97953  0.20984  0.14898  Biso   1.000  H
  H415     1.0000 0.19214  0.97691  0.19712  Biso   1.000  H
  H416     1.0000 0.32940  0.77217  0.43670  Biso   1.000  H
  H417     1.0000 0.98072  0.65117  0.24149  Biso   1.000  H
  H418     1.0000 0.74803  0.94481  0.30243  Biso   1.000  H
  H419     1.0000 0.84699  0.75102  0.00728  Biso   1.000  H
  H420     1.0000 0.49053  0.65358  0.20606  Biso   1.000  H
  H421     1.0000 0.76012  0.48990  0.82199  Biso   1.000  H
  H422     1.0000 0.78464  0.64574  0.50867  Biso   1.000  H
  H423     1.0000 0.53226  0.74474  0.64746  Biso   1.000  H
  H424     1.0000 0.20880  0.49479  0.70491  Biso   1.000  H
  H425     1.0000 0.32756  0.70464  0.92331  Biso   1.000  H
  H426     1.0000 0.03624  0.75123  0.80326  Biso   1.000  H
  H427     1.0000 0.78940  0.00230  0.80580  Biso   1.000  H
  H428     1.0000 0.74955  0.14267  0.51536  Biso   1.000  H
  H429     1.0000 0.04868  0.30646  0.71029  Biso   1.000  H
  H430     1.0000 0.32283  0.93930  0.70031  Biso   1.000  H
  H431     1.0000 0.19423  0.21172  0.95325  Biso   1.000  H
  H432     1.0000 0.51174  0.24365  0.82735  Biso   1.000  H
  H433     1.0000 0.29119  0.02598  0.66035  Biso   1.000  H
  H434     1.0000 0.75764  0.31173  0.99591  Biso   1.000  H
  H435     1.0000 0.03003  0.70947  0.30201  Biso   1.000  H
  H436     1.0000 0.83203  0.93146  0.76236  Biso   1.000  H
  H437     1.0000 0.23290  0.30995  0.52664  Biso   1.000  H
  H438     1.0000 0.54523  0.71109  0.15309  Biso   1.000  H
  H439     1.0000 0.25844  0.43831  0.64572  Biso   1.000  H
  H440     1.0000 0.78507  0.81527  0.96668  Biso   1.000  H
  H441     1.0000 0.54463  0.15575  0.26404  Biso   1.000  H
  H442     1.0000 0.70960  0.43227  0.76476  Biso   1.000  H
  H443     1.0000 0.27634  0.81817  0.49979  Biso   1.000  H
  H444     1.0000 0.03771  0.16034  0.21043  Biso   1.000  H
  H445     1.0000 0.68980  0.00557  0.25640  Biso   1.000  H
  H446     1.0000 0.30104  0.67098  0.00553  Biso   1.000  H
  H447     1.0000 0.99440  0.25476  0.65196  Biso   1.000  H
  H448     1.0000 0.25345  0.02776  0.15176  Biso   1.000  H
  H449     1.0000 0.83041  0.68650  0.43675  Biso   1.000  H
  H450     1.0000 0.57114  0.28973  0.77338  Biso   1.000  H
  H451     1.0000 0.78676  0.49778  0.31061  Biso   1.000  H
  H452     1.0000 0.25079  0.15936  0.01163  Biso   1.000  H
  H453     1.0000 0.47484  0.79982  0.70282  Biso   1.000  H
  H454     1.0000 0.32931  0.50831  0.20281  Biso   1.000  H
  H455     1.0000 0.69696  0.20710  0.46388  Biso   1.000  H
  H456     1.0000 0.98605  0.80707  0.74426  Biso   1.000  H
  H457     1.0000 0.68120  0.75423  0.43596  Biso   1.000  H
  H458     1.0000 0.46577  0.68424  0.79298  Biso   1.000  H
  H459     1.0000 0.86696  0.44492  0.72259  Biso   1.000  H
  H460     1.0000 0.18631  0.76039  0.98714  Biso   1.000  H
  H461     1.0000 0.97362  0.68983  0.65735  Biso   1.000  H
  H462     1.0000 0.31324  0.44368  0.80623  Biso   1.000  H
  H463     1.0000 0.84921  0.23962  0.46563  Biso   1.000  H
  H464     1.0000 0.02572  0.14840  0.74655  Biso   1.000  H
  H465     1.0000 0.67476  0.99001  0.71629  Biso   1.000  H
  H466     1.0000 0.33945  0.26671  0.02816  Biso   1.000  H
  H467     1.0000 0.54864  0.19778  0.66497  Biso   1.000  H
  H468     1.0000 0.18776  0.95459  0.75942  Biso   1.000  H
  H469     1.0000 0.35153  0.21909  0.52695  Biso   1.000  H
  H470     1.0000 0.55481  0.26218  0.17541  Biso   1.000  H
  H471     1.0000 0.17269  0.48526  0.24403  Biso   1.000  H
  H472     1.0000 0.80570  0.17044  0.91108  Biso   1.000  H
  H473     1.0000 0.02398  0.30868  0.25573  Biso   1.000  H
  H474     1.0000 0.73733  0.49726  0.16593  Biso   1.000  H
  H475     1.0000 0.23862  0.67068  0.49243  Biso   1.000  H
  H476     1.0000 0.06630  0.79332  0.19432  Biso   1.000  H
  H477     1.0000 0.34935  0.01293  0.25959  Biso   1.000  H
  H478     1.0000 0.69138  0.70847  0.95790  Biso   1.000  H
  H479     1.0000 0.47385  0.76642  0.29702  Biso   1.000  H
  H480     1.0000 0.85222  0.00906  0.21602  Biso   1.000  H
  N1       1.0000 0.69788  0.15190  0.48540  Biso   1.000  N
  N2       1.0000 0.51693  0.65919  0.15515  Biso   1.000  N
  N3       1.0000 0.21148  0.47107  0.65077  Biso   1.000  N
  N4       1.0000 0.19950  0.16228  0.98265  Biso   1.000  N
  N5       1.0000 0.00633  0.65583  0.29589  Biso   1.000  N
  N6       1.0000 0.70970  0.46316  0.81408  Biso   1.000  N
  N7       1.0000 0.83285  0.64609  0.47388  Biso   1.000  N
  N8       1.0000 0.00809  0.15918  0.15698  Biso   1.000  N
  N9       1.0000 0.33353  0.98441  0.66010  Biso   1.000  N
  N10      1.0000 0.33515  0.66115  0.96737  Biso   1.000  N
  N11      1.0000 0.51987  0.15940  0.31759  Biso   1.000  N
  N12      1.0000 0.83384  0.96744  0.80621  Biso   1.000  N
  N13      1.0000 0.32794  0.81701  0.47283  Biso   1.000  N
  N14      1.0000 0.53904  0.29256  0.81887  Biso   1.000  N
  N15      1.0000 0.83188  0.46612  0.31243  Biso   1.000  N
  N16      1.0000 0.83949  0.80713  0.98695  Biso   1.000  N
  N17      1.0000 0.02398  0.30391  0.65702  Biso   1.000  N
  N18      1.0000 0.33023  0.47490  0.15406  Biso   1.000  N
  N19      1.0000 0.19732  0.31329  0.48300  Biso   1.000  N
  N20      1.0000 0.00966  0.80145  0.79926  Biso   1.000  N
  N21      1.0000 0.69561  0.97396  0.30285  Biso   1.000  N
  N22      1.0000 0.70169  0.31088  0.97433  Biso   1.000  N
  N23      1.0000 0.50612  0.79717  0.65107  Biso   1.000  N
  N24      1.0000 0.19710  0.00561  0.15216  Biso   1.000  N
  N25      1.0000 0.85650  0.46660  0.66583  Biso   1.000  N
  N26      1.0000 0.68502  0.79580  0.47582  Biso   1.000  N
  N27      1.0000 0.50928  0.64583  0.79886  Biso   1.000  N
  N28      1.0000 0.35628  0.47474  0.80167  Biso   1.000  N
  N29      1.0000 0.18793  0.81166  0.96304  Biso   1.000  N
  N30      1.0000 0.02145  0.65474  0.65167  Biso   1.000  N
  N31      1.0000 0.68503  0.97451  0.66064  Biso   1.000  N
  N32      1.0000 0.85098  0.29001  0.49770  Biso   1.000  N
  N33      1.0000 0.00951  0.15389  0.80370  Biso   1.000  N
  N34      1.0000 0.18739  0.99202  0.80322  Biso   1.000  N
  N35      1.0000 0.34753  0.30745  0.98531  Biso   1.000  N
  N36      1.0000 0.50936  0.15326  0.66824  Biso   1.000  N
  N37      1.0000 0.18230  0.46301  0.29966  Biso   1.000  N
  N38      1.0000 0.34774  0.16983  0.49339  Biso   1.000  N
  N39      1.0000 0.52108  0.31001  0.17071  Biso   1.000  N
  N40      1.0000 0.68157  0.47402  0.16558  Biso   1.000  N
  N41      1.0000 0.84444  0.15781  0.95443  Biso   1.000  N
  N42      1.0000 0.99928  0.30114  0.30657  Biso   1.000  N
  N43      1.0000 0.34274  0.98150  0.30712  Biso   1.000  N
  N44      1.0000 0.18567  0.66832  0.47182  Biso   1.000  N
  N45      1.0000 0.02381  0.80725  0.15247  Biso   1.000  N
  N46      1.0000 0.84359  0.98927  0.16064  Biso   1.000  N
  N47      1.0000 0.68909  0.66273  0.99099  Biso   1.000  N
  N48      1.0000 0.51533  0.80835  0.29978  Biso   1.000  N
  O1       1.0000 0.35678  0.52786  0.97930  Biso   1.000  O
  O2       1.0000 0.02978  0.32705  0.52243  Biso   1.000  O
  O3       1.0000 0.56371  0.98389  0.32918  Biso   1.000  O
  O4       1.0000 0.86084  0.51058  0.49058  Biso   1.000  O
  O5       1.0000 0.52441  0.32093  0.95303  Biso   1.000  O
  O6       1.0000 0.06100  0.99571  0.13669  Biso   1.000  O
  O7       1.0000 0.17783  0.03013  0.97954  Biso   1.000  O
  O8       1.0000 0.50949  0.82326  0.51974  Biso   1.000  O
  O9       1.0000 0.96560  0.47954  0.32630  Biso   1.000  O
  O10      1.0000 0.67580  0.01733  0.47986  Biso   1.000  O
  O11      1.0000 0.01684  0.82738  0.93404  Biso   1.000  O
  O12      1.0000 0.46582  0.48123  0.14522  Biso   1.000  O
  O13      1.0000 0.67619  0.44533  0.98359  Biso   1.000  O
  O14      1.0000 0.01056  0.63343  0.43263  Biso   1.000  O
  O15      1.0000 0.46521  0.97873  0.64181  Biso   1.000  O
  O16      1.0000 0.17976  0.45070  0.47868  Biso   1.000  O
  O17      1.0000 0.51230  0.63573  0.01921  Biso   1.000  O
  O18      1.0000 0.96958  0.97754  0.82286  Biso   1.000  O
  O19      1.0000 0.86241  0.93865  0.98532  Biso   1.000  O
  O20      1.0000 0.52573  0.13853  0.45104  Biso   1.000  O
  O21      1.0000 0.07545  0.47429  0.63065  Biso   1.000  O
  O22      1.0000 0.35601  0.94906  0.48279  Biso   1.000  O
  O23      1.0000 0.01439  0.13793  0.02265  Biso   1.000  O
  O24      1.0000 0.57508  0.47529  0.82534  Biso   1.000  O
  O25      1.0000 0.97836  0.97304  0.13720  Biso   1.000  O
  O26      1.0000 0.16983  0.94706  0.97317  Biso   1.000  O
  O27      1.0000 0.02562  0.13241  0.93799  Biso   1.000  O
  O28      1.0000 0.47937  0.97711  0.33297  Biso   1.000  O
  O29      1.0000 0.66798  0.93225  0.48005  Biso   1.000  O
  O30      1.0000 0.51698  0.14172  0.53500  Biso   1.000  O
  O31      1.0000 0.54834  0.48845  0.14528  Biso   1.000  O
  O32      1.0000 0.36606  0.44473  0.97704  Biso   1.000  O
  O33      1.0000 0.50752  0.63529  0.93386  Biso   1.000  O
  O34      1.0000 0.04805  0.47432  0.32241  Biso   1.000  O
  O35      1.0000 0.86003  0.42644  0.48855  Biso   1.000  O
  O36      1.0000 0.01533  0.63430  0.51780  Biso   1.000  O
  O37      1.0000 0.05307  0.98033  0.81604  Biso   1.000  O
  O38      1.0000 0.86049  0.02463  0.97571  Biso   1.000  O
  O39      1.0000 0.00864  0.82876  0.02076  Biso   1.000  O
  O40      1.0000 0.54892  0.97460  0.63863  Biso   1.000  O
  O41      1.0000 0.36187  0.03322  0.48274  Biso   1.000  O
  O42      1.0000 0.50217  0.82463  0.43620  Biso   1.000  O
  O43      1.0000 0.49393  0.46237  0.82882  Biso   1.000  O
  O44      1.0000 0.67381  0.52768  0.99000  Biso   1.000  O
  O45      1.0000 0.52725  0.32352  0.03816  Biso   1.000  O
  O46      1.0000 0.99251  0.47965  0.63634  Biso   1.000  O
  O47      1.0000 0.18023  0.53301  0.47579  Biso   1.000  O
  O48      1.0000 0.01364  0.32454  0.43705  Biso   1.000  O
  O49      1.0000 0.03040  0.94283  0.13758  Biso   1.000  O
  O50      1.0000 0.17082  0.99560  0.93854  Biso   1.000  O
  O51      1.0000 0.97886  0.13614  0.97386  Biso   1.000  O
  O52      1.0000 0.52292  0.93847  0.32347  Biso   1.000  O
  O53      1.0000 0.66743  0.97977  0.52076  Biso   1.000  O
  O54      1.0000 0.48012  0.14933  0.48718  Biso   1.000  O
  O55      1.0000 0.51398  0.44195  0.14617  Biso   1.000  O
  O56      1.0000 0.36838  0.48777  0.93733  Biso   1.000  O
  O57      1.0000 0.55490  0.63559  0.97634  Biso   1.000  O
  O58      1.0000 0.00450  0.43894  0.32327  Biso   1.000  O
  O59      1.0000 0.86450  0.46929  0.52829  Biso   1.000  O
  O60      1.0000 0.05407  0.63895  0.47861  Biso   1.000  O
  O61      1.0000 0.00972  0.01914  0.82262  Biso   1.000  O
  O62      1.0000 0.86143  0.99127  0.02537  Biso   1.000  O
  O63      1.0000 0.05261  0.83048  0.97871  Biso   1.000  O
  O64      1.0000 0.50306  0.01790  0.64456  Biso   1.000  O
  O65      1.0000 0.36014  0.99108  0.44146  Biso   1.000  O
  O66      1.0000 0.55002  0.82229  0.47521  Biso   1.000  O
  O67      1.0000 0.52692  0.51096  0.82399  Biso   1.000  O
  O68      1.0000 0.66940  0.48436  0.02833  Biso   1.000  O
  O69      1.0000 0.48433  0.32243  0.99903  Biso   1.000  O
  O70      1.0000 0.04019  0.52308  0.63321  Biso   1.000  O
  O71      1.0000 0.17197  0.48754  0.43387  Biso   1.000  O
  O72      1.0000 0.98185  0.31896  0.48988  Biso   1.000  O
  O73      1.0000 0.02939  0.43798  0.63414  Biso   1.000  O
  O74      1.0000 0.67318  0.97094  0.43768  Biso   1.000  O
  O75      1.0000 0.46972  0.63923  0.97600  Biso   1.000  O
  O76      1.0000 0.54139  0.42912  0.82954  Biso   1.000  O
  O77      1.0000 0.17746  0.98503  0.02095  Biso   1.000  O
  O78      1.0000 0.96986  0.63494  0.47162  Biso   1.000  O
  O79      1.0000 0.50551  0.93501  0.63484  Biso   1.000  O
  O80      1.0000 0.85228  0.47198  0.44609  Biso   1.000  O
  O81      1.0000 0.06500  0.13958  0.98329  Biso   1.000  O
  O82      1.0000 0.01232  0.93582  0.81804  Biso   1.000  O
  O83      1.0000 0.35689  0.47972  0.02068  Biso   1.000  O
  O84      1.0000 0.56250  0.13555  0.49674  Biso   1.000  O
  O85      1.0000 0.00868  0.52140  0.32271  Biso   1.000  O
  O86      1.0000 0.35700  0.98977  0.52502  Biso   1.000  O
  O87      1.0000 0.56529  0.32346  0.99301  Biso   1.000  O
  O88      1.0000 0.50350  0.52575  0.13897  Biso   1.000  O
  O89      1.0000 0.85733  0.98147  0.93952  Biso   1.000  O
  O90      1.0000 0.06421  0.32697  0.47470  Biso   1.000  O
  O91      1.0000 0.51644  0.02189  0.33432  Biso   1.000  O
  O92      1.0000 0.18405  0.49152  0.51926  Biso   1.000  O
  O93      1.0000 0.97043  0.82696  0.96634  Biso   1.000  O
  O94      1.0000 0.01192  0.02279  0.14028  Biso   1.000  O
  O95      1.0000 0.67821  0.49033  0.94496  Biso   1.000  O
  O96      1.0000 0.46581  0.82932  0.47821  Biso   1.000  O
  O97      1.0000 0.48101  0.19817  0.48762  Biso   1.000  O
  O98      1.0000 0.51412  0.44235  0.19553  Biso   1.000  O
  O99      1.0000 0.21959  0.48873  0.42741  Biso   1.000  O
  O100     1.0000 0.97882  0.18631  0.97354  Biso   1.000  O
  O101     1.0000 0.00180  0.43701  0.27473  Biso   1.000  O
  O102     1.0000 0.71859  0.48295  0.03288  Biso   1.000  O
  O103     1.0000 0.05132  0.68708  0.47277  Biso   1.000  O
  O104     1.0000 0.02840  0.94108  0.18562  Biso   1.000  O
  O105     1.0000 0.31139  0.99627  0.43899  Biso   1.000  O
  O106     1.0000 0.55031  0.68485  0.97267  Biso   1.000  O
  O107     1.0000 0.52139  0.94379  0.27466  Biso   1.000  O
  O108     1.0000 0.81452  0.99623  0.02404  Biso   1.000  O
  O109     1.0000 0.54723  0.77406  0.47264  Biso   1.000  O
  O110     1.0000 0.52846  0.51173  0.77694  Biso   1.000  O
  O111     1.0000 0.81690  0.46603  0.53312  Biso   1.000  O
  O112     1.0000 0.05711  0.78098  0.97392  Biso   1.000  O
  O113     1.0000 0.04259  0.52259  0.68209  Biso   1.000  O
  O114     1.0000 0.32103  0.48268  0.93296  Biso   1.000  O
  O115     1.0000 0.98672  0.27044  0.48726  Biso   1.000  O
  O116     1.0000 0.00224  0.02291  0.77425  Biso   1.000  O
  O117     1.0000 0.71607  0.97594  0.52578  Biso   1.000  O
  O118     1.0000 0.48159  0.27383  0.99775  Biso   1.000  O
  O119     1.0000 0.50768  0.01615  0.69342  Biso   1.000  O
  O120     1.0000 0.22062  0.98970  0.93516  Biso   1.000  O
  O121     1.0000 0.07936  0.47820  0.68010  Biso   1.000  O
  O122     1.0000 0.72480  0.01624  0.47713  Biso   1.000  O
  O123     1.0000 0.51592  0.68515  0.01896  Biso   1.000  O
  O124     1.0000 0.57419  0.47297  0.77552  Biso   1.000  O
  O125     1.0000 0.22518  0.02923  0.97864  Biso   1.000  O
  O126     1.0000 0.00632  0.68155  0.43282  Biso   1.000  O
  O127     1.0000 0.46788  0.97212  0.68944  Biso   1.000  O
  O128     1.0000 0.81400  0.50993  0.49105  Biso   1.000  O
  O129     1.0000 0.01318  0.18660  0.01793  Biso   1.000  O
  O130     1.0000 0.96892  0.97916  0.77444  Biso   1.000  O
  O131     1.0000 0.30876  0.52375  0.97698  Biso   1.000  O
  O132     1.0000 0.52411  0.18745  0.45239  Biso   1.000  O
  O133     1.0000 0.96374  0.48004  0.27799  Biso   1.000  O
  O134     1.0000 0.30802  0.95466  0.48493  Biso   1.000  O
  O135     1.0000 0.52556  0.27288  0.95508  Biso   1.000  O
  O136     1.0000 0.46362  0.47542  0.19374  Biso   1.000  O
  O137     1.0000 0.81413  0.94437  0.99255  Biso   1.000  O
  O138     1.0000 0.03709  0.27845  0.52479  Biso   1.000  O
  O139     1.0000 0.55971  0.98857  0.27934  Biso   1.000  O
  O140     1.0000 0.22755  0.44984  0.47429  Biso   1.000  O
  O141     1.0000 0.01115  0.77772  0.93611  Biso   1.000  O
  O142     1.0000 0.06421  0.99107  0.18293  Biso   1.000  O
  O143     1.0000 0.72446  0.44402  0.98659  Biso   1.000  O
  O144     1.0000 0.50652  0.77427  0.51678  Biso   1.000  O
  O145     1.0000 0.54786  0.48931  0.19390  Biso   1.000  O
  O146     1.0000 0.22722  0.53461  0.46713  Biso   1.000  O
  O147     1.0000 0.51733  0.18974  0.53590  Biso   1.000  O
  O148     1.0000 0.04592  0.47451  0.27436  Biso   1.000  O
  O149     1.0000 0.72274  0.52713  0.99414  Biso   1.000  O
  O150     1.0000 0.02749  0.18210  0.93528  Biso   1.000  O
  O151     1.0000 0.97842  0.97646  0.18609  Biso   1.000  O
  O152     1.0000 0.31383  0.03848  0.48363  Biso   1.000  O
  O153     1.0000 0.00824  0.68310  0.51588  Biso   1.000  O
  O154     1.0000 0.47824  0.98066  0.28478  Biso   1.000  O
  O155     1.0000 0.81247  0.02629  0.97298  Biso   1.000  O
  O156     1.0000 0.50708  0.68512  0.93257  Biso   1.000  O
  O157     1.0000 0.49073  0.46712  0.78148  Biso   1.000  O
  O158     1.0000 0.81149  0.42654  0.48930  Biso   1.000  O
  O159     1.0000 0.50003  0.77529  0.43335  Biso   1.000  O
  O160     1.0000 0.99402  0.48773  0.68382  Biso   1.000  O
  O161     1.0000 0.31762  0.43982  0.97155  Biso   1.000  O
  O162     1.0000 0.01429  0.78022  0.01976  Biso   1.000  O
  O163     1.0000 0.05228  0.99169  0.76859  Biso   1.000  O
  O164     1.0000 0.71657  0.93135  0.48453  Biso   1.000  O
  O165     1.0000 0.01984  0.27523  0.43810  Biso   1.000  O
  O166     1.0000 0.54936  0.96993  0.68613  Biso   1.000  O
  O167     1.0000 0.21983  0.94525  0.97515  Biso   1.000  O
  O168     1.0000 0.52627  0.27437  0.03736  Biso   1.000  O
  O169     1.0000 0.01416  0.02369  0.18998  Biso   1.000  O
  O170     1.0000 0.22662  0.98504  0.02085  Biso   1.000  O
  O171     1.0000 0.06363  0.18869  0.98362  Biso   1.000  O
  O172     1.0000 0.51580  0.02589  0.28608  Biso   1.000  O
  O173     1.0000 0.72179  0.96988  0.44249  Biso   1.000  O
  O174     1.0000 0.56450  0.18446  0.49426  Biso   1.000  O
  O175     1.0000 0.50292  0.52480  0.18792  Biso   1.000  O
  O176     1.0000 0.30705  0.47675  0.01649  Biso   1.000  O
  O177     1.0000 0.46913  0.68838  0.98211  Biso   1.000  O
  O178     1.0000 0.00750  0.51990  0.27451  Biso   1.000  O
  O179     1.0000 0.80523  0.47167  0.44789  Biso   1.000  O
  O180     1.0000 0.96692  0.68409  0.47243  Biso   1.000  O
  O181     1.0000 0.01529  0.93778  0.76829  Biso   1.000  O
  O182     1.0000 0.80840  0.97879  0.93915  Biso   1.000  O
  O183     1.0000 0.97204  0.77832  0.97566  Biso   1.000  O
  O184     1.0000 0.50705  0.93262  0.68220  Biso   1.000  O
  O185     1.0000 0.30780  0.00295  0.52441  Biso   1.000  O
  O186     1.0000 0.46264  0.78033  0.47811  Biso   1.000  O
  O187     1.0000 0.53338  0.42679  0.78085  Biso   1.000  O
  O188     1.0000 0.72783  0.48488  0.94808  Biso   1.000  O
  O189     1.0000 0.56770  0.27496  0.99384  Biso   1.000  O
  O190     1.0000 0.02945  0.43834  0.68231  Biso   1.000  O
  O191     1.0000 0.23209  0.49207  0.51250  Biso   1.000  O
  O192     1.0000 0.06956  0.27963  0.47246  Biso   1.000  O
