data_image0
_cell_length_a       46.514
_cell_length_b       46.5621
_cell_length_c       46.5413
_cell_angle_alpha    90
_cell_angle_beta     90
_cell_angle_gamma    90

_symmetry_space_group_name_H-M    "P 1"
_symmetry_int_tables_number       1

loop_
  _symmetry_equiv_pos_as_xyz
  'x, y, z'

loop_
  _atom_site_label
  _atom_site_occupancy
  _atom_site_fract_x
  _atom_site_fract_y
  _atom_site_fract_z
  _atom_site_thermal_displace_type
  _atom_site_B_iso_or_equiv
  _atom_site_type_symbol
  C1       1.0000 0.54266  0.95978  0.34504  Biso   1.000  C
  C2       1.0000 0.30784  0.53725  0.01338  Biso   1.000  C
  C3       1.0000 0.98737  0.29425  0.56601  Biso   1.000  C
  C4       1.0000 0.04720  0.99012  0.19733  Biso   1.000  C
  C5       1.0000 0.80628  0.53668  0.52650  Biso   1.000  C
  C6       1.0000 0.49524  0.30523  0.95430  Biso   1.000  C
  C7       1.0000 0.93375  0.48726  0.34995  Biso   1.000  C
  C8       1.0000 0.17270  0.03912  0.01768  Biso   1.000  C
  C9       1.0000 0.48187  0.80315  0.59410  Biso   1.000  C
  C10      1.0000 0.42851  0.45693  0.20373  Biso   1.000  C
  C11      1.0000 0.66196  0.02945  0.52480  Biso   1.000  C
  C12      1.0000 0.00584  0.80167  0.98328  Biso   1.000  C
  C13      1.0000 0.42747  0.99889  0.70081  Biso   1.000  C
  C14      1.0000 0.66819  0.42999  0.04070  Biso   1.000  C
  C15      1.0000 0.98987  0.66419  0.48293  Biso   1.000  C
  C16      1.0000 0.92788  0.95976  0.84093  Biso   1.000  C
  C17      1.0000 0.16629  0.42257  0.51267  Biso   1.000  C
  C18      1.0000 0.48224  0.66197  0.09422  Biso   1.000  C
  C19      1.0000 0.04138  0.45739  0.70689  Biso   1.000  C
  C20      1.0000 0.80437  0.92724  0.02634  Biso   1.000  C
  C21      1.0000 0.49248  0.15668  0.45170  Biso   1.000  C
  C22      1.0000 0.54414  0.49848  0.85102  Biso   1.000  C
  C23      1.0000 0.30547  0.92655  0.51818  Biso   1.000  C
  C24      1.0000 0.98865  0.16424  0.05990  Biso   1.000  C
  C25      1.0000 0.30648  0.03543  0.52291  Biso   1.000  C
  C26      1.0000 0.48862  0.29786  0.06506  Biso   1.000  C
  C27      1.0000 0.04214  0.49472  0.34365  Biso   1.000  C
  C28      1.0000 0.80902  0.03521  0.03198  Biso   1.000  C
  C29      1.0000 0.97976  0.30297  0.45783  Biso   1.000  C
  C30      1.0000 0.53408  0.48489  0.20991  Biso   1.000  C
  C31      1.0000 0.16512  0.53068  0.52657  Biso   1.000  C
  C32      1.0000 0.97938  0.80514  0.08513  Biso   1.000  C
  C33      1.0000 0.43713  0.98638  0.33747  Biso   1.000  C
  C34      1.0000 0.66615  0.53568  0.02769  Biso   1.000  C
  C35      1.0000 0.49044  0.79973  0.48314  Biso   1.000  C
  C36      1.0000 0.93840  0.98162  0.20278  Biso   1.000  C
  C37      1.0000 0.66262  0.91975  0.52502  Biso   1.000  C
  C38      1.0000 0.50333  0.66200  0.98505  Biso   1.000  C
  C39      1.0000 0.93039  0.47412  0.70690  Biso   1.000  C
  C40      1.0000 0.17017  0.92941  0.01614  Biso   1.000  C
  C41      1.0000 0.98930  0.65662  0.59243  Biso   1.000  C
  C42      1.0000 0.43714  0.47708  0.84041  Biso   1.000  C
  C43      1.0000 0.80357  0.42590  0.52897  Biso   1.000  C
  C44      1.0000 0.99280  0.15549  0.95194  Biso   1.000  C
  C45      1.0000 0.53639  0.98554  0.70745  Biso   1.000  C
  C46      1.0000 0.30776  0.42758  0.01849  Biso   1.000  C
  C47      1.0000 0.48516  0.15836  0.55879  Biso   1.000  C
  C48      1.0000 0.03288  0.97807  0.83498  Biso   1.000  C
  C49      1.0000 0.97388  0.02060  0.83356  Biso   1.000  C
  C50      1.0000 0.80275  0.97879  0.08281  Biso   1.000  C
  C51      1.0000 0.04452  0.80077  0.04709  Biso   1.000  C
  C52      1.0000 0.48815  0.04355  0.69900  Biso   1.000  C
  C53      1.0000 0.30897  0.98931  0.46338  Biso   1.000  C
  C54      1.0000 0.53888  0.79138  0.54222  Biso   1.000  C
  C55      1.0000 0.48429  0.54180  0.85116  Biso   1.000  C
  C56      1.0000 0.66426  0.49082  0.08768  Biso   1.000  C
  C57      1.0000 0.43423  0.30261  0.00808  Biso   1.000  C
  C58      1.0000 0.99639  0.51989  0.70952  Biso   1.000  C
  C59      1.0000 0.16457  0.48533  0.46862  Biso   1.000  C
  C60      1.0000 0.92804  0.30126  0.52140  Biso   1.000  C
  C61      1.0000 0.99273  0.93686  0.20639  Biso   1.000  C
  C62      1.0000 0.17132  0.98553  0.96004  Biso   1.000  C
  C63      1.0000 0.93365  0.16046  0.00698  Biso   1.000  C
  C64      1.0000 0.47714  0.91770  0.34794  Biso   1.000  C
  C65      1.0000 0.65893  0.97487  0.58055  Biso   1.000  C
  C66      1.0000 0.43238  0.15473  0.50884  Biso   1.000  C
  C67      1.0000 0.49757  0.41696  0.20283  Biso   1.000  C
  C68      1.0000 0.30934  0.48020  0.96349  Biso   1.000  C
  C69      1.0000 0.54249  0.66431  0.04858  Biso   1.000  C
  C70      1.0000 0.98926  0.43647  0.33937  Biso   1.000  C
  C71      1.0000 0.80396  0.48848  0.58244  Biso   1.000  C
  C72      1.0000 0.04287  0.66340  0.53639  Biso   1.000  C
  C73      1.0000 0.98412  0.54392  0.35094  Biso   1.000  C
  C74      1.0000 0.30771  0.97593  0.57063  Biso   1.000  C
  C75      1.0000 0.54470  0.30431  0.01426  Biso   1.000  C
  C76      1.0000 0.46950  0.52427  0.21150  Biso   1.000  C
  C77      1.0000 0.80333  0.98205  0.97409  Biso   1.000  C
  C78      1.0000 0.03744  0.29697  0.50396  Biso   1.000  C
  C79      1.0000 0.50453  0.02193  0.33750  Biso   1.000  C
  C80      1.0000 0.16855  0.47165  0.57579  Biso   1.000  C
  C81      1.0000 0.93838  0.80118  0.02200  Biso   1.000  C
  C82      1.0000 0.98877  0.04415  0.19806  Biso   1.000  C
  C83      1.0000 0.67059  0.47886  0.97706  Biso   1.000  C
  C84      1.0000 0.43153  0.80170  0.53292  Biso   1.000  C
  C85      1.0000 0.97833  0.41315  0.69727  Biso   1.000  C
  C86      1.0000 0.66654  0.97172  0.47156  Biso   1.000  C
  C87      1.0000 0.43698  0.66321  0.02585  Biso   1.000  C
  C88      1.0000 0.50165  0.43591  0.83714  Biso   1.000  C
  C89      1.0000 0.17128  0.98214  0.07059  Biso   1.000  C
  C90      1.0000 0.93430  0.66323  0.54114  Biso   1.000  C
  C91      1.0000 0.47744  0.93769  0.71234  Biso   1.000  C
  C92      1.0000 0.80777  0.48151  0.47364  Biso   1.000  C
  C93      1.0000 0.04426  0.16576  0.00636  Biso   1.000  C
  C94      1.0000 0.99293  0.91477  0.84656  Biso   1.000  C
  C95      1.0000 0.30959  0.48358  0.07092  Biso   1.000  C
  C96      1.0000 0.54374  0.16165  0.51136  Biso   1.000  C
  C97      1.0000 0.66385  0.06103  0.52148  Biso   1.000  C
  C98      1.0000 0.48476  0.65981  0.12631  Biso   1.000  C
  C99      1.0000 0.07269  0.45224  0.70432  Biso   1.000  C
  C100     1.0000 0.17161  0.07097  0.01634  Biso   1.000  C
  C101     1.0000 0.98628  0.66781  0.45042  Biso   1.000  C
  C102     1.0000 0.57624  0.49634  0.85344  Biso   1.000  C
  C103     1.0000 0.80732  0.56843  0.53106  Biso   1.000  C
  C104     1.0000 0.98608  0.16723  0.09258  Biso   1.000  C
  C105     1.0000 0.39605  0.00065  0.69901  Biso   1.000  C
  C106     1.0000 0.30803  0.56966  0.01361  Biso   1.000  C
  C107     1.0000 0.49679  0.15552  0.41893  Biso   1.000  C
  C108     1.0000 0.89685  0.96512  0.84305  Biso   1.000  C
  C109     1.0000 0.30469  0.89653  0.52875  Biso   1.000  C
  C110     1.0000 0.50166  0.30562  0.92323  Biso   1.000  C
  C111     1.0000 0.90069  0.48771  0.35282  Biso   1.000  C
  C112     1.0000 0.80585  0.89502  0.02433  Biso   1.000  C
  C113     1.0000 0.99333  0.29185  0.59639  Biso   1.000  C
  C114     1.0000 0.39588  0.45688  0.20033  Biso   1.000  C
  C115     1.0000 0.16541  0.39249  0.50797  Biso   1.000  C
  C116     1.0000 0.01873  0.80145  0.95403  Biso   1.000  C
  C117     1.0000 0.57452  0.95731  0.34517  Biso   1.000  C
  C118     1.0000 0.66852  0.39770  0.04479  Biso   1.000  C
  C119     1.0000 0.48058  0.80636  0.62589  Biso   1.000  C
  C120     1.0000 0.08001  0.98918  0.19767  Biso   1.000  C
  C121     1.0000 0.80359  0.97956  0.11538  Biso   1.000  C
  C122     1.0000 0.07742  0.80132  0.04437  Biso   1.000  C
  C123     1.0000 0.98408  0.05169  0.82893  Biso   1.000  C
  C124     1.0000 0.30806  0.99256  0.43127  Biso   1.000  C
  C125     1.0000 0.57076  0.79114  0.53905  Biso   1.000  C
  C126     1.0000 0.48870  0.07671  0.69512  Biso   1.000  C
  C127     1.0000 0.66534  0.49614  0.11970  Biso   1.000  C
  C128     1.0000 0.40186  0.30264  0.00936  Biso   1.000  C
  C129     1.0000 0.48835  0.57305  0.85246  Biso   1.000  C
  C130     1.0000 0.16728  0.48909  0.43781  Biso   1.000  C
  C131     1.0000 0.89627  0.30012  0.52896  Biso   1.000  C
  C132     1.0000 0.99984  0.55255  0.71153  Biso   1.000  C
  C133     1.0000 0.16688  0.98494  0.92834  Biso   1.000  C
  C134     1.0000 0.90088  0.15984  0.00475  Biso   1.000  C
  C135     1.0000 0.98649  0.90554  0.20975  Biso   1.000  C
  C136     1.0000 0.66088  0.97115  0.61250  Biso   1.000  C
  C137     1.0000 0.40082  0.15688  0.51216  Biso   1.000  C
  C138     1.0000 0.47158  0.88621  0.35051  Biso   1.000  C
  C139     1.0000 0.31060  0.47036  0.93267  Biso   1.000  C
  C140     1.0000 0.57547  0.66339  0.04700  Biso   1.000  C
  C141     1.0000 0.50347  0.38511  0.19915  Biso   1.000  C
  C142     1.0000 0.80649  0.49258  0.61564  Biso   1.000  C
  C143     1.0000 0.07474  0.66444  0.53258  Biso   1.000  C
  C144     1.0000 0.98572  0.40397  0.33702  Biso   1.000  C
  C145     1.0000 0.30779  0.48397  0.10350  Biso   1.000  C
  C146     1.0000 0.06944  0.29771  0.50193  Biso   1.000  C
  C147     1.0000 0.51089  0.05335  0.33382  Biso   1.000  C
  C148     1.0000 0.80553  0.48553  0.44270  Biso   1.000  C
  C149     1.0000 0.57544  0.30323  0.02449  Biso   1.000  C
  C150     1.0000 0.98887  0.07593  0.19313  Biso   1.000  C
  C151     1.0000 0.17217  0.98368  0.10237  Biso   1.000  C
  C152     1.0000 0.40033  0.80075  0.52798  Biso   1.000  C
  C153     1.0000 0.98210  0.57611  0.35352  Biso   1.000  C
  C154     1.0000 0.66898  0.96269  0.44087  Biso   1.000  C
  C155     1.0000 0.90635  0.80170  0.01672  Biso   1.000  C
  C156     1.0000 0.47282  0.55674  0.21284  Biso   1.000  C
  C157     1.0000 0.67111  0.47999  0.94456  Biso   1.000  C
  C158     1.0000 0.90197  0.66425  0.54235  Biso   1.000  C
  C159     1.0000 0.47722  0.90453  0.71766  Biso   1.000  C
  C160     1.0000 0.16967  0.46596  0.60829  Biso   1.000  C
  C161     1.0000 0.40638  0.66518  0.01748  Biso   1.000  C
  C162     1.0000 0.00019  0.88319  0.84860  Biso   1.000  C
  C163     1.0000 0.80428  0.97735  0.94286  Biso   1.000  C
  C164     1.0000 0.57583  0.15907  0.50887  Biso   1.000  C
  C165     1.0000 0.98171  0.38232  0.69598  Biso   1.000  C
  C166     1.0000 0.30639  0.97556  0.60219  Biso   1.000  C
  C167     1.0000 0.07601  0.16579  0.00421  Biso   1.000  C
  C168     1.0000 0.50423  0.40445  0.83303  Biso   1.000  C
  C169     1.0000 0.97356  0.80503  0.11684  Biso   1.000  C
  C170     1.0000 0.06515  0.97895  0.83458  Biso   1.000  C
  C171     1.0000 0.81119  0.06774  0.03635  Biso   1.000  C
  C172     1.0000 0.48592  0.79834  0.45188  Biso   1.000  C
  C173     1.0000 0.56758  0.97882  0.70825  Biso   1.000  C
  C174     1.0000 0.30619  0.06807  0.52785  Biso   1.000  C
  C175     1.0000 0.49453  0.29554  0.09663  Biso   1.000  C
  C176     1.0000 0.40679  0.46942  0.83934  Biso   1.000  C
  C177     1.0000 0.66686  0.56745  0.02938  Biso   1.000  C
  C178     1.0000 0.97941  0.30422  0.42586  Biso   1.000  C
  C179     1.0000 0.89965  0.47906  0.70698  Biso   1.000  C
  C180     1.0000 0.16602  0.56371  0.52777  Biso   1.000  C
  C181     1.0000 0.00039  0.15324  0.92007  Biso   1.000  C
  C182     1.0000 0.90581  0.97933  0.20365  Biso   1.000  C
  C183     1.0000 0.17017  0.89704  0.01814  Biso   1.000  C
  C184     1.0000 0.47871  0.16073  0.58996  Biso   1.000  C
  C185     1.0000 0.40709  0.99507  0.33669  Biso   1.000  C
  C186     1.0000 0.66154  0.88788  0.52661  Biso   1.000  C
  C187     1.0000 0.50608  0.66228  0.95322  Biso   1.000  C
  C188     1.0000 0.56672  0.49254  0.20945  Biso   1.000  C
  C189     1.0000 0.30788  0.39593  0.02138  Biso   1.000  C
  C190     1.0000 0.99209  0.65526  0.62452  Biso   1.000  C
  C191     1.0000 0.07460  0.49701  0.34246  Biso   1.000  C
  C192     1.0000 0.80245  0.39417  0.52853  Biso   1.000  C
  C193     1.0000 0.83115  0.97430  0.92631  Biso   1.000  C
  C194     1.0000 0.88974  0.82950  0.01975  Biso   1.000  C
  C195     1.0000 0.00702  0.87095  0.87649  Biso   1.000  C
  C196     1.0000 0.33142  0.98443  0.61812  Biso   1.000  C
  C197     1.0000 0.38424  0.82743  0.52723  Biso   1.000  C
  C198     1.0000 0.47785  0.88559  0.69230  Biso   1.000  C
  C199     1.0000 0.64349  0.48088  0.92849  Biso   1.000  C
  C200     1.0000 0.59065  0.32835  0.03289  Biso   1.000  C
  C201     1.0000 0.50505  0.38687  0.85930  Biso   1.000  C
  C202     1.0000 0.14206  0.46258  0.62348  Biso   1.000  C
  C203     1.0000 0.08621  0.32489  0.50189  Biso   1.000  C
  C204     1.0000 0.98588  0.36905  0.66739  Biso   1.000  C
  C205     1.0000 0.14446  0.98483  0.11995  Biso   1.000  C
  C206     1.0000 0.09266  0.13784  0.00585  Biso   1.000  C
  C207     1.0000 0.98989  0.09073  0.16498  Biso   1.000  C
  C208     1.0000 0.64182  0.96091  0.42431  Biso   1.000  C
  C209     1.0000 0.59112  0.13225  0.51114  Biso   1.000  C
  C210     1.0000 0.51097  0.07131  0.35876  Biso   1.000  C
  C211     1.0000 0.33325  0.47635  0.12089  Biso   1.000  C
  C212     1.0000 0.39010  0.63796  0.01677  Biso   1.000  C
  C213     1.0000 0.47640  0.57452  0.18639  Biso   1.000  C
  C214     1.0000 0.83305  0.48580  0.42863  Biso   1.000  C
  C215     1.0000 0.88544  0.63728  0.54531  Biso   1.000  C
  C216     1.0000 0.98423  0.59052  0.38154  Biso   1.000  C
  C217     1.0000 0.08204  0.97995  0.86155  Biso   1.000  C
  C218     1.0000 0.83671  0.08352  0.03025  Biso   1.000  C
  C219     1.0000 0.97239  0.83384  0.13255  Biso   1.000  C
  C220     1.0000 0.58119  0.97545  0.68006  Biso   1.000  C
  C221     1.0000 0.33225  0.08515  0.52653  Biso   1.000  C
  C222     1.0000 0.48127  0.82444  0.43533  Biso   1.000  C
  C223     1.0000 0.39037  0.46764  0.86583  Biso   1.000  C
  C224     1.0000 0.63958  0.58276  0.03658  Biso   1.000  C
  C225     1.0000 0.49728  0.32251  0.11462  Biso   1.000  C
  C226     1.0000 0.88235  0.48067  0.68074  Biso   1.000  C
  C227     1.0000 0.13990  0.58059  0.53211  Biso   1.000  C
  C228     1.0000 0.98114  0.33178  0.41160  Biso   1.000  C
  C229     1.0000 0.88679  0.98139  0.17823  Biso   1.000  C
  C230     1.0000 0.14370  0.88062  0.02099  Biso   1.000  C
  C231     1.0000 0.99885  0.12416  0.90453  Biso   1.000  C
  C232     1.0000 0.39081  0.99488  0.36416  Biso   1.000  C
  C233     1.0000 0.63530  0.87187  0.53146  Biso   1.000  C
  C234     1.0000 0.48282  0.13522  0.60894  Biso   1.000  C
  C235     1.0000 0.58343  0.49760  0.18433  Biso   1.000  C
  C236     1.0000 0.33475  0.37951  0.01864  Biso   1.000  C
  C237     1.0000 0.50242  0.63717  0.93400  Biso   1.000  C
  C238     1.0000 0.09149  0.49814  0.36988  Biso   1.000  C
  C239     1.0000 0.82876  0.37838  0.52923  Biso   1.000  C
  C240     1.0000 0.99131  0.62831  0.63993  Biso   1.000  C
  C241     1.0000 0.59335  0.48905  0.87920  Biso   1.000  C
  C242     1.0000 0.83396  0.58361  0.53579  Biso   1.000  C
  C243     1.0000 0.47754  0.83344  0.64192  Biso   1.000  C
  C244     1.0000 0.09040  0.45780  0.67758  Biso   1.000  C
  C245     1.0000 0.33650  0.58367  0.01366  Biso   1.000  C
  C246     1.0000 0.01605  0.82636  0.93572  Biso   1.000  C
  C247     1.0000 0.88080  0.96611  0.87163  Biso   1.000  C
  C248     1.0000 0.63844  0.07917  0.52085  Biso   1.000  C
  C249     1.0000 0.98887  0.31929  0.61456  Biso   1.000  C
  C250     1.0000 0.38156  0.99547  0.67028  Biso   1.000  C
  C251     1.0000 0.14323  0.08705  0.01394  Biso   1.000  C
  C252     1.0000 0.50414  0.33370  0.90914  Biso   1.000  C
  C253     1.0000 0.38244  0.46236  0.17226  Biso   1.000  C
  C254     1.0000 0.13714  0.37851  0.50534  Biso   1.000  C
  C255     1.0000 0.50112  0.12683  0.40437  Biso   1.000  C
  C256     1.0000 0.88364  0.48596  0.37888  Biso   1.000  C
  C257     1.0000 0.64069  0.38075  0.04160  Biso   1.000  C
  C258     1.0000 0.98559  0.14028  0.10841  Biso   1.000  C
  C259     1.0000 0.09595  0.98871  0.17036  Biso   1.000  C
  C260     1.0000 0.33234  0.88127  0.52855  Biso   1.000  C
  C261     1.0000 0.98727  0.64186  0.43262  Biso   1.000  C
  C262     1.0000 0.58961  0.95963  0.37219  Biso   1.000  C
  C263     1.0000 0.83366  0.88112  0.02447  Biso   1.000  C
  C264     1.0000 0.48156  0.63080  0.13876  Biso   1.000  C
  C265     1.0000 0.98820  0.06830  0.85638  Biso   1.000  C
  C266     1.0000 0.83269  0.98295  0.13013  Biso   1.000  C
  C267     1.0000 0.09230  0.82802  0.03659  Biso   1.000  C
  C268     1.0000 0.48888  0.08824  0.66668  Biso   1.000  C
  C269     1.0000 0.33489  0.99366  0.41633  Biso   1.000  C
  C270     1.0000 0.58551  0.81927  0.53476  Biso   1.000  C
  C271     1.0000 0.49018  0.58849  0.88118  Biso   1.000  C
  C272     1.0000 0.63814  0.49734  0.13636  Biso   1.000  C
  C273     1.0000 0.38615  0.32883  0.01280  Biso   1.000  C
  C274     1.0000 0.99707  0.57063  0.68587  Biso   1.000  C
  C275     1.0000 0.14219  0.49341  0.41981  Biso   1.000  C
  C276     1.0000 0.88053  0.32799  0.53028  Biso   1.000  C
  C277     1.0000 0.98174  0.88837  0.18402  Biso   1.000  C
  C278     1.0000 0.13822  0.98405  0.91480  Biso   1.000  C
  C279     1.0000 0.88653  0.13226  0.01323  Biso   1.000  C
  C280     1.0000 0.47077  0.87302  0.37918  Biso   1.000  C
  C281     1.0000 0.63428  0.97069  0.62894  Biso   1.000  C
  C282     1.0000 0.38391  0.13224  0.51789  Biso   1.000  C
  C283     1.0000 0.50094  0.37150  0.17040  Biso   1.000  C
  C284     1.0000 0.33840  0.47028  0.91635  Biso   1.000  C
  C285     1.0000 0.58856  0.63520  0.04594  Biso   1.000  C
  C286     1.0000 0.98446  0.38785  0.36292  Biso   1.000  C
  C287     1.0000 0.83299  0.48868  0.63147  Biso   1.000  C
  C288     1.0000 0.08966  0.63629  0.53534  Biso   1.000  C
  C289     1.0000 0.33039  0.84935  0.53161  Biso   1.000  C
  C290     1.0000 0.50107  0.33446  0.87815  Biso   1.000  C
  C291     1.0000 0.85254  0.48702  0.37550  Biso   1.000  C
  C292     1.0000 0.83573  0.84969  0.01978  Biso   1.000  C
  C293     1.0000 0.99264  0.31695  0.64603  Biso   1.000  C
  C294     1.0000 0.35134  0.46827  0.17356  Biso   1.000  C
  C295     1.0000 0.13879  0.34607  0.50672  Biso   1.000  C
  C296     1.0000 0.01615  0.82146  0.90444  Biso   1.000  C
  C297     1.0000 0.62139  0.96072  0.37188  Biso   1.000  C
  C298     1.0000 0.64398  0.34857  0.03816  Biso   1.000  C
  C299     1.0000 0.47853  0.83396  0.67429  Biso   1.000  C
  C300     1.0000 0.12666  0.99125  0.17270  Biso   1.000  C
  C301     1.0000 0.64267  0.11059  0.51529  Biso   1.000  C
  C302     1.0000 0.48169  0.63066  0.17044  Biso   1.000  C
  C303     1.0000 0.12238  0.45542  0.67681  Biso   1.000  C
  C304     1.0000 0.14389  0.11818  0.01320  Biso   1.000  C
  C305     1.0000 0.98444  0.64441  0.40189  Biso   1.000  C
  C306     1.0000 0.62466  0.48878  0.87677  Biso   1.000  C
  C307     1.0000 0.83225  0.61556  0.53606  Biso   1.000  C
  C308     1.0000 0.98764  0.14351  0.14049  Biso   1.000  C
  C309     1.0000 0.34956  0.99264  0.67253  Biso   1.000  C
  C310     1.0000 0.33633  0.61567  0.01396  Biso   1.000  C
  C311     1.0000 0.50864  0.12470  0.37434  Biso   1.000  C
  C312     1.0000 0.84967  0.96917  0.87138  Biso   1.000  C
  C313     1.0000 0.14456  0.49675  0.38939  Biso   1.000  C
  C314     1.0000 0.35290  0.13662  0.51981  Biso   1.000  C
  C315     1.0000 0.50478  0.33966  0.16873  Biso   1.000  C
  C316     1.0000 0.63750  0.49555  0.16724  Biso   1.000  C
  C317     1.0000 0.85625  0.13493  0.01970  Biso   1.000  C
  C318     1.0000 0.98524  0.35606  0.35956  Biso   1.000  C
  C319     1.0000 0.33635  0.99755  0.38509  Biso   1.000  C
  C320     1.0000 0.12065  0.63441  0.53176  Biso   1.000  C
  C321     1.0000 0.98027  0.85723  0.18611  Biso   1.000  C
  C322     1.0000 0.83203  0.97874  0.16187  Biso   1.000  C
  C323     1.0000 0.61897  0.63473  0.04344  Biso   1.000  C
  C324     1.0000 0.47369  0.84138  0.38055  Biso   1.000  C
  C325     1.0000 0.83247  0.49249  0.66211  Biso   1.000  C
  C326     1.0000 0.61628  0.81758  0.52838  Biso   1.000  C
  C327     1.0000 0.49366  0.61932  0.88086  Biso   1.000  C
  C328     1.0000 0.33589  0.46396  0.88482  Biso   1.000  C
  C329     1.0000 0.12427  0.82815  0.03327  Biso   1.000  C
  C330     1.0000 0.99719  0.60172  0.69044  Biso   1.000  C
  C331     1.0000 0.63505  0.97178  0.66066  Biso   1.000  C
  C332     1.0000 0.84939  0.32630  0.52769  Biso   1.000  C
  C333     1.0000 0.99618  0.09922  0.85369  Biso   1.000  C
  C334     1.0000 0.13594  0.98201  0.88189  Biso   1.000  C
  C335     1.0000 0.35502  0.32658  0.01611  Biso   1.000  C
  C336     1.0000 0.48406  0.12045  0.66342  Biso   1.000  C
  C337     1.0000 0.64625  0.48488  0.89716  Biso   1.000  C
  C338     1.0000 0.85388  0.63772  0.53936  Biso   1.000  C
  C339     1.0000 0.47835  0.85535  0.69546  Biso   1.000  C
  C340     1.0000 0.14358  0.45681  0.65480  Biso   1.000  C
  C341     1.0000 0.35838  0.63811  0.01450  Biso   1.000  C
  C342     1.0000 0.01248  0.84000  0.88099  Biso   1.000  C
  C343     1.0000 0.82872  0.97229  0.89401  Biso   1.000  C
  C344     1.0000 0.62232  0.13208  0.51377  Biso   1.000  C
  C345     1.0000 0.99107  0.33714  0.66745  Biso   1.000  C
  C346     1.0000 0.32838  0.98648  0.65107  Biso   1.000  C
  C347     1.0000 0.12329  0.14009  0.00980  Biso   1.000  C
  C348     1.0000 0.50302  0.35579  0.85652  Biso   1.000  C
  C349     1.0000 0.33126  0.47509  0.15147  Biso   1.000  C
  C350     1.0000 0.11633  0.32453  0.50514  Biso   1.000  C
  C351     1.0000 0.51202  0.10257  0.35429  Biso   1.000  C
  C352     1.0000 0.83123  0.48731  0.39682  Biso   1.000  C
  C353     1.0000 0.62294  0.32718  0.03357  Biso   1.000  C
  C354     1.0000 0.98830  0.12206  0.16389  Biso   1.000  C
  C355     1.0000 0.14760  0.98966  0.15086  Biso   1.000  C
  C356     1.0000 0.35260  0.82781  0.52848  Biso   1.000  C
  C357     1.0000 0.98271  0.62272  0.38059  Biso   1.000  C
  C358     1.0000 0.64202  0.96113  0.39325  Biso   1.000  C
  C359     1.0000 0.85833  0.82887  0.01976  Biso   1.000  C
  C360     1.0000 0.47951  0.60687  0.18938  Biso   1.000  C
  C361     1.0000 0.00050  0.12144  0.87378  Biso   1.000  C
  C362     1.0000 0.85581  0.97714  0.18178  Biso   1.000  C
  C363     1.0000 0.14503  0.84955  0.02634  Biso   1.000  C
  C364     1.0000 0.48302  0.14062  0.64017  Biso   1.000  C
  C365     1.0000 0.35819  0.99692  0.36353  Biso   1.000  C
  C366     1.0000 0.63676  0.83988  0.52807  Biso   1.000  C
  C367     1.0000 0.49893  0.63967  0.90317  Biso   1.000  C
  C368     1.0000 0.61351  0.49520  0.18697  Biso   1.000  C
  C369     1.0000 0.33407  0.34832  0.01794  Biso   1.000  C
  C370     1.0000 0.99551  0.62552  0.67091  Biso   1.000  C
  C371     1.0000 0.12365  0.49966  0.36755  Biso   1.000  C
  C372     1.0000 0.82858  0.34771  0.52793  Biso   1.000  C
  C373     1.0000 0.97498  0.83572  0.16400  Biso   1.000  C
  C374     1.0000 0.11387  0.98070  0.86096  Biso   1.000  C
  C375     1.0000 0.83471  0.11434  0.02667  Biso   1.000  C
  C376     1.0000 0.47748  0.82232  0.40394  Biso   1.000  C
  C377     1.0000 0.61358  0.97522  0.68155  Biso   1.000  C
  C378     1.0000 0.33061  0.11714  0.52459  Biso   1.000  C
  C379     1.0000 0.50276  0.31876  0.14541  Biso   1.000  C
  C380     1.0000 0.35822  0.46265  0.86366  Biso   1.000  C
  C381     1.0000 0.64110  0.61308  0.04044  Biso   1.000  C
  C382     1.0000 0.98174  0.33442  0.38028  Biso   1.000  C
  C383     1.0000 0.85255  0.48946  0.68374  Biso   1.000  C
  C384     1.0000 0.14175  0.61183  0.53107  Biso   1.000  C
  C385     1.0000 0.17144  0.13304  0.01497  Biso   1.000  C
  C386     1.0000 0.98629  0.17095  0.15584  Biso   1.000  C
  C387     1.0000 0.14385  0.99374  0.19926  Biso   1.000  C
  C388     1.0000 0.67032  0.12291  0.51400  Biso   1.000  C
  C389     1.0000 0.50937  0.15104  0.35735  Biso   1.000  C
  C390     1.0000 0.63699  0.96207  0.34550  Biso   1.000  C
  C391     1.0000 0.30949  0.63245  0.01453  Biso   1.000  C
  C392     1.0000 0.48487  0.65512  0.18866  Biso   1.000  C
  C393     1.0000 0.33580  0.46931  0.19991  Biso   1.000  C
  C394     1.0000 0.80675  0.63273  0.53112  Biso   1.000  C
  C395     1.0000 0.98349  0.67202  0.38781  Biso   1.000  C
  C396     1.0000 0.83686  0.48749  0.34799  Biso   1.000  C
  C397     1.0000 0.80830  0.83273  0.01828  Biso   1.000  C
  C398     1.0000 0.02123  0.79310  0.89139  Biso   1.000  C
  C399     1.0000 0.83343  0.97258  0.84472  Biso   1.000  C
  C400     1.0000 0.30511  0.83317  0.53327  Biso   1.000  C
  C401     1.0000 0.48197  0.80785  0.69047  Biso   1.000  C
  C402     1.0000 0.33395  0.99308  0.69996  Biso   1.000  C
  C403     1.0000 0.67108  0.33462  0.03567  Biso   1.000  C
  C404     1.0000 0.49613  0.30740  0.86136  Biso   1.000  C
  C405     1.0000 0.64014  0.49379  0.85021  Biso   1.000  C
  C406     1.0000 0.16437  0.33016  0.50923  Biso   1.000  C
  C407     1.0000 0.99907  0.29051  0.65982  Biso   1.000  C
  C408     1.0000 0.13812  0.44964  0.70258  Biso   1.000  C
  C409     1.0000 0.12894  0.97959  0.83416  Biso   1.000  C
  C410     1.0000 0.80877  0.13137  0.03002  Biso   1.000  C
  C411     1.0000 0.97629  0.80866  0.17994  Biso   1.000  C
  C412     1.0000 0.62996  0.97460  0.70864  Biso   1.000  C
  C413     1.0000 0.30456  0.13412  0.52348  Biso   1.000  C
  C414     1.0000 0.47896  0.79425  0.38964  Biso   1.000  C
  C415     1.0000 0.34258  0.45867  0.83685  Biso   1.000  C
  C416     1.0000 0.66829  0.62938  0.03863  Biso   1.000  C
  C417     1.0000 0.50582  0.29097  0.15862  Biso   1.000  C
  C418     1.0000 0.83847  0.49211  0.71041  Biso   1.000  C
  C419     1.0000 0.16989  0.62749  0.52844  Biso   1.000  C
  C420     1.0000 0.98028  0.30738  0.36449  Biso   1.000  C
  C421     1.0000 0.84261  0.97212  0.20902  Biso   1.000  C
  C422     1.0000 0.17163  0.83381  0.02226  Biso   1.000  C
  C423     1.0000 0.00600  0.14709  0.85854  Biso   1.000  C
  C424     1.0000 0.34413  0.99942  0.33645  Biso   1.000  C
  C425     1.0000 0.66365  0.82423  0.52275  Biso   1.000  C
  C426     1.0000 0.47931  0.16858  0.65363  Biso   1.000  C
  C427     1.0000 0.62885  0.49344  0.21437  Biso   1.000  C
  C428     1.0000 0.30635  0.33236  0.02140  Biso   1.000  C
  C429     1.0000 0.50105  0.66705  0.88882  Biso   1.000  C
  C430     1.0000 0.13777  0.50155  0.34024  Biso   1.000  C
  C431     1.0000 0.80136  0.33257  0.52362  Biso   1.000  C
  C432     1.0000 0.99820  0.65055  0.68911  Biso   1.000  C
  C433     1.0000 0.99899  0.11363  0.82700  Biso   1.000  C
  C434     1.0000 0.80695  0.97521  0.17900  Biso   1.000  C
  C435     1.0000 0.14126  0.80239  0.03505  Biso   1.000  C
  C436     1.0000 0.48319  0.13884  0.68898  Biso   1.000  C
  C437     1.0000 0.31037  0.00029  0.36805  Biso   1.000  C
  C438     1.0000 0.63197  0.79079  0.52628  Biso   1.000  C
  C439     1.0000 0.49235  0.63612  0.85473  Biso   1.000  C
  C440     1.0000 0.66286  0.49550  0.18416  Biso   1.000  C
  C441     1.0000 0.33889  0.29955  0.01652  Biso   1.000  C
  C442     1.0000 0.00073  0.61484  0.71922  Biso   1.000  C
  C443     1.0000 0.17287  0.49595  0.37423  Biso   1.000  C
  C444     1.0000 0.83284  0.30106  0.52189  Biso   1.000  C
  C445     1.0000 0.98315  0.84171  0.21339  Biso   1.000  C
  C446     1.0000 0.16185  0.98403  0.86559  Biso   1.000  C
  C447     1.0000 0.84140  0.16265  0.01855  Biso   1.000  C
  C448     1.0000 0.47410  0.82445  0.35479  Biso   1.000  C
  C449     1.0000 0.66084  0.96978  0.67653  Biso   1.000  C
  C450     1.0000 0.33865  0.16448  0.51576  Biso   1.000  C
  C451     1.0000 0.50782  0.32126  0.19348  Biso   1.000  C
  C452     1.0000 0.30985  0.45689  0.86893  Biso   1.000  C
  C453     1.0000 0.63736  0.66133  0.04242  Biso   1.000  C
  C454     1.0000 0.98617  0.34159  0.33235  Biso   1.000  C
  C455     1.0000 0.80677  0.49828  0.67757  Biso   1.000  C
  C456     1.0000 0.13799  0.66089  0.52846  Biso   1.000  C
  C457     1.0000 0.98024  0.63897  0.35409  Biso   1.000  C
  C458     1.0000 0.30218  0.98171  0.66731  Biso   1.000  C
  C459     1.0000 0.63911  0.30106  0.02686  Biso   1.000  C
  C460     1.0000 0.47923  0.61958  0.21756  Biso   1.000  C
  C461     1.0000 0.80146  0.97642  0.87814  Biso   1.000  C
  C462     1.0000 0.13001  0.29702  0.50608  Biso   1.000  C
  C463     1.0000 0.51395  0.11605  0.32646  Biso   1.000  C
  C464     1.0000 0.17075  0.45249  0.67041  Biso   1.000  C
  C465     1.0000 0.84342  0.80162  0.01986  Biso   1.000  C
  C466     1.0000 0.98775  0.13966  0.18990  Biso   1.000  C
  C467     1.0000 0.67338  0.48640  0.88031  Biso   1.000  C
  C468     1.0000 0.33713  0.80037  0.53153  Biso   1.000  C
  C469     1.0000 0.99331  0.32075  0.69414  Biso   1.000  C
  C470     1.0000 0.66970  0.96040  0.37843  Biso   1.000  C
  C471     1.0000 0.34288  0.66630  0.01611  Biso   1.000  C
  C472     1.0000 0.50003  0.34028  0.82933  Biso   1.000  C
  C473     1.0000 0.17544  0.99401  0.16431  Biso   1.000  C
  C474     1.0000 0.83997  0.66585  0.53419  Biso   1.000  C
  C475     1.0000 0.48029  0.84081  0.72189  Biso   1.000  C
  C476     1.0000 0.80446  0.48943  0.38045  Biso   1.000  C
  C477     1.0000 0.13956  0.16632  0.01003  Biso   1.000  C
  C478     1.0000 0.01344  0.82145  0.85496  Biso   1.000  C
  C479     1.0000 0.30461  0.47919  0.16659  Biso   1.000  C
  C480     1.0000 0.63883  0.15789  0.51243  Biso   1.000  C
  C481     1.0000 0.35381  0.77304  0.53603  Biso   1.000  C
  C482     1.0000 0.50043  0.35844  0.80302  Biso   1.000  C
  C483     1.0000 0.77805  0.48770  0.39645  Biso   1.000  C
  C484     1.0000 0.85860  0.77418  0.01641  Biso   1.000  C
  C485     1.0000 0.98877  0.33535  0.72334  Biso   1.000  C
  C486     1.0000 0.27992  0.48806  0.14913  Biso   1.000  C
  C487     1.0000 0.11492  0.26790  0.50673  Biso   1.000  C
  C488     1.0000 0.00855  0.83455  0.82641  Biso   1.000  C
  C489     1.0000 0.69635  0.96030  0.39506  Biso   1.000  C
  C490     1.0000 0.62244  0.27440  0.02327  Biso   1.000  C
  C491     1.0000 0.48013  0.85968  0.74902  Biso   1.000  C
  C492     1.0000 0.20112  0.99593  0.14707  Biso   1.000  C
  C493     1.0000 0.62298  0.18563  0.51075  Biso   1.000  C
  C494     1.0000 0.47544  0.60282  0.24471  Biso   1.000  C
  C495     1.0000 0.19721  0.45439  0.65478  Biso   1.000  C
  C496     1.0000 0.12321  0.19317  0.00796  Biso   1.000  C
  C497     1.0000 0.98065  0.62371  0.32757  Biso   1.000  C
  C498     1.0000 0.69894  0.48038  0.89742  Biso   1.000  C
  C499     1.0000 0.85642  0.69304  0.53432  Biso   1.000  C
  C500     1.0000 0.98544  0.12574  0.21798  Biso   1.000  C
  C501     1.0000 0.27638  0.97466  0.64923  Biso   1.000  C
  C502     1.0000 0.35979  0.69283  0.01921  Biso   1.000  C
  C503     1.0000 0.51763  0.09807  0.30165  Biso   1.000  C
  C504     1.0000 0.77485  0.97746  0.89522  Biso   1.000  C
  C505     1.0000 0.62416  0.50262  0.82616  Biso   1.000  C
  C506     1.0000 0.77968  0.61563  0.52474  Biso   1.000  C
  C507     1.0000 0.48519  0.77995  0.67329  Biso   1.000  C
  C508     1.0000 0.12177  0.44639  0.72999  Biso   1.000  C
  C509     1.0000 0.28103  0.61814  0.01534  Biso   1.000  C
  C510     1.0000 0.02945  0.76976  0.91049  Biso   1.000  C
  C511     1.0000 0.84759  0.97318  0.81704  Biso   1.000  C
  C512     1.0000 0.69597  0.10360  0.51253  Biso   1.000  C
  C513     1.0000 0.00559  0.26643  0.64164  Biso   1.000  C
  C514     1.0000 0.34915  0.99897  0.72744  Biso   1.000  C
  C515     1.0000 0.20066  0.11773  0.01642  Biso   1.000  C
  C516     1.0000 0.49520  0.27875  0.87657  Biso   1.000  C
  C517     1.0000 0.34902  0.46065  0.22659  Biso   1.000  C
  C518     1.0000 0.19308  0.34630  0.51095  Biso   1.000  C
  C519     1.0000 0.50787  0.17895  0.37165  Biso   1.000  C
  C520     1.0000 0.85399  0.48896  0.32159  Biso   1.000  C
  C521     1.0000 0.69808  0.35099  0.03888  Biso   1.000  C
  C522     1.0000 0.98484  0.19799  0.13927  Biso   1.000  C
  C523     1.0000 0.12868  0.99418  0.22759  Biso   1.000  C
  C524     1.0000 0.27809  0.84869  0.53036  Biso   1.000  C
  C525     1.0000 0.98478  0.69866  0.40593  Biso   1.000  C
  C526     1.0000 0.62148  0.95993  0.31724  Biso   1.000  C
  C527     1.0000 0.78037  0.84715  0.02016  Biso   1.000  C
  C528     1.0000 0.48836  0.68436  0.17600  Biso   1.000  C
  C529     1.0000 0.78271  0.11558  0.04001  Biso   1.000  C
  C530     1.0000 0.97255  0.77967  0.16531  Biso   1.000  C
  C531     1.0000 0.11244  0.97585  0.80503  Biso   1.000  C
  C532     1.0000 0.27781  0.11717  0.53083  Biso   1.000  C
  C533     1.0000 0.48699  0.76886  0.40601  Biso   1.000  C
  C534     1.0000 0.61628  0.97718  0.73649  Biso   1.000  C
  C535     1.0000 0.69436  0.61420  0.03127  Biso   1.000  C
  C536     1.0000 0.50169  0.26549  0.14122  Biso   1.000  C
  C537     1.0000 0.36084  0.45455  0.81057  Biso   1.000  C
  C538     1.0000 0.19612  0.61082  0.52182  Biso   1.000  C
  C539     1.0000 0.97572  0.27925  0.37712  Biso   1.000  C
  C540     1.0000 0.85535  0.49096  0.73786  Biso   1.000  C
  C541     1.0000 0.19838  0.85007  0.01405  Biso   1.000  C
  C542     1.0000 0.01574  0.17298  0.87214  Biso   1.000  C
  C543     1.0000 0.86038  0.96980  0.23402  Biso   1.000  C
  C544     1.0000 0.68967  0.84139  0.51618  Biso   1.000  C
  C545     1.0000 0.47511  0.19306  0.63471  Biso   1.000  C
  C546     1.0000 0.36046  0.00013  0.30942  Biso   1.000  C
  C547     1.0000 0.27903  0.34748  0.02893  Biso   1.000  C
  C548     1.0000 0.50408  0.69266  0.90667  Biso   1.000  C
  C549     1.0000 0.61187  0.49190  0.24062  Biso   1.000  C
  C550     1.0000 0.77379  0.34728  0.52223  Biso   1.000  C
  C551     1.0000 0.00082  0.67841  0.67469  Biso   1.000  C
  C552     1.0000 0.12032  0.49981  0.31404  Biso   1.000  C
  C553     1.0000 0.99279  0.09805  0.79921  Biso   1.000  C
  C554     1.0000 0.77872  0.97494  0.16480  Biso   1.000  C
  C555     1.0000 0.12603  0.77633  0.04384  Biso   1.000  C
  C556     1.0000 0.48740  0.12738  0.71734  Biso   1.000  C
  C557     1.0000 0.28199  0.99895  0.38336  Biso   1.000  C
  C558     1.0000 0.61724  0.76359  0.53173  Biso   1.000  C
  C559     1.0000 0.48716  0.62062  0.82687  Biso   1.000  C
  C560     1.0000 0.68986  0.49315  0.16869  Biso   1.000  C
  C561     1.0000 0.35612  0.27297  0.01105  Biso   1.000  C
  C562     1.0000 0.00017  0.59751  0.74528  Biso   1.000  C
  C563     1.0000 0.19864  0.49464  0.39238  Biso   1.000  C
  C564     1.0000 0.84814  0.27348  0.52284  Biso   1.000  C
  C565     1.0000 0.98754  0.85870  0.23981  Biso   1.000  C
  C566     1.0000 0.19070  0.98060  0.87947  Biso   1.000  C
  C567     1.0000 0.85522  0.18835  0.00603  Biso   1.000  C
  C568     1.0000 0.47115  0.83760  0.32558  Biso   1.000  C
  C569     1.0000 0.68794  0.96714  0.66081  Biso   1.000  C
  C570     1.0000 0.35613  0.18956  0.50871  Biso   1.000  C
  C571     1.0000 0.51362  0.33658  0.22172  Biso   1.000  C
  C572     1.0000 0.28317  0.45708  0.88518  Biso   1.000  C
  C573     1.0000 0.62376  0.68930  0.04370  Biso   1.000  C
  C574     1.0000 0.98844  0.35874  0.30578  Biso   1.000  C
  C575     1.0000 0.77933  0.50396  0.66140  Biso   1.000  C
  C576     1.0000 0.12278  0.69025  0.52713  Biso   1.000  C
  C577     1.0000 0.28126  0.49002  0.11745  Biso   1.000  C
  C578     1.0000 0.08334  0.26855  0.50286  Biso   1.000  C
  C579     1.0000 0.51727  0.06742  0.30461  Biso   1.000  C
  C580     1.0000 0.77810  0.48729  0.42753  Biso   1.000  C
  C581     1.0000 0.59110  0.27648  0.01975  Biso   1.000  C
  C582     1.0000 0.98521  0.09452  0.21973  Biso   1.000  C
  C583     1.0000 0.20054  0.98829  0.11731  Biso   1.000  C
  C584     1.0000 0.38485  0.77367  0.52987  Biso   1.000  C
  C585     1.0000 0.97994  0.59251  0.32740  Biso   1.000  C
  C586     1.0000 0.69636  0.95996  0.42720  Biso   1.000  C
  C587     1.0000 0.89004  0.77527  0.01349  Biso   1.000  C
  C588     1.0000 0.47173  0.57096  0.24127  Biso   1.000  C
  C589     1.0000 0.69959  0.47842  0.92903  Biso   1.000  C
  C590     1.0000 0.88833  0.69144  0.53831  Biso   1.000  C
  C591     1.0000 0.47753  0.89113  0.74610  Biso   1.000  C
  C592     1.0000 0.19718  0.45910  0.62408  Biso   1.000  C
  C593     1.0000 0.39094  0.69317  0.01525  Biso   1.000  C
  C594     1.0000 0.00151  0.86383  0.82392  Biso   1.000  C
  C595     1.0000 0.77639  0.97694  0.92755  Biso   1.000  C
  C596     1.0000 0.59153  0.18646  0.50874  Biso   1.000  C
  C597     1.0000 0.98306  0.36697  0.72377  Biso   1.000  C
  C598     1.0000 0.27796  0.97017  0.61730  Biso   1.000  C
  C599     1.0000 0.09200  0.19224  0.00370  Biso   1.000  C
  C600     1.0000 0.50391  0.38866  0.80496  Biso   1.000  C
  C601     1.0000 0.19337  0.98064  0.91171  Biso   1.000  C
  C602     1.0000 0.88505  0.18604  0.99778  Biso   1.000  C
  C603     1.0000 0.98969  0.89134  0.23756  Biso   1.000  C
  C604     1.0000 0.68689  0.96772  0.62944  Biso   1.000  C
  C605     1.0000 0.38671  0.18553  0.50714  Biso   1.000  C
  C606     1.0000 0.47167  0.86942  0.32388  Biso   1.000  C
  C607     1.0000 0.28288  0.46425  0.91586  Biso   1.000  C
  C608     1.0000 0.59252  0.68966  0.04755  Biso   1.000  C
  C609     1.0000 0.50953  0.36784  0.22392  Biso   1.000  C
  C610     1.0000 0.77914  0.50020  0.62965  Biso   1.000  C
  C611     1.0000 0.09125  0.69145  0.52794  Biso   1.000  C
  C612     1.0000 0.98640  0.39010  0.30798  Biso   1.000  C
  C613     1.0000 0.77676  0.97676  0.13224  Biso   1.000  C
  C614     1.0000 0.09502  0.77564  0.04766  Biso   1.000  C
  C615     1.0000 0.98590  0.06661  0.80088  Biso   1.000  C
  C616     1.0000 0.28052  0.99466  0.41441  Biso   1.000  C
  C617     1.0000 0.58634  0.76424  0.53871  Biso   1.000  C
  C618     1.0000 0.48824  0.09628  0.72076  Biso   1.000  C
  C619     1.0000 0.69181  0.49507  0.13621  Biso   1.000  C
  C620     1.0000 0.38828  0.27476  0.00856  Biso   1.000  C
  C621     1.0000 0.48735  0.58956  0.82597  Biso   1.000  C
  C622     1.0000 0.19540  0.49023  0.42430  Biso   1.000  C
  C623     1.0000 0.88040  0.27251  0.52613  Biso   1.000  C
  C624     1.0000 0.00090  0.56560  0.74097  Biso   1.000  C
  C625     1.0000 0.01187  0.17723  0.90340  Biso   1.000  C
  C626     1.0000 0.89219  0.97385  0.23157  Biso   1.000  C
  C627     1.0000 0.19769  0.88153  0.01339  Biso   1.000  C
  C628     1.0000 0.47324  0.18920  0.60391  Biso   1.000  C
  C629     1.0000 0.39228  0.99938  0.30883  Biso   1.000  C
  C630     1.0000 0.68909  0.87265  0.52056  Biso   1.000  C
  C631     1.0000 0.50547  0.69014  0.93878  Biso   1.000  C
  C632     1.0000 0.58103  0.49108  0.23802  Biso   1.000  C
  C633     1.0000 0.28074  0.37974  0.02877  Biso   1.000  C
  C634     1.0000 0.99865  0.68020  0.64340  Biso   1.000  C
  C635     1.0000 0.08931  0.49769  0.31486  Biso   1.000  C
  C636     1.0000 0.77429  0.37951  0.52479  Biso   1.000  C
  C637     1.0000 0.97267  0.77867  0.13336  Biso   1.000  C
  C638     1.0000 0.07973  0.97631  0.80665  Biso   1.000  C
  C639     1.0000 0.78483  0.08481  0.04204  Biso   1.000  C
  C640     1.0000 0.48901  0.76872  0.43728  Biso   1.000  C
  C641     1.0000 0.58525  0.97861  0.73634  Biso   1.000  C
  C642     1.0000 0.27843  0.08473  0.53002  Biso   1.000  C
  C643     1.0000 0.49595  0.26765  0.11074  Biso   1.000  C
  C644     1.0000 0.39103  0.46206  0.81137  Biso   1.000  C
  C645     1.0000 0.69529  0.58374  0.02724  Biso   1.000  C
  C646     1.0000 0.97576  0.27850  0.40852  Biso   1.000  C
  C647     1.0000 0.88631  0.48356  0.73455  Biso   1.000  C
  C648     1.0000 0.19228  0.57893  0.52315  Biso   1.000  C
  C649     1.0000 0.98324  0.69593  0.43720  Biso   1.000  C
  C650     1.0000 0.37999  0.00276  0.72629  Biso   1.000  C
  C651     1.0000 0.69663  0.38177  0.04447  Biso   1.000  C
  C652     1.0000 0.48888  0.68588  0.14397  Biso   1.000  C
  C653     1.0000 0.88023  0.97118  0.81651  Biso   1.000  C
  C654     1.0000 0.19281  0.37722  0.51006  Biso   1.000  C
  C655     1.0000 0.49995  0.18091  0.40052  Biso   1.000  C
  C656     1.0000 0.08995  0.44528  0.73002  Biso   1.000  C
  C657     1.0000 0.77912  0.87828  0.02184  Biso   1.000  C
  C658     1.0000 0.98563  0.19556  0.10775  Biso   1.000  C
  C659     1.0000 0.59273  0.50432  0.82769  Biso   1.000  C
  C660     1.0000 0.27684  0.88005  0.53088  Biso   1.000  C
  C661     1.0000 0.00449  0.26682  0.61018  Biso   1.000  C
  C662     1.0000 0.59003  0.95776  0.31853  Biso   1.000  C
  C663     1.0000 0.28013  0.58679  0.01320  Biso   1.000  C
  C664     1.0000 0.50041  0.27769  0.90844  Biso   1.000  C
  C665     1.0000 0.09523  0.99161  0.22546  Biso   1.000  C
  C666     1.0000 0.78060  0.58369  0.52610  Biso   1.000  C
  C667     1.0000 0.48421  0.77948  0.64166  Biso   1.000  C
  C668     1.0000 0.88550  0.48725  0.32353  Biso   1.000  C
  C669     1.0000 0.19928  0.08697  0.02063  Biso   1.000  C
  C670     1.0000 0.02933  0.77388  0.94098  Biso   1.000  C
  C671     1.0000 0.37996  0.45556  0.22729  Biso   1.000  C
  C672     1.0000 0.69283  0.07296  0.51638  Biso   1.000  C
  C673     1.0000 0.17752  0.98048  0.81948  Biso   1.000  C
  C674     1.0000 0.79514  0.17844  0.02509  Biso   1.000  C
  C675     1.0000 0.98481  0.79652  0.22893  Biso   1.000  C
  C676     1.0000 0.67495  0.96978  0.72327  Biso   1.000  C
  C677     1.0000 0.29146  0.17914  0.51475  Biso   1.000  C
  C678     1.0000 0.47665  0.77692  0.34347  Biso   1.000  C
  C679     1.0000 0.29525  0.45195  0.82273  Biso   1.000  C
  C680     1.0000 0.68378  0.67551  0.03889  Biso   1.000  C
  C681     1.0000 0.51084  0.27460  0.20432  Biso   1.000  C
  C682     1.0000 0.79160  0.49899  0.72458  Biso   1.000  C
  C683     1.0000 0.18445  0.67433  0.52502  Biso   1.000  C
  C684     1.0000 0.97934  0.29627  0.31441  Biso   1.000  C
  C685     1.0000 0.79634  0.97112  0.22526  Biso   1.000  C
  C686     1.0000 0.18754  0.78793  0.02569  Biso   1.000  C
  C687     1.0000 0.00775  0.16043  0.81235  Biso   1.000  C
  C688     1.0000 0.29831  0.00281  0.31967  Biso   1.000  C
  C689     1.0000 0.67833  0.77742  0.51717  Biso   1.000  C
  C690     1.0000 0.47977  0.18755  0.69841  Biso   1.000  C
  C691     1.0000 0.67539  0.49197  0.23097  Biso   1.000  C
  C692     1.0000 0.29236  0.28632  0.02051  Biso   1.000  C
  C693     1.0000 0.49548  0.68238  0.84229  Biso   1.000  C
  C694     1.0000 0.18511  0.49701  0.32748  Biso   1.000  C
  C695     1.0000 0.78632  0.28674  0.51582  Biso   1.000  C
  C696     1.0000 0.00406  0.66065  0.73796  Biso   1.000  C
  C697     1.0000 0.68407  0.96022  0.33149  Biso   1.000  C
  C698     1.0000 0.29663  0.67978  0.01833  Biso   1.000  C
  C699     1.0000 0.00105  0.27285  0.70524  Biso   1.000  C
  C700     1.0000 0.19066  0.99978  0.21168  Biso   1.000  C
  C701     1.0000 0.79137  0.67791  0.52613  Biso   1.000  C
  C702     1.0000 0.49160  0.29415  0.81411  Biso   1.000  C
  C703     1.0000 0.78982  0.48961  0.33418  Biso   1.000  C
  C704     1.0000 0.18495  0.18008  0.01698  Biso   1.000  C
  C705     1.0000 0.48519  0.79508  0.73698  Biso   1.000  C
  C706     1.0000 0.28914  0.47674  0.21440  Biso   1.000  C
  C707     1.0000 0.68502  0.17095  0.51191  Biso   1.000  C
  C708     1.0000 0.02108  0.77466  0.84327  Biso   1.000  C
  C709     1.0000 0.28685  0.98622  0.71233  Biso   1.000  C
  C710     1.0000 0.68659  0.28870  0.02880  Biso   1.000  C
  C711     1.0000 0.98466  0.68761  0.34179  Biso   1.000  C
  C712     1.0000 0.78584  0.97641  0.83186  Biso   1.000  C
  C713     1.0000 0.17710  0.28348  0.50651  Biso   1.000  C
  C714     1.0000 0.48211  0.66516  0.23587  Biso   1.000  C
  C715     1.0000 0.18577  0.44488  0.71639  Biso   1.000  C
  C716     1.0000 0.79718  0.78468  0.02313  Biso   1.000  C
  C717     1.0000 0.51209  0.16287  0.31209  Biso   1.000  C
  C718     1.0000 0.68661  0.49458  0.83472  Biso   1.000  C
  C719     1.0000 0.29088  0.78581  0.53655  Biso   1.000  C
  C720     1.0000 0.98349  0.18614  0.20223  Biso   1.000  C
  C721     1.0000 0.49310  0.77974  0.31719  Biso   1.000  C
  C722     1.0000 0.29722  0.46439  0.79317  Biso   1.000  C
  C723     1.0000 0.75884  0.28586  0.53162  Biso   1.000  C
  C724     1.0000 0.96393  0.77399  0.22935  Biso   1.000  C
  C725     1.0000 0.76700  0.51937  0.72432  Biso   1.000  C
  C726     1.0000 0.26376  0.29138  0.00818  Biso   1.000  C
  C727     1.0000 0.95714  0.27458  0.31276  Biso   1.000  C
  C728     1.0000 0.20043  0.00065  0.82245  Biso   1.000  C
  C729     1.0000 0.70843  0.78305  0.52906  Biso   1.000  C
  C730     1.0000 0.49677  0.27661  0.23193  Biso   1.000  C
  C731     1.0000 0.69996  0.95098  0.72199  Biso   1.000  C
  C732     1.0000 0.20954  0.78584  0.00255  Biso   1.000  C
  C733     1.0000 0.46722  0.18333  0.72764  Biso   1.000  C
  C734     1.0000 0.67179  0.47425  0.25683  Biso   1.000  C
  C735     1.0000 0.18052  0.70184  0.50928  Biso   1.000  C
  C736     1.0000 0.99655  0.18978  0.81781  Biso   1.000  C
  C737     1.0000 0.20985  0.47856  0.33215  Biso   1.000  C
  C738     1.0000 0.71097  0.67409  0.05537  Biso   1.000  C
  C739     1.0000 0.02227  0.65378  0.76389  Biso   1.000  C
  C740     1.0000 0.79797  0.94788  0.24883  Biso   1.000  C
  C741     1.0000 0.26198  0.17193  0.50467  Biso   1.000  C
  C742     1.0000 0.47190  0.68418  0.82163  Biso   1.000  C
  C743     1.0000 0.29883  0.98139  0.29856  Biso   1.000  C
  C744     1.0000 0.80381  0.20739  0.03391  Biso   1.000  C
  C745     1.0000 0.00003  0.71499  0.34588  Biso   1.000  C
  C746     1.0000 0.26422  0.96396  0.71109  Biso   1.000  C
  C747     1.0000 0.71204  0.29027  0.04629  Biso   1.000  C
  C748     1.0000 0.49924  0.69131  0.23478  Biso   1.000  C
  C749     1.0000 0.78809  0.95554  0.80746  Biso   1.000  C
  C750     1.0000 0.20184  0.28737  0.52719  Biso   1.000  C
  C751     1.0000 0.53225  0.16376  0.28811  Biso   1.000  C
  C752     1.0000 0.21149  0.42739  0.70905  Biso   1.000  C
  C753     1.0000 0.77090  0.78490  0.00689  Biso   1.000  C
  C754     1.0000 0.00245  0.18573  0.22856  Biso   1.000  C
  C755     1.0000 0.67988  0.48959  0.80291  Biso   1.000  C
  C756     1.0000 0.26331  0.78797  0.55018  Biso   1.000  C
  C757     1.0000 0.99400  0.24225  0.69954  Biso   1.000  C
  C758     1.0000 0.67952  0.97491  0.30390  Biso   1.000  C
  C759     1.0000 0.27411  0.67760  0.04081  Biso   1.000  C
  C760     1.0000 0.50830  0.29689  0.78694  Biso   1.000  C
  C761     1.0000 0.21797  0.98570  0.20615  Biso   1.000  C
  C762     1.0000 0.79743  0.70305  0.50789  Biso   1.000  C
  C763     1.0000 0.50111  0.79906  0.76530  Biso   1.000  C
  C764     1.0000 0.76378  0.50560  0.34122  Biso   1.000  C
  C765     1.0000 0.20709  0.17881  0.03959  Biso   1.000  C
  C766     1.0000 0.03318  0.77768  0.81351  Biso   1.000  C
  C767     1.0000 0.29587  0.48773  0.24350  Biso   1.000  C
  C768     1.0000 0.68097  0.19814  0.49705  Biso   1.000  C
  C769     1.0000 0.51861  0.70505  0.84124  Biso   1.000  C
  C770     1.0000 0.79146  0.47815  0.74860  Biso   1.000  C
  C771     1.0000 0.67349  0.75074  0.50110  Biso   1.000  C
  C772     1.0000 0.99298  0.69133  0.73660  Biso   1.000  C
  C773     1.0000 0.26852  0.43483  0.82861  Biso   1.000  C
  C774     1.0000 0.19008  0.76563  0.04848  Biso   1.000  C
  C775     1.0000 0.02361  0.15607  0.78532  Biso   1.000  C
  C776     1.0000 0.67466  0.99244  0.74636  Biso   1.000  C
  C777     1.0000 0.79372  0.26190  0.49717  Biso   1.000  C
  C778     1.0000 0.49108  0.21701  0.69408  Biso   1.000  C
  C779     1.0000 0.17643  0.96065  0.79448  Biso   1.000  C
  C780     1.0000 0.29959  0.25580  0.03160  Biso   1.000  C
  C781     1.0000 0.52657  0.24716  0.19877  Biso   1.000  C
  C782     1.0000 0.18258  0.51308  0.30070  Biso   1.000  C
  C783     1.0000 0.29704  0.20979  0.51912  Biso   1.000  C
  C784     1.0000 0.00074  0.29560  0.29151  Biso   1.000  C
  C785     1.0000 0.70239  0.50755  0.22975  Biso   1.000  C
  C786     1.0000 0.76565  0.17339  0.01396  Biso   1.000  C
  C787     1.0000 0.00702  0.79805  0.25140  Biso   1.000  C
  C788     1.0000 0.27967  0.02705  0.31659  Biso   1.000  C
  C789     1.0000 0.21044  0.66960  0.54347  Biso   1.000  C
  C790     1.0000 0.46000  0.75037  0.34708  Biso   1.000  C
  C791     1.0000 0.77237  0.99009  0.22597  Biso   1.000  C
  C792     1.0000 0.68203  0.70070  0.01911  Biso   1.000  C
  C793     1.0000 0.49092  0.18557  0.31459  Biso   1.000  C
  C794     1.0000 0.25777  0.47008  0.20893  Biso   1.000  C
  C795     1.0000 0.17810  0.25837  0.48738  Biso   1.000  C
  C796     1.0000 0.96376  0.21150  0.20003  Biso   1.000  C
  C797     1.0000 0.79046  0.47299  0.30574  Biso   1.000  C
  C798     1.0000 0.68332  0.26408  0.00848  Biso   1.000  C
  C799     1.0000 0.96892  0.68523  0.31326  Biso   1.000  C
  C800     1.0000 0.19004  0.01931  0.23707  Biso   1.000  C
  C801     1.0000 0.29525  0.75710  0.52207  Biso   1.000  C
  C802     1.0000 0.46443  0.66194  0.26210  Biso   1.000  C
  C803     1.0000 0.71170  0.94644  0.33506  Biso   1.000  C
  C804     1.0000 0.80094  0.76073  0.04350  Biso   1.000  C
  C805     1.0000 0.47058  0.76715  0.73395  Biso   1.000  C
  C806     1.0000 0.71617  0.50379  0.84210  Biso   1.000  C
  C807     1.0000 0.76217  0.67295  0.53747  Biso   1.000  C
  C808     1.0000 0.01361  0.74456  0.85051  Biso   1.000  C
  C809     1.0000 0.18295  0.45850  0.74700  Biso   1.000  C
  C810     1.0000 0.30068  0.70635  0.00167  Biso   1.000  C
  C811     1.0000 0.01460  0.27844  0.73433  Biso   1.000  C
  C812     1.0000 0.76141  0.99455  0.83347  Biso   1.000  C
  C813     1.0000 0.71533  0.16670  0.52608  Biso   1.000  C
  C814     1.0000 0.47165  0.26948  0.81777  Biso   1.000  C
  C815     1.0000 0.28614  0.00622  0.73579  Biso   1.000  C
  C816     1.0000 0.18474  0.20361  0.99599  Biso   1.000  C
  C817     1.0000 0.99727  0.21119  0.79738  Biso   1.000  C
  C818     1.0000 0.77465  0.94668  0.26872  Biso   1.000  C
  C819     1.0000 0.22851  0.76349  0.00151  Biso   1.000  C
  C820     1.0000 0.46871  0.20570  0.74891  Biso   1.000  C
  C821     1.0000 0.27994  0.98351  0.27514  Biso   1.000  C
  C822     1.0000 0.73026  0.76167  0.52542  Biso   1.000  C
  C823     1.0000 0.47177  0.70581  0.80027  Biso   1.000  C
  C824     1.0000 0.69348  0.47338  0.27710  Biso   1.000  C
  C825     1.0000 0.24351  0.27045  0.00819  Biso   1.000  C
  C826     1.0000 0.02781  0.67643  0.78304  Biso   1.000  C
  C827     1.0000 0.22920  0.47621  0.30907  Biso   1.000  C
  C828     1.0000 0.73996  0.26249  0.52763  Biso   1.000  C
  C829     1.0000 0.96495  0.75453  0.25246  Biso   1.000  C
  C830     1.0000 0.22287  0.99901  0.80315  Biso   1.000  C
  C831     1.0000 0.78198  0.22855  0.03455  Biso   1.000  C
  C832     1.0000 0.49355  0.75638  0.29767  Biso   1.000  C
  C833     1.0000 0.71950  0.95092  0.74548  Biso   1.000  C
  C834     1.0000 0.24135  0.19342  0.50343  Biso   1.000  C
  C835     1.0000 0.49734  0.25499  0.25217  Biso   1.000  C
  C836     1.0000 0.27682  0.45737  0.77170  Biso   1.000  C
  C837     1.0000 0.73204  0.69549  0.05124  Biso   1.000  C
  C838     1.0000 0.95816  0.25589  0.28958  Biso   1.000  C
  C839     1.0000 0.74800  0.52009  0.74705  Biso   1.000  C
  C840     1.0000 0.20390  0.72267  0.51183  Biso   1.000  C
  C841     1.0000 0.19910  0.96012  0.77457  Biso   1.000  C
  C842     1.0000 0.74583  0.19624  0.01413  Biso   1.000  C
  C843     1.0000 0.00630  0.77763  0.27484  Biso   1.000  C
  C844     1.0000 0.69615  0.99256  0.76694  Biso   1.000  C
  C845     1.0000 0.27598  0.23127  0.51610  Biso   1.000  C
  C846     1.0000 0.46035  0.72777  0.32744  Biso   1.000  C
  C847     1.0000 0.24831  0.42907  0.80655  Biso   1.000  C
  C848     1.0000 0.70429  0.72189  0.01828  Biso   1.000  C
  C849     1.0000 0.52496  0.22532  0.22091  Biso   1.000  C
  C850     1.0000 0.77264  0.47967  0.77032  Biso   1.000  C
  C851     1.0000 0.23021  0.69122  0.54524  Biso   1.000  C
  C852     1.0000 0.00149  0.27483  0.26937  Biso   1.000  C
  C853     1.0000 0.75127  0.98739  0.24645  Biso   1.000  C
  C854     1.0000 0.21178  0.74675  0.04915  Biso   1.000  C
  C855     1.0000 0.02438  0.17768  0.76365  Biso   1.000  C
  C856     1.0000 0.26065  0.02819  0.29328  Biso   1.000  C
  C857     1.0000 0.69628  0.72901  0.49907  Biso   1.000  C
  C858     1.0000 0.49275  0.23825  0.71669  Biso   1.000  C
  C859     1.0000 0.72357  0.50739  0.25242  Biso   1.000  C
  C860     1.0000 0.27674  0.23551  0.03172  Biso   1.000  C
  C861     1.0000 0.51729  0.72500  0.81906  Biso   1.000  C
  C862     1.0000 0.20259  0.50798  0.27882  Biso   1.000  C
  C863     1.0000 0.77560  0.23816  0.49516  Biso   1.000  C
  C864     1.0000 0.99938  0.71273  0.75600  Biso   1.000  C
  C865     1.0000 0.70106  0.49226  0.78232  Biso   1.000  C
  C866     1.0000 0.77313  0.71999  0.50000  Biso   1.000  C
  C867     1.0000 0.50450  0.77666  0.78452  Biso   1.000  C
  C868     1.0000 0.23365  0.42579  0.72858  Biso   1.000  C
  C869     1.0000 0.25383  0.69987  0.04148  Biso   1.000  C
  C870     1.0000 0.03258  0.75507  0.79405  Biso   1.000  C
  C871     1.0000 0.76715  0.95440  0.78746  Biso   1.000  C
  C872     1.0000 0.70298  0.21865  0.49487  Biso   1.000  C
  C873     1.0000 0.99890  0.21987  0.71916  Biso   1.000  C
  C874     1.0000 0.24526  0.96014  0.73456  Biso   1.000  C
  C875     1.0000 0.22697  0.20046  0.04231  Biso   1.000  C
  C876     1.0000 0.50477  0.27652  0.76448  Biso   1.000  C
  C877     1.0000 0.27514  0.49073  0.26411  Biso   1.000  C
  C878     1.0000 0.22444  0.26852  0.52727  Biso   1.000  C
  C879     1.0000 0.53271  0.18546  0.26773  Biso   1.000  C
  C880     1.0000 0.73964  0.50134  0.32242  Biso   1.000  C
  C881     1.0000 0.73373  0.26925  0.04572  Biso   1.000  C
  C882     1.0000 0.99973  0.20824  0.24940  Biso   1.000  C
  C883     1.0000 0.23917  0.98783  0.22675  Biso   1.000  C
  C884     1.0000 0.24453  0.76483  0.55138  Biso   1.000  C
  C885     1.0000 0.00016  0.73637  0.32384  Biso   1.000  C
  C886     1.0000 0.70143  0.97771  0.28407  Biso   1.000  C
  C887     1.0000 0.74918  0.76240  0.01036  Biso   1.000  C
  C888     1.0000 0.49738  0.71275  0.25631  Biso   1.000  C
  C889     1.0000 0.73295  0.94749  0.31388  Biso   1.000  C
  C890     1.0000 0.27957  0.72791  0.00414  Biso   1.000  C
  C891     1.0000 0.01704  0.25671  0.75427  Biso   1.000  C
  C892     1.0000 0.21309  0.02132  0.25651  Biso   1.000  C
  C893     1.0000 0.73937  0.69032  0.52820  Biso   1.000  C
  C894     1.0000 0.47100  0.24897  0.79530  Biso   1.000  C
  C895     1.0000 0.76616  0.47271  0.28721  Biso   1.000  C
  C896     1.0000 0.20676  0.22501  0.00016  Biso   1.000  C
  C897     1.0000 0.47445  0.74598  0.75443  Biso   1.000  C
  C898     1.0000 0.23794  0.47641  0.22967  Biso   1.000  C
  C899     1.0000 0.73483  0.18878  0.52514  Biso   1.000  C
  C900     1.0000 0.01445  0.72235  0.83037  Biso   1.000  C
  C901     1.0000 0.26330  0.00415  0.75577  Biso   1.000  C
  C902     1.0000 0.70567  0.24380  0.00707  Biso   1.000  C
  C903     1.0000 0.97071  0.70467  0.29163  Biso   1.000  C
  C904     1.0000 0.73921  0.99237  0.81295  Biso   1.000  C
  C905     1.0000 0.20084  0.23792  0.48995  Biso   1.000  C
  C906     1.0000 0.46299  0.68392  0.28307  Biso   1.000  C
  C907     1.0000 0.20625  0.45418  0.76472  Biso   1.000  C
  C908     1.0000 0.78093  0.73793  0.04382  Biso   1.000  C
  C909     1.0000 0.49128  0.20832  0.29416  Biso   1.000  C
  C910     1.0000 0.73743  0.50702  0.82018  Biso   1.000  C
  C911     1.0000 0.27559  0.73445  0.52192  Biso   1.000  C
  C912     1.0000 0.96250  0.23295  0.22292  Biso   1.000  C
  C913     1.0000 0.75173  0.50103  0.77033  Biso   1.000  C
  C914     1.0000 0.72430  0.73717  0.50755  Biso   1.000  C
  C915     1.0000 0.49401  0.72533  0.79909  Biso   1.000  C
  C916     1.0000 0.25351  0.43934  0.77867  Biso   1.000  C
  C917     1.0000 0.23083  0.74497  0.02501  Biso   1.000  C
  C918     1.0000 0.01526  0.70459  0.77946  Biso   1.000  C
  C919     1.0000 0.71834  0.97173  0.76755  Biso   1.000  C
  C920     1.0000 0.74931  0.23800  0.51055  Biso   1.000  C
  C921     1.0000 0.01105  0.20457  0.77019  Biso   1.000  C
  C922     1.0000 0.22264  0.98018  0.77956  Biso   1.000  C
  C923     1.0000 0.24977  0.24468  0.02178  Biso   1.000  C
  C924     1.0000 0.48256  0.23208  0.74488  Biso   1.000  C
  C925     1.0000 0.22577  0.48952  0.28179  Biso   1.000  C
  C926     1.0000 0.24795  0.22250  0.50980  Biso   1.000  C
  C927     1.0000 0.51084  0.22983  0.24774  Biso   1.000  C
  C928     1.0000 0.72035  0.48753  0.27463  Biso   1.000  C
  C929     1.0000 0.75379  0.22311  0.02543  Biso   1.000  C
  C930     1.0000 0.98044  0.25405  0.26937  Biso   1.000  C
  C931     1.0000 0.25987  0.00566  0.27290  Biso   1.000  C
  C932     1.0000 0.22617  0.71748  0.53198  Biso   1.000  C
  C933     1.0000 0.98394  0.75649  0.27566  Biso   1.000  C
  C934     1.0000 0.75212  0.96660  0.26789  Biso   1.000  C
  C935     1.0000 0.72761  0.72105  0.03564  Biso   1.000  C
  C936     1.0000 0.47751  0.73077  0.30291  Biso   1.000  C
  C937     1.0000 0.72879  0.24645  0.02645  Biso   1.000  C
  C938     1.0000 0.98571  0.73202  0.29821  Biso   1.000  C
  C939     1.0000 0.24354  0.98071  0.75614  Biso   1.000  C
  C940     1.0000 0.22451  0.24369  0.50795  Biso   1.000  C
  C941     1.0000 0.47905  0.70952  0.28034  Biso   1.000  C
  C942     1.0000 0.74384  0.97420  0.78834  Biso   1.000  C
  C943     1.0000 0.75362  0.73882  0.02873  Biso   1.000  C
  C944     1.0000 0.51143  0.20803  0.27099  Biso   1.000  C
  C945     1.0000 0.23023  0.43709  0.75711  Biso   1.000  C
  C946     1.0000 0.25010  0.73921  0.53638  Biso   1.000  C
  C947     1.0000 0.98001  0.23127  0.24636  Biso   1.000  C
  C948     1.0000 0.72851  0.50116  0.79164  Biso   1.000  C
  C949     1.0000 0.25734  0.72438  0.02429  Biso   1.000  C
  C950     1.0000 0.01051  0.22672  0.74683  Biso   1.000  C
  C951     1.0000 0.72895  0.96412  0.28925  Biso   1.000  C
  C952     1.0000 0.74551  0.71352  0.50971  Biso   1.000  C
  C953     1.0000 0.48578  0.25285  0.76994  Biso   1.000  C
  C954     1.0000 0.23652  0.00464  0.25175  Biso   1.000  C
  C955     1.0000 0.22539  0.22317  0.02386  Biso   1.000  C
  C956     1.0000 0.49183  0.75034  0.77884  Biso   1.000  C
  C957     1.0000 0.74146  0.48554  0.29698  Biso   1.000  C
  C958     1.0000 0.72891  0.21337  0.50918  Biso   1.000  C
  C959     1.0000 0.02092  0.72764  0.80212  Biso   1.000  C
  C960     1.0000 0.24589  0.48606  0.25760  Biso   1.000  C
  Cu1      1.0000 0.98694  0.46955  0.67983  Biso   1.000  Cu
  Cu2      1.0000 0.63378  0.97510  0.52559  Biso   1.000  Cu
  Cu3      1.0000 0.48950  0.63738  0.03852  Biso   1.000  Cu
  Cu4      1.0000 0.49070  0.48538  0.87248  Biso   1.000  Cu
  Cu5      1.0000 0.14512  0.98539  0.01709  Biso   1.000  Cu
  Cu6      1.0000 0.99004  0.63553  0.53467  Biso   1.000  Cu
  Cu7      1.0000 0.48363  0.98584  0.67595  Biso   1.000  Cu
  Cu8      1.0000 0.83297  0.48161  0.52823  Biso   1.000  Cu
  Cu9      1.0000 0.98981  0.13431  0.00779  Biso   1.000  Cu
  Cu10     1.0000 0.98267  0.97014  0.86591  Biso   1.000  Cu
  Cu11     1.0000 0.33627  0.48228  0.01534  Biso   1.000  Cu
  Cu12     1.0000 0.48846  0.13045  0.50578  Biso   1.000  Cu
  Cu13     1.0000 0.99008  0.48825  0.37162  Biso   1.000  Cu
  Cu14     1.0000 0.33203  0.98251  0.51780  Biso   1.000  Cu
  Cu15     1.0000 0.48672  0.32790  0.01227  Biso   1.000  Cu
  Cu16     1.0000 0.48394  0.47276  0.18230  Biso   1.000  Cu
  Cu17     1.0000 0.83037  0.98028  0.02775  Biso   1.000  Cu
  Cu18     1.0000 0.98258  0.32605  0.51551  Biso   1.000  Cu
  Cu19     1.0000 0.48799  0.97423  0.36797  Biso   1.000  Cu
  Cu20     1.0000 0.13959  0.47861  0.52154  Biso   1.000  Cu
  Cu21     1.0000 0.99183  0.82965  0.03396  Biso   1.000  Cu
  Cu22     1.0000 0.99152  0.98711  0.17317  Biso   1.000  Cu
  Cu23     1.0000 0.64082  0.48208  0.03124  Biso   1.000  Cu
  Cu24     1.0000 0.48763  0.82577  0.53857  Biso   1.000  Cu
  Cu25     1.0000 0.20076  0.98346  0.01671  Biso   1.000  Cu
  Cu26     1.0000 0.98826  0.18778  0.00245  Biso   1.000  Cu
  Cu27     1.0000 0.99325  0.99124  0.22772  Biso   1.000  Cu
  Cu28     1.0000 0.68787  0.97493  0.52972  Biso   1.000  Cu
  Cu29     1.0000 0.48704  0.18410  0.50636  Biso   1.000  Cu
  Cu30     1.0000 0.48805  0.96844  0.31411  Biso   1.000  Cu
  Cu31     1.0000 0.28199  0.48350  0.01720  Biso   1.000  Cu
  Cu32     1.0000 0.48932  0.69090  0.04028  Biso   1.000  Cu
  Cu33     1.0000 0.48083  0.46899  0.23483  Biso   1.000  Cu
  Cu34     1.0000 0.77953  0.48328  0.52793  Biso   1.000  Cu
  Cu35     1.0000 0.98965  0.69012  0.54024  Biso   1.000  Cu
  Cu36     1.0000 0.98551  0.49173  0.31792  Biso   1.000  Cu
  Cu37     1.0000 0.77769  0.98363  0.02973  Biso   1.000  Cu
  Cu38     1.0000 0.99082  0.77411  0.03388  Biso   1.000  Cu
  Cu39     1.0000 0.97935  0.96618  0.81363  Biso   1.000  Cu
  Cu40     1.0000 0.27862  0.98128  0.51838  Biso   1.000  Cu
  Cu41     1.0000 0.48306  0.77276  0.53954  Biso   1.000  Cu
  Cu42     1.0000 0.48126  0.99648  0.73018  Biso   1.000  Cu
  Cu43     1.0000 0.69410  0.48329  0.03441  Biso   1.000  Cu
  Cu44     1.0000 0.49055  0.27514  0.00738  Biso   1.000  Cu
  Cu45     1.0000 0.49063  0.49116  0.81910  Biso   1.000  Cu
  Cu46     1.0000 0.19228  0.47623  0.52165  Biso   1.000  Cu
  Cu47     1.0000 0.98275  0.27140  0.51043  Biso   1.000  Cu
  Cu48     1.0000 0.98714  0.46417  0.73240  Biso   1.000  Cu
  H1       1.0000 0.22487  0.76670  0.56596  Biso   1.000  H
  H2       1.0000 0.51670  0.28085  0.74486  Biso   1.000  H
  H3       1.0000 0.71916  0.51055  0.32901  Biso   1.000  H
  H4       1.0000 0.73063  0.76343  0.99509  Biso   1.000  H
  H5       1.0000 0.99656  0.19756  0.71359  Biso   1.000  H
  H6       1.0000 0.28133  0.49662  0.28558  Biso   1.000  H
  H7       1.0000 0.24204  0.27209  0.54294  Biso   1.000  H
  H8       1.0000 0.04395  0.75626  0.77403  Biso   1.000  H
  H9       1.0000 0.69866  0.99178  0.26501  Biso   1.000  H
  H10      1.0000 0.75139  0.26683  0.06208  Biso   1.000  H
  H11      1.0000 0.51510  0.78184  0.80500  Biso   1.000  H
  H12      1.0000 0.26013  0.97623  0.22448  Biso   1.000  H
  H13      1.0000 0.70018  0.23792  0.48085  Biso   1.000  H
  H14      1.0000 0.51142  0.73269  0.25246  Biso   1.000  H
  H15      1.0000 0.25372  0.41454  0.72122  Biso   1.000  H
  H16      1.0000 0.24011  0.20017  0.06315  Biso   1.000  H
  H17      1.0000 0.01515  0.75436  0.32982  Biso   1.000  H
  H18      1.0000 0.69864  0.48755  0.75926  Biso   1.000  H
  H19      1.0000 0.77689  0.73937  0.48668  Biso   1.000  H
  H20      1.0000 0.01323  0.20744  0.26780  Biso   1.000  H
  H21      1.0000 0.23104  0.94045  0.73296  Biso   1.000  H
  H22      1.0000 0.23464  0.70021  0.05469  Biso   1.000  H
  H23      1.0000 0.54967  0.18508  0.25221  Biso   1.000  H
  H24      1.0000 0.76801  0.93629  0.77121  Biso   1.000  H
  H25      1.0000 0.24200  0.01153  0.80979  Biso   1.000  H
  H26      1.0000 0.78715  0.25003  0.04169  Biso   1.000  H
  H27      1.0000 0.94883  0.73738  0.25352  Biso   1.000  H
  H28      1.0000 0.73653  0.93532  0.74432  Biso   1.000  H
  H29      1.0000 0.21870  0.18717  0.49712  Biso   1.000  H
  H30      1.0000 0.50682  0.75853  0.27939  Biso   1.000  H
  H31      1.0000 0.27789  0.46716  0.75047  Biso   1.000  H
  H32      1.0000 0.75081  0.69490  0.06537  Biso   1.000  H
  H33      1.0000 0.48841  0.26064  0.27319  Biso   1.000  H
  H34      1.0000 0.73327  0.53820  0.74842  Biso   1.000  H
  H35      1.0000 0.20549  0.74266  0.50004  Biso   1.000  H
  H36      1.0000 0.93950  0.24100  0.28797  Biso   1.000  H
  H37      1.0000 0.77592  0.93078  0.28507  Biso   1.000  H
  H38      1.0000 0.24267  0.76421  0.98268  Biso   1.000  H
  H39      1.0000 0.98748  0.23248  0.80026  Biso   1.000  H
  H40      1.0000 0.27968  0.96556  0.25948  Biso   1.000  H
  H41      1.0000 0.74964  0.76594  0.53730  Biso   1.000  H
  H42      1.0000 0.46008  0.20146  0.76896  Biso   1.000  H
  H43      1.0000 0.68981  0.46142  0.29727  Biso   1.000  H
  H44      1.0000 0.22212  0.27517  0.00063  Biso   1.000  H
  H45      1.0000 0.45407  0.70628  0.78462  Biso   1.000  H
  H46      1.0000 0.24871  0.46360  0.31270  Biso   1.000  H
  H47      1.0000 0.71708  0.26201  0.53621  Biso   1.000  H
  H48      1.0000 0.04045  0.67162  0.80217  Biso   1.000  H
  H49      1.0000 0.19959  0.51929  0.25817  Biso   1.000  H
  H50      1.0000 0.28271  0.25381  0.51774  Biso   1.000  H
  H51      1.0000 0.53437  0.20614  0.21641  Biso   1.000  H
  H52      1.0000 0.74354  0.51904  0.25033  Biso   1.000  H
  H53      1.0000 0.72375  0.19370  0.00871  Biso   1.000  H
  H54      1.0000 0.01935  0.27564  0.25583  Biso   1.000  H
  H55      1.0000 0.24852  0.04815  0.28728  Biso   1.000  H
  H56      1.0000 0.24890  0.68722  0.55944  Biso   1.000  H
  H57      1.0000 0.02391  0.77853  0.28972  Biso   1.000  H
  H58      1.0000 0.73401  0.00081  0.24377  Biso   1.000  H
  H59      1.0000 0.69856  0.74021  0.00413  Biso   1.000  H
  H60      1.0000 0.45183  0.70793  0.33484  Biso   1.000  H
  H61      1.0000 0.77293  0.46598  0.78963  Biso   1.000  H
  H62      1.0000 0.69468  0.70777  0.48802  Biso   1.000  H
  H63      1.0000 0.53182  0.74499  0.82096  Biso   1.000  H
  H64      1.0000 0.23013  0.41675  0.81118  Biso   1.000  H
  H65      1.0000 0.21566  0.73201  0.06829  Biso   1.000  H
  H66      1.0000 0.98996  0.73459  0.75487  Biso   1.000  H
  H67      1.0000 0.69445  0.01199  0.78097  Biso   1.000  H
  H68      1.0000 0.78028  0.22161  0.47814  Biso   1.000  H
  H69      1.0000 0.03473  0.17317  0.74373  Biso   1.000  H
  H70      1.0000 0.19754  0.94506  0.75566  Biso   1.000  H
  H71      1.0000 0.27944  0.21457  0.04064  Biso   1.000  H
  H72      1.0000 0.50019  0.25862  0.71022  Biso   1.000  H
  H73      1.0000 0.75999  0.51250  0.82596  Biso   1.000  H
  H74      1.0000 0.71684  0.68602  0.53247  Biso   1.000  H
  H75      1.0000 0.46259  0.72582  0.74847  Biso   1.000  H
  H76      1.0000 0.20531  0.46328  0.78778  Biso   1.000  H
  H77      1.0000 0.28283  0.74659  0.99140  Biso   1.000  H
  H78      1.0000 0.01015  0.69949  0.83380  Biso   1.000  H
  H79      1.0000 0.71984  0.00462  0.81510  Biso   1.000  H
  H80      1.0000 0.75531  0.18721  0.53724  Biso   1.000  H
  H81      1.0000 0.02845  0.26343  0.77468  Biso   1.000  H
  H82      1.0000 0.26738  0.01964  0.77177  Biso   1.000  H
  H83      1.0000 0.20923  0.24135  0.98470  Biso   1.000  H
  H84      1.0000 0.45458  0.23173  0.79618  Biso   1.000  H
  H85      1.0000 0.21391  0.47549  0.22578  Biso   1.000  H
  H86      1.0000 0.19991  0.22054  0.47278  Biso   1.000  H
  H87      1.0000 0.47252  0.22226  0.29442  Biso   1.000  H
  H88      1.0000 0.76612  0.46247  0.26548  Biso   1.000  H
  H89      1.0000 0.70485  0.22719  0.98984  Biso   1.000  H
  H90      1.0000 0.94666  0.25108  0.22210  Biso   1.000  H
  H91      1.0000 0.21131  0.03450  0.27675  Biso   1.000  H
  H92      1.0000 0.28044  0.71483  0.50931  Biso   1.000  H
  H93      1.0000 0.96179  0.69812  0.27112  Biso   1.000  H
  H94      1.0000 0.75346  0.93547  0.31741  Biso   1.000  H
  H95      1.0000 0.78661  0.71816  0.05630  Biso   1.000  H
  H96      1.0000 0.44546  0.67972  0.29843  Biso   1.000  H
  H97      1.0000 0.85257  0.97211  0.93634  Biso   1.000  H
  H98      1.0000 0.89980  0.85099  0.02227  Biso   1.000  H
  H99      1.0000 0.00800  0.88613  0.89452  Biso   1.000  H
  H100     1.0000 0.35114  0.99122  0.60680  Biso   1.000  H
  H101     1.0000 0.39486  0.84703  0.51935  Biso   1.000  H
  H102     1.0000 0.47571  0.89414  0.67033  Biso   1.000  H
  H103     1.0000 0.62369  0.48058  0.94214  Biso   1.000  H
  H104     1.0000 0.57923  0.34621  0.04150  Biso   1.000  H
  H105     1.0000 0.50490  0.39504  0.88164  Biso   1.000  H
  H106     1.0000 0.12107  0.46484  0.61276  Biso   1.000  H
  H107     1.0000 0.07443  0.34536  0.50240  Biso   1.000  H
  H108     1.0000 0.98484  0.38092  0.64865  Biso   1.000  H
  H109     1.0000 0.12379  0.97498  0.11136  Biso   1.000  H
  H110     1.0000 0.08149  0.11694  0.00941  Biso   1.000  H
  H111     1.0000 0.99262  0.07603  0.14583  Biso   1.000  H
  H112     1.0000 0.62135  0.96136  0.43737  Biso   1.000  H
  H113     1.0000 0.57646  0.11225  0.50866  Biso   1.000  H
  H114     1.0000 0.50654  0.05961  0.37986  Biso   1.000  H
  H115     1.0000 0.35368  0.47501  0.10811  Biso   1.000  H
  H116     1.0000 0.39937  0.61640  0.02392  Biso   1.000  H
  H117     1.0000 0.47621  0.56377  0.16473  Biso   1.000  H
  H118     1.0000 0.85362  0.48252  0.44136  Biso   1.000  H
  H119     1.0000 0.89360  0.61574  0.54669  Biso   1.000  H
  H120     1.0000 0.98527  0.58048  0.40256  Biso   1.000  H
  H121     1.0000 0.07110  0.98135  0.88251  Biso   1.000  H
  H122     1.0000 0.85743  0.07465  0.02379  Biso   1.000  H
  H123     1.0000 0.96945  0.85310  0.11879  Biso   1.000  H
  H124     1.0000 0.57186  0.97454  0.65816  Biso   1.000  H
  H125     1.0000 0.35341  0.07470  0.52915  Biso   1.000  H
  H126     1.0000 0.48229  0.84718  0.44428  Biso   1.000  H
  H127     1.0000 0.40076  0.47571  0.88504  Biso   1.000  H
  H128     1.0000 0.61841  0.56977  0.03860  Biso   1.000  H
  H129     1.0000 0.49666  0.34468  0.10626  Biso   1.000  H
  H130     1.0000 0.89188  0.47374  0.65947  Biso   1.000  H
  H131     1.0000 0.11816  0.57105  0.53751  Biso   1.000  H
  H132     1.0000 0.98064  0.35144  0.42533  Biso   1.000  H
  H133     1.0000 0.89428  0.99040  0.15640  Biso   1.000  H
  H134     1.0000 0.12253  0.88902  0.02062  Biso   1.000  H
  H135     1.0000 0.99607  0.10434  0.91659  Biso   1.000  H
  H136     1.0000 0.40182  0.99392  0.38471  Biso   1.000  H
  H137     1.0000 0.61379  0.87869  0.53775  Biso   1.000  H
  H138     1.0000 0.48488  0.11353  0.60121  Biso   1.000  H
  H139     1.0000 0.57443  0.49958  0.16290  Biso   1.000  H
  H140     1.0000 0.35484  0.39180  0.01578  Biso   1.000  H
  H141     1.0000 0.50221  0.61612  0.94558  Biso   1.000  H
  H142     1.0000 0.07928  0.49821  0.39062  Biso   1.000  H
  H143     1.0000 0.85066  0.38796  0.53248  Biso   1.000  H
  H144     1.0000 0.98794  0.60845  0.62576  Biso   1.000  H
  H145     1.0000 0.58335  0.48692  0.89943  Biso   1.000  H
  H146     1.0000 0.85550  0.57520  0.53872  Biso   1.000  H
  H147     1.0000 0.47301  0.85293  0.62841  Biso   1.000  H
  H148     1.0000 0.07767  0.45988  0.65712  Biso   1.000  H
  H149     1.0000 0.35626  0.57208  0.01170  Biso   1.000  H
  H150     1.0000 0.01465  0.84784  0.94568  Biso   1.000  H
  H151     1.0000 0.89324  0.96348  0.89056  Biso   1.000  H
  H152     1.0000 0.61609  0.07178  0.52546  Biso   1.000  H
  H153     1.0000 0.98341  0.33925  0.60269  Biso   1.000  H
  H154     1.0000 0.39224  0.99464  0.65028  Biso   1.000  H
  H155     1.0000 0.12344  0.07564  0.01357  Biso   1.000  H
  H156     1.0000 0.50596  0.35609  0.91982  Biso   1.000  H
  H157     1.0000 0.39278  0.46345  0.15137  Biso   1.000  H
  H158     1.0000 0.11759  0.39078  0.50270  Biso   1.000  H
  H159     1.0000 0.50093  0.10699  0.41895  Biso   1.000  H
  H160     1.0000 0.89276  0.48362  0.40169  Biso   1.000  H
  H161     1.0000 0.61948  0.39134  0.04109  Biso   1.000  H
  H162     1.0000 0.98604  0.11682  0.09968  Biso   1.000  H
  H163     1.0000 0.08523  0.98511  0.14976  Biso   1.000  H
  H164     1.0000 0.35489  0.89256  0.52974  Biso   1.000  H
  H165     1.0000 0.98826  0.62068  0.44336  Biso   1.000  H
  H166     1.0000 0.57930  0.95957  0.39412  Biso   1.000  H
  H167     1.0000 0.85413  0.89097  0.02834  Biso   1.000  H
  H168     1.0000 0.47708  0.61249  0.12464  Biso   1.000  H
  H169     1.0000 0.98549  0.06019  0.87863  Biso   1.000  H
  H170     1.0000 0.85306  0.98409  0.11728  Biso   1.000  H
  H171     1.0000 0.07880  0.84639  0.03517  Biso   1.000  H
  H172     1.0000 0.48851  0.07459  0.64650  Biso   1.000  H
  H173     1.0000 0.35644  0.99426  0.42797  Biso   1.000  H
  H174     1.0000 0.57239  0.84000  0.53493  Biso   1.000  H
  H175     1.0000 0.49040  0.57621  0.90188  Biso   1.000  H
  H176     1.0000 0.61895  0.49948  0.12352  Biso   1.000  H
  H177     1.0000 0.39953  0.34958  0.01432  Biso   1.000  H
  H178     1.0000 0.99343  0.56178  0.66468  Biso   1.000  H
  H179     1.0000 0.12057  0.49224  0.43055  Biso   1.000  H
  H180     1.0000 0.89380  0.34806  0.53262  Biso   1.000  H
  H181     1.0000 0.97429  0.89606  0.16234  Biso   1.000  H
  H182     1.0000 0.11865  0.98501  0.92923  Biso   1.000  H
  H183     1.0000 0.89513  0.10946  0.01206  Biso   1.000  H
  H184     1.0000 0.46966  0.88290  0.40003  Biso   1.000  H
  H185     1.0000 0.61298  0.97153  0.61785  Biso   1.000  H
  H186     1.0000 0.39385  0.11233  0.52482  Biso   1.000  H
  H187     1.0000 0.49581  0.38176  0.15033  Biso   1.000  H
  H188     1.0000 0.35931  0.47623  0.92512  Biso   1.000  H
  H189     1.0000 0.57893  0.61492  0.05054  Biso   1.000  H
  H190     1.0000 0.98189  0.39668  0.38458  Biso   1.000  H
  H191     1.0000 0.85180  0.48146  0.62144  Biso   1.000  H
  H192     1.0000 0.07621  0.61771  0.53953  Biso   1.000  H
  H193     1.0000 0.25703  0.83858  0.52771  Biso   1.000  H
  H194     1.0000 0.49212  0.25790  0.86604  Biso   1.000  H
  H195     1.0000 0.84379  0.48631  0.29984  Biso   1.000  H
  H196     1.0000 0.75989  0.83489  0.02058  Biso   1.000  H
  H197     1.0000 0.01296  0.24506  0.65041  Biso   1.000  H
  H198     1.0000 0.33614  0.45901  0.24720  Biso   1.000  H
  H199     1.0000 0.21430  0.33657  0.51444  Biso   1.000  H
  H200     1.0000 0.04031  0.74811  0.90399  Biso   1.000  H
  H201     1.0000 0.63062  0.95880  0.29564  Biso   1.000  H
  H202     1.0000 0.71801  0.33922  0.03777  Biso   1.000  H
  H203     1.0000 0.48785  0.75925  0.68360  Biso   1.000  H
  H204     1.0000 0.13943  0.99455  0.24872  Biso   1.000  H
  H205     1.0000 0.71932  0.11254  0.51197  Biso   1.000  H
  H206     1.0000 0.48801  0.70414  0.18892  Biso   1.000  H
  H207     1.0000 0.13112  0.44313  0.75059  Biso   1.000  H
  H208     1.0000 0.22222  0.12780  0.01624  Biso   1.000  H
  H209     1.0000 0.98232  0.71871  0.39605  Biso   1.000  H
  H210     1.0000 0.63398  0.50822  0.80750  Biso   1.000  H
  H211     1.0000 0.75783  0.62487  0.52295  Biso   1.000  H
  H212     1.0000 0.98415  0.21990  0.14844  Biso   1.000  H
  H213     1.0000 0.34003  0.99810  0.74842  Biso   1.000  H
  H214     1.0000 0.26074  0.63025  0.01790  Biso   1.000  H
  H215     1.0000 0.50992  0.19833  0.36049  Biso   1.000  H
  H216     1.0000 0.83748  0.97884  0.79667  Biso   1.000  H
  H217     1.0000 0.22016  0.49670  0.38227  Biso   1.000  H
  H218     1.0000 0.34727  0.20932  0.50167  Biso   1.000  H
  H219     1.0000 0.52012  0.32464  0.24194  Biso   1.000  H
  H220     1.0000 0.70862  0.49086  0.18146  Biso   1.000  H
  H221     1.0000 0.84692  0.21014  0.00084  Biso   1.000  H
  H222     1.0000 0.99257  0.35005  0.28413  Biso   1.000  H
  H223     1.0000 0.26257  0.99856  0.36883  Biso   1.000  H
  H224     1.0000 0.13727  0.70875  0.52873  Biso   1.000  H
  H225     1.0000 0.98903  0.85008  0.26138  Biso   1.000  H
  H226     1.0000 0.75941  0.96872  0.17638  Biso   1.000  H
  H227     1.0000 0.63675  0.70901  0.04246  Biso   1.000  H
  H228     1.0000 0.46994  0.82495  0.30589  Biso   1.000  H
  H229     1.0000 0.76158  0.51290  0.67378  Biso   1.000  H
  H230     1.0000 0.62969  0.74348  0.52982  Biso   1.000  H
  H231     1.0000 0.48308  0.63026  0.80611  Biso   1.000  H
  H232     1.0000 0.26237  0.45366  0.87477  Biso   1.000  H
  H233     1.0000 0.13811  0.75577  0.04588  Biso   1.000  H
  H234     1.0000 0.99782  0.60898  0.76767  Biso   1.000  H
  H235     1.0000 0.70811  0.96680  0.67332  Biso   1.000  H
  H236     1.0000 0.83566  0.25168  0.52125  Biso   1.000  H
  H237     1.0000 0.98984  0.11064  0.77890  Biso   1.000  H
  H238     1.0000 0.21049  0.98180  0.86592  Biso   1.000  H
  H239     1.0000 0.34470  0.25135  0.00959  Biso   1.000  H
  H240     1.0000 0.48886  0.14198  0.73685  Biso   1.000  H
  H241     1.0000 0.72012  0.47833  0.88612  Biso   1.000  H
  H242     1.0000 0.84643  0.71419  0.53404  Biso   1.000  H
  H243     1.0000 0.47943  0.85207  0.77270  Biso   1.000  H
  H244     1.0000 0.21832  0.45270  0.66584  Biso   1.000  H
  H245     1.0000 0.34642  0.71263  0.02244  Biso   1.000  H
  H246     1.0000 0.00745  0.81998  0.80619  Biso   1.000  H
  H247     1.0000 0.75349  0.97844  0.88554  Biso   1.000  H
  H248     1.0000 0.63456  0.20688  0.51060  Biso   1.000  H
  H249     1.0000 0.98535  0.32346  0.74225  Biso   1.000  H
  H250     1.0000 0.25582  0.96907  0.65914  Biso   1.000  H
  H251     1.0000 0.13348  0.21331  0.00799  Biso   1.000  H
  H252     1.0000 0.49545  0.34680  0.78358  Biso   1.000  H
  H253     1.0000 0.26010  0.49179  0.15935  Biso   1.000  H
  H254     1.0000 0.12322  0.24572  0.50596  Biso   1.000  H
  H255     1.0000 0.52042  0.10751  0.28037  Biso   1.000  H
  H256     1.0000 0.75584  0.48872  0.38676  Biso   1.000  H
  H257     1.0000 0.63326  0.25237  0.02003  Biso   1.000  H
  H258     1.0000 0.98315  0.13686  0.23973  Biso   1.000  H
  H259     1.0000 0.22340  0.00262  0.15589  Biso   1.000  H
  H260     1.0000 0.34278  0.75364  0.54038  Biso   1.000  H
  H261     1.0000 0.98133  0.63201  0.30468  Biso   1.000  H
  H262     1.0000 0.71868  0.95730  0.38578  Biso   1.000  H
  H263     1.0000 0.84843  0.75307  0.01511  Biso   1.000  H
  H264     1.0000 0.47827  0.61326  0.26537  Biso   1.000  H
  H265     1.0000 0.02641  0.19259  0.86210  Biso   1.000  H
  H266     1.0000 0.85416  0.96481  0.25615  Biso   1.000  H
  H267     1.0000 0.21878  0.84015  0.00900  Biso   1.000  H
  H268     1.0000 0.47340  0.21467  0.64336  Biso   1.000  H
  H269     1.0000 0.35105  0.00244  0.28743  Biso   1.000  H
  H270     1.0000 0.71043  0.83153  0.51119  Biso   1.000  H
  H271     1.0000 0.50428  0.71493  0.89576  Biso   1.000  H
  H272     1.0000 0.62212  0.49380  0.26079  Biso   1.000  H
  H273     1.0000 0.26034  0.33406  0.03242  Biso   1.000  H
  H274     1.0000 0.00566  0.69964  0.68640  Biso   1.000  H
  H275     1.0000 0.12836  0.49918  0.29342  Biso   1.000  H
  H276     1.0000 0.75289  0.33547  0.52124  Biso   1.000  H
  H277     1.0000 0.97441  0.76055  0.17805  Biso   1.000  H
  H278     1.0000 0.12448  0.97705  0.78521  Biso   1.000  H
  H279     1.0000 0.76240  0.12694  0.04527  Biso   1.000  H
  H280     1.0000 0.49155  0.74815  0.39594  Biso   1.000  H
  H281     1.0000 0.62923  0.97437  0.75611  Biso   1.000  H
  H282     1.0000 0.25633  0.12724  0.53885  Biso   1.000  H
  H283     1.0000 0.50495  0.24426  0.15060  Biso   1.000  H
  H284     1.0000 0.34758  0.44874  0.79063  Biso   1.000  H
  H285     1.0000 0.71596  0.62336  0.02941  Biso   1.000  H
  H286     1.0000 0.97485  0.25851  0.36596  Biso   1.000  H
  H287     1.0000 0.84612  0.49438  0.75956  Biso   1.000  H
  H288     1.0000 0.21807  0.61943  0.51794  Biso   1.000  H
  H289     1.0000 0.08329  0.21327  0.99554  Biso   1.000  H
  H290     1.0000 0.98258  0.08452  0.24064  Biso   1.000  H
  H291     1.0000 0.21911  0.99020  0.10459  Biso   1.000  H
  H292     1.0000 0.58125  0.20714  0.50811  Biso   1.000  H
  H293     1.0000 0.52138  0.05297  0.28643  Biso   1.000  H
  H294     1.0000 0.71706  0.96380  0.43936  Biso   1.000  H
  H295     1.0000 0.40311  0.71218  0.01441  Biso   1.000  H
  H296     1.0000 0.46875  0.55950  0.26209  Biso   1.000  H
  H297     1.0000 0.26099  0.49659  0.10691  Biso   1.000  H
  H298     1.0000 0.90185  0.71028  0.53802  Biso   1.000  H
  H299     1.0000 0.97935  0.58318  0.30546  Biso   1.000  H
  H300     1.0000 0.75837  0.49014  0.43844  Biso   1.000  H
  H301     1.0000 0.89958  0.75464  0.00793  Biso   1.000  H
  H302     1.0000 0.99594  0.87131  0.80176  Biso   1.000  H
  H303     1.0000 0.75650  0.97679  0.93944  Biso   1.000  H
  H304     1.0000 0.39595  0.75404  0.53277  Biso   1.000  H
  H305     1.0000 0.47476  0.90392  0.76581  Biso   1.000  H
  H306     1.0000 0.25927  0.96282  0.60535  Biso   1.000  H
  H307     1.0000 0.58031  0.25520  0.01624  Biso   1.000  H
  H308     1.0000 0.50356  0.40192  0.78596  Biso   1.000  H
  H309     1.0000 0.71892  0.47399  0.94110  Biso   1.000  H
  H310     1.0000 0.07265  0.24798  0.49983  Biso   1.000  H
  H311     1.0000 0.97898  0.37886  0.74279  Biso   1.000  H
  H312     1.0000 0.21505  0.45751  0.60926  Biso   1.000  H
  H313     1.0000 0.21495  0.98036  0.92192  Biso   1.000  H
  H314     1.0000 0.89537  0.20562  0.98986  Biso   1.000  H
  H315     1.0000 0.99134  0.90439  0.25838  Biso   1.000  H
  H316     1.0000 0.70653  0.97059  0.61843  Biso   1.000  H
  H317     1.0000 0.39806  0.20210  0.49523  Biso   1.000  H
  H318     1.0000 0.47483  0.87932  0.30190  Biso   1.000  H
  H319     1.0000 0.26264  0.46183  0.92601  Biso   1.000  H
  H320     1.0000 0.58028  0.71060  0.04873  Biso   1.000  H
  H321     1.0000 0.51241  0.37819  0.24486  Biso   1.000  H
  H322     1.0000 0.75843  0.50395  0.61765  Biso   1.000  H
  H323     1.0000 0.07881  0.71144  0.52451  Biso   1.000  H
  H324     1.0000 0.98935  0.40470  0.28911  Biso   1.000  H
  H325     1.0000 0.75586  0.97305  0.12068  Biso   1.000  H
  H326     1.0000 0.08338  0.75555  0.05262  Biso   1.000  H
  H327     1.0000 0.97936  0.05344  0.78192  Biso   1.000  H
  H328     1.0000 0.25896  0.99206  0.42465  Biso   1.000  H
  H329     1.0000 0.57471  0.74517  0.54458  Biso   1.000  H
  H330     1.0000 0.49290  0.08743  0.74291  Biso   1.000  H
  H331     1.0000 0.71202  0.49234  0.12432  Biso   1.000  H
  H332     1.0000 0.40059  0.25505  0.00334  Biso   1.000  H
  H333     1.0000 0.48831  0.57946  0.80409  Biso   1.000  H
  H334     1.0000 0.21503  0.48790  0.43705  Biso   1.000  H
  H335     1.0000 0.89215  0.25153  0.52605  Biso   1.000  H
  H336     1.0000 0.99862  0.55358  0.76080  Biso   1.000  H
  H337     1.0000 0.01775  0.19770  0.91431  Biso   1.000  H
  H338     1.0000 0.90551  0.97137  0.24969  Biso   1.000  H
  H339     1.0000 0.21712  0.89427  0.00922  Biso   1.000  H
  H340     1.0000 0.46901  0.20625  0.58945  Biso   1.000  H
  H341     1.0000 0.40507  0.00130  0.28943  Biso   1.000  H
  H342     1.0000 0.70880  0.88338  0.51771  Biso   1.000  H
  H343     1.0000 0.50632  0.70941  0.95084  Biso   1.000  H
  H344     1.0000 0.56760  0.49029  0.25814  Biso   1.000  H
  H345     1.0000 0.26310  0.39446  0.03633  Biso   1.000  H
  H346     1.0000 0.00291  0.70134  0.63211  Biso   1.000  H
  H347     1.0000 0.07632  0.49797  0.29487  Biso   1.000  H
  H348     1.0000 0.75358  0.38999  0.52308  Biso   1.000  H
  H349     1.0000 0.97185  0.75691  0.12259  Biso   1.000  H
  H350     1.0000 0.06879  0.97663  0.78637  Biso   1.000  H
  H351     1.0000 0.76494  0.07476  0.04856  Biso   1.000  H
  H352     1.0000 0.49541  0.74895  0.44917  Biso   1.000  H
  H353     1.0000 0.57431  0.98196  0.75712  Biso   1.000  H
  H354     1.0000 0.25750  0.07395  0.53413  Biso   1.000  H
  H355     1.0000 0.49057  0.24981  0.09755  Biso   1.000  H
  H356     1.0000 0.40329  0.46326  0.79142  Biso   1.000  H
  H357     1.0000 0.71547  0.57135  0.02483  Biso   1.000  H
  H358     1.0000 0.97236  0.25784  0.41801  Biso   1.000  H
  H359     1.0000 0.89897  0.48199  0.75423  Biso   1.000  H
  H360     1.0000 0.21172  0.56388  0.52116  Biso   1.000  H
  H361     1.0000 0.98122  0.71642  0.44989  Biso   1.000  H
  H362     1.0000 0.39266  0.00868  0.74704  Biso   1.000  H
  H363     1.0000 0.71471  0.39492  0.04986  Biso   1.000  H
  H364     1.0000 0.49412  0.70627  0.13282  Biso   1.000  H
  H365     1.0000 0.88851  0.97279  0.79441  Biso   1.000  H
  H366     1.0000 0.21353  0.38764  0.51146  Biso   1.000  H
  H367     1.0000 0.49844  0.20228  0.41226  Biso   1.000  H
  H368     1.0000 0.07985  0.44263  0.75013  Biso   1.000  H
  H369     1.0000 0.75871  0.88965  0.02110  Biso   1.000  H
  H370     1.0000 0.98631  0.21614  0.09547  Biso   1.000  H
  H371     1.0000 0.58367  0.50757  0.80542  Biso   1.000  H
  H372     1.0000 0.25640  0.89127  0.53024  Biso   1.000  H
  H373     1.0000 0.00723  0.24743  0.59751  Biso   1.000  H
  H374     1.0000 0.57506  0.95276  0.30061  Biso   1.000  H
  H375     1.0000 0.25999  0.57409  0.01574  Biso   1.000  H
  H376     1.0000 0.50050  0.25639  0.91934  Biso   1.000  H
  H377     1.0000 0.08373  0.98874  0.24531  Biso   1.000  H
  H378     1.0000 0.76222  0.57043  0.52317  Biso   1.000  H
  H379     1.0000 0.48525  0.76043  0.62811  Biso   1.000  H
  H380     1.0000 0.89885  0.48331  0.30265  Biso   1.000  H
  H381     1.0000 0.21941  0.07609  0.02353  Biso   1.000  H
  H382     1.0000 0.03392  0.75480  0.95492  Biso   1.000  H
  H383     1.0000 0.39142  0.44955  0.24618  Biso   1.000  H
  H384     1.0000 0.71303  0.05913  0.51565  Biso   1.000  H
  H385     1.0000 0.21267  0.46290  0.34936  Biso   1.000  H
  H386     1.0000 0.25469  0.15008  0.49888  Biso   1.000  H
  H387     1.0000 0.48551  0.29537  0.24023  Biso   1.000  H
  H388     1.0000 0.65178  0.46342  0.26196  Biso   1.000  H
  H389     1.0000 0.82408  0.21437  0.04586  Biso   1.000  H
  H390     1.0000 0.94115  0.27225  0.33022  Biso   1.000  H
  H391     1.0000 0.31370  0.96298  0.29989  Biso   1.000  H
  H392     1.0000 0.16326  0.70382  0.49227  Biso   1.000  H
  H393     1.0000 0.94676  0.77468  0.21333  Biso   1.000  H
  H394     1.0000 0.81624  0.93336  0.24804  Biso   1.000  H
  H395     1.0000 0.71649  0.65362  0.06617  Biso   1.000  H
  H396     1.0000 0.50662  0.79812  0.31264  Biso   1.000  H
  H397     1.0000 0.76591  0.53675  0.70994  Biso   1.000  H
  H398     1.0000 0.71338  0.80200  0.54135  Biso   1.000  H
  H399     1.0000 0.45546  0.66646  0.82224  Biso   1.000  H
  H400     1.0000 0.31683  0.47942  0.78792  Biso   1.000  H
  H401     1.0000 0.21101  0.80137  0.98547  Biso   1.000  H
  H402     1.0000 0.02970  0.63248  0.76894  Biso   1.000  H
  H403     1.0000 0.70433  0.93774  0.70383  Biso   1.000  H
  H404     1.0000 0.75240  0.30179  0.54907  Biso   1.000  H
  H405     1.0000 0.98377  0.19360  0.83669  Biso   1.000  H
  H406     1.0000 0.20096  0.01701  0.83968  Biso   1.000  H
  H407     1.0000 0.25427  0.31239  0.99886  Biso   1.000  H
  H408     1.0000 0.45166  0.16729  0.73339  Biso   1.000  H
  H409     1.0000 0.25326  0.45955  0.18851  Biso   1.000  H
  H410     1.0000 0.16150  0.25566  0.47206  Biso   1.000  H
  H411     1.0000 0.47500  0.18467  0.33054  Biso   1.000  H
  H412     1.0000 0.81004  0.46276  0.29897  Biso   1.000  H
  H413     1.0000 0.66512  0.26269  0.99187  Biso   1.000  H
  H414     1.0000 0.94840  0.21456  0.18099  Biso   1.000  H
  H415     1.0000 0.17383  0.03582  0.24111  Biso   1.000  H
  H416     1.0000 0.31433  0.75302  0.50805  Biso   1.000  H
  H417     1.0000 0.95459  0.66524  0.31006  Biso   1.000  H
  H418     1.0000 0.71522  0.93270  0.35330  Biso   1.000  H
  H419     1.0000 0.82149  0.75966  0.05698  Biso   1.000  H
  H420     1.0000 0.44735  0.64425  0.26362  Biso   1.000  H
  H421     1.0000 0.72063  0.51033  0.86434  Biso   1.000  H
  H422     1.0000 0.75789  0.65795  0.55380  Biso   1.000  H
  H423     1.0000 0.45844  0.76169  0.71396  Biso   1.000  H
  H424     1.0000 0.16679  0.47419  0.75220  Biso   1.000  H
  H425     1.0000 0.31773  0.70894  0.98564  Biso   1.000  H
  H426     1.0000 0.00880  0.73785  0.87208  Biso   1.000  H
  H427     1.0000 0.76088  0.01209  0.84938  Biso   1.000  H
  H428     1.0000 0.71994  0.14744  0.53885  Biso   1.000  H
  H429     1.0000 0.02293  0.30043  0.73760  Biso   1.000  H
  H430     1.0000 0.30242  0.02236  0.73880  Biso   1.000  H
  H431     1.0000 0.17042  0.20289  0.97696  Biso   1.000  H
  H432     1.0000 0.45523  0.26742  0.83413  Biso   1.000  H
  H433     1.0000 0.26323  0.95048  0.69379  Biso   1.000  H
  H434     1.0000 0.71277  0.30653  0.06410  Biso   1.000  H
  H435     1.0000 0.01350  0.71888  0.36429  Biso   1.000  H
  H436     1.0000 0.80563  0.93965  0.80427  Biso   1.000  H
  H437     1.0000 0.20199  0.30502  0.54377  Biso   1.000  H
  H438     1.0000 0.51474  0.69475  0.21716  Biso   1.000  H
  H439     1.0000 0.21291  0.41502  0.68922  Biso   1.000  H
  H440     1.0000 0.76788  0.80014  0.98972  Biso   1.000  H
  H441     1.0000 0.54945  0.14729  0.28558  Biso   1.000  H
  H442     1.0000 0.65897  0.47955  0.79666  Biso   1.000  H
  H443     1.0000 0.25790  0.80995  0.56049  Biso   1.000  H
  H444     1.0000 0.01711  0.16814  0.23229  Biso   1.000  H
  H445     1.0000 0.65915  0.98694  0.30393  Biso   1.000  H
  H446     1.0000 0.27212  0.65801  0.05616  Biso   1.000  H
  H447     1.0000 0.98394  0.23505  0.67909  Biso   1.000  H
  H448     1.0000 0.22143  0.97008  0.18845  Biso   1.000  H
  H449     1.0000 0.81889  0.70875  0.50066  Biso   1.000  H
  H450     1.0000 0.52331  0.31545  0.78464  Biso   1.000  H
  H451     1.0000 0.76352  0.52044  0.35905  Biso   1.000  H
  H452     1.0000 0.20755  0.16263  0.05602  Biso   1.000  H
  H453     1.0000 0.51296  0.81904  0.76948  Biso   1.000  H
  H454     1.0000 0.31776  0.49516  0.24758  Biso   1.000  H
  H455     1.0000 0.66132  0.20152  0.48334  Biso   1.000  H
  H456     1.0000 0.04021  0.79987  0.80369  Biso   1.000  H
  H457     1.0000 0.65249  0.74449  0.49148  Biso   1.000  H
  H458     1.0000 0.53555  0.70483  0.85883  Biso   1.000  H
  H459     1.0000 0.80783  0.46100  0.74924  Biso   1.000  H
  H460     1.0000 0.17484  0.76227  0.06698  Biso   1.000  H
  H461     1.0000 0.97917  0.69883  0.71943  Biso   1.000  H
  H462     1.0000 0.26342  0.42477  0.84842  Biso   1.000  H
  H463     1.0000 0.81599  0.25863  0.48679  Biso   1.000  H
  H464     1.0000 0.03116  0.13492  0.77918  Biso   1.000  H
  H465     1.0000 0.65933  0.01086  0.74542  Biso   1.000  H
  H466     1.0000 0.31954  0.24862  0.04049  Biso   1.000  H
  H467     1.0000 0.49996  0.22259  0.67235  Biso   1.000  H
  H468     1.0000 0.15793  0.94385  0.79155  Biso   1.000  H
  H469     1.0000 0.31821  0.21729  0.52621  Biso   1.000  H
  H470     1.0000 0.53978  0.24200  0.18075  Biso   1.000  H
  H471     1.0000 0.16615  0.52936  0.29775  Biso   1.000  H
  H472     1.0000 0.75928  0.15266  0.00597  Biso   1.000  H
  H473     1.0000 0.01848  0.31086  0.29186  Biso   1.000  H
  H474     1.0000 0.70932  0.52080  0.21151  Biso   1.000  H
  H475     1.0000 0.21126  0.64937  0.55831  Biso   1.000  H
  H476     1.0000 0.02338  0.81427  0.24887  Biso   1.000  H
  H477     1.0000 0.28179  0.04561  0.33118  Biso   1.000  H
  H478     1.0000 0.66342  0.70244  0.00414  Biso   1.000  H
  H479     1.0000 0.44589  0.74798  0.36731  Biso   1.000  H
  H480     1.0000 0.77122  0.00707  0.21007  Biso   1.000  H
  N1       1.0000 0.66572  0.15143  0.51308  Biso   1.000  N
  N2       1.0000 0.48233  0.64672  0.21600  Biso   1.000  N
  N3       1.0000 0.16604  0.44880  0.69809  Biso   1.000  N
  N4       1.0000 0.16657  0.16027  0.01374  Biso   1.000  N
  N5       1.0000 0.98311  0.66670  0.35992  Biso   1.000  N
  N6       1.0000 0.66721  0.49092  0.85336  Biso   1.000  N
  N7       1.0000 0.81261  0.65983  0.53089  Biso   1.000  N
  N8       1.0000 0.98504  0.16674  0.18329  Biso   1.000  N
  N9       1.0000 0.30738  0.98613  0.69439  Biso   1.000  N
  N10      1.0000 0.31537  0.66003  0.01610  Biso   1.000  N
  N11      1.0000 0.51259  0.14335  0.33135  Biso   1.000  N
  N12      1.0000 0.80561  0.97525  0.85086  Biso   1.000  N
  N13      1.0000 0.31015  0.80577  0.53473  Biso   1.000  N
  N14      1.0000 0.49553  0.31287  0.83392  Biso   1.000  N
  N15      1.0000 0.80914  0.48935  0.35325  Biso   1.000  N
  N16      1.0000 0.81509  0.80573  0.02081  Biso   1.000  N
  N17      1.0000 0.99780  0.29412  0.68731  Biso   1.000  N
  N18      1.0000 0.30880  0.47528  0.19392  Biso   1.000  N
  N19      1.0000 0.15696  0.30244  0.50831  Biso   1.000  N
  N20      1.0000 0.01822  0.79539  0.86275  Biso   1.000  N
  N21      1.0000 0.66432  0.96083  0.35074  Biso   1.000  N
  N22      1.0000 0.66667  0.30745  0.02945  Biso   1.000  N
  N23      1.0000 0.48278  0.81393  0.71776  Biso   1.000  N
  N24      1.0000 0.17080  0.99664  0.19175  Biso   1.000  N
  N25      1.0000 0.81177  0.49740  0.70553  Biso   1.000  N
  N26      1.0000 0.65877  0.79634  0.52187  Biso   1.000  N
  N27      1.0000 0.49643  0.66236  0.86135  Biso   1.000  N
  N28      1.0000 0.31566  0.45447  0.84141  Biso   1.000  N
  N29      1.0000 0.16738  0.80713  0.02797  Biso   1.000  N
  N30      1.0000 0.99970  0.64294  0.71608  Biso   1.000  N
  N31      1.0000 0.65587  0.97090  0.70324  Biso   1.000  N
  N32      1.0000 0.80553  0.30519  0.52042  Biso   1.000  N
  N33      1.0000 0.00421  0.14053  0.83196  Biso   1.000  N
  N34      1.0000 0.15724  0.98121  0.83822  Biso   1.000  N
  N35      1.0000 0.31196  0.30512  0.01969  Biso   1.000  N
  N36      1.0000 0.47983  0.16573  0.68127  Biso   1.000  N
  N37      1.0000 0.16505  0.49886  0.34701  Biso   1.000  N
  N38      1.0000 0.31142  0.16071  0.51721  Biso   1.000  N
  N39      1.0000 0.50740  0.29423  0.18600  Biso   1.000  N
  N40      1.0000 0.65631  0.49369  0.21091  Biso   1.000  N
  N41      1.0000 0.81427  0.15845  0.02501  Biso   1.000  N
  N42      1.0000 0.98206  0.31371  0.33589  Biso   1.000  N
  N43      1.0000 0.31715  0.00091  0.34039  Biso   1.000  N
  N44      1.0000 0.16480  0.65440  0.52730  Biso   1.000  N
  N45      1.0000 0.98170  0.81436  0.20818  Biso   1.000  N
  N46      1.0000 0.81418  0.97256  0.20535  Biso   1.000  N
  N47      1.0000 0.66462  0.65659  0.03932  Biso   1.000  N
  N48      1.0000 0.47566  0.79759  0.36228  Biso   1.000  N
  O1       1.0000 0.33255  0.52447  0.01460  Biso   1.000  O
  O2       1.0000 0.98928  0.31875  0.55666  Biso   1.000  O
  O3       1.0000 0.53029  0.96688  0.36831  Biso   1.000  O
  O4       1.0000 0.82993  0.52422  0.52939  Biso   1.000  O
  O5       1.0000 0.49316  0.32880  0.96861  Biso   1.000  O
  O6       1.0000 0.03416  0.98891  0.17355  Biso   1.000  O
  O7       1.0000 0.14777  0.02873  0.01564  Biso   1.000  O
  O8       1.0000 0.48273  0.82609  0.57951  Biso   1.000  O
  O9       1.0000 0.94816  0.48439  0.37430  Biso   1.000  O
  O10      1.0000 0.63705  0.01617  0.52614  Biso   1.000  O
  O11      1.0000 0.00226  0.82695  0.99429  Biso   1.000  O
  O12      1.0000 0.44394  0.45816  0.18161  Biso   1.000  O
  O13      1.0000 0.64312  0.44123  0.04038  Biso   1.000  O
  O14      1.0000 0.98874  0.63870  0.49223  Biso   1.000  O
  O15      1.0000 0.44113  0.99246  0.67732  Biso   1.000  O
  O16      1.0000 0.14232  0.43655  0.51350  Biso   1.000  O
  O17      1.0000 0.48123  0.63775  0.08053  Biso   1.000  O
  O18      1.0000 0.94104  0.96313  0.86565  Biso   1.000  O
  O19      1.0000 0.82912  0.93875  0.02811  Biso   1.000  O
  O20      1.0000 0.49185  0.13237  0.46348  Biso   1.000  O
  O21      1.0000 0.02854  0.46138  0.68378  Biso   1.000  O
  O22      1.0000 0.32942  0.93983  0.51567  Biso   1.000  O
  O23      1.0000 0.99155  0.13834  0.04976  Biso   1.000  O
  O24      1.0000 0.53179  0.49555  0.87425  Biso   1.000  O
  O25      1.0000 0.95010  0.98076  0.17838  Biso   1.000  O
  O26      1.0000 0.14561  0.94224  0.01657  Biso   1.000  O
  O27      1.0000 0.98888  0.13145  0.96558  Biso   1.000  O
  O28      1.0000 0.44906  0.98306  0.36183  Biso   1.000  O
  O29      1.0000 0.63840  0.93143  0.52314  Biso   1.000  O
  O30      1.0000 0.49147  0.13335  0.54883  Biso   1.000  O
  O31      1.0000 0.52246  0.48876  0.18607  Biso   1.000  O
  O32      1.0000 0.33071  0.44108  0.01332  Biso   1.000  O
  O33      1.0000 0.50168  0.63779  0.99711  Biso   1.000  O
  O34      1.0000 0.03174  0.49332  0.36886  Biso   1.000  O
  O35      1.0000 0.82905  0.43800  0.52788  Biso   1.000  O
  O36      1.0000 0.99088  0.63233  0.57802  Biso   1.000  O
  O37      1.0000 0.02262  0.98064  0.86021  Biso   1.000  O
  O38      1.0000 0.83239  0.02220  0.02928  Biso   1.000  O
  O39      1.0000 0.98073  0.83130  0.07448  Biso   1.000  O
  O40      1.0000 0.52531  0.98525  0.68239  Biso   1.000  O
  O41      1.0000 0.33096  0.02256  0.51987  Biso   1.000  O
  O42      1.0000 0.49283  0.82394  0.49535  Biso   1.000  O
  O43      1.0000 0.44958  0.47793  0.86514  Biso   1.000  O
  O44      1.0000 0.64346  0.52218  0.02763  Biso   1.000  O
  O45      1.0000 0.48283  0.32185  0.05425  Biso   1.000  O
  O46      1.0000 0.94400  0.47227  0.68283  Biso   1.000  O
  O47      1.0000 0.14055  0.51791  0.52742  Biso   1.000  O
  O48      1.0000 0.98206  0.32640  0.47156  Biso   1.000  O
  O49      1.0000 0.99207  0.94652  0.18093  Biso   1.000  O
  O50      1.0000 0.14877  0.98524  0.97449  Biso   1.000  O
  O51      1.0000 0.94824  0.13643  0.00863  Biso   1.000  O
  O52      1.0000 0.47852  0.93335  0.37051  Biso   1.000  O
  O53      1.0000 0.63486  0.97650  0.56801  Biso   1.000  O
  O54      1.0000 0.44446  0.12955  0.50872  Biso   1.000  O
  O55      1.0000 0.49694  0.43161  0.17998  Biso   1.000  O
  O56      1.0000 0.33366  0.48628  0.97452  Biso   1.000  O
  O57      1.0000 0.52873  0.64094  0.04625  Biso   1.000  O
  O58      1.0000 0.99359  0.44791  0.36350  Biso   1.000  O
  O59      1.0000 0.82739  0.48457  0.56900  Biso   1.000  O
  O60      1.0000 0.03098  0.63929  0.53543  Biso   1.000  O
  O61      1.0000 0.97281  0.01134  0.85919  Biso   1.000  O
  O62      1.0000 0.82724  0.98050  0.07093  Biso   1.000  O
  O63      1.0000 0.03343  0.82547  0.04830  Biso   1.000  O
  O64      1.0000 0.48637  0.02663  0.67626  Biso   1.000  O
  O65      1.0000 0.33390  0.98855  0.47436  Biso   1.000  O
  O66      1.0000 0.52802  0.81650  0.54243  Biso   1.000  O
  O67      1.0000 0.48522  0.52732  0.87491  Biso   1.000  O
  O68      1.0000 0.63949  0.48556  0.07524  Biso   1.000  O
  O69      1.0000 0.44527  0.32720  0.00655  Biso   1.000  O
  O70      1.0000 0.99416  0.50921  0.68400  Biso   1.000  O
  O71      1.0000 0.13950  0.48594  0.48102  Biso   1.000  O
  O72      1.0000 0.94089  0.32623  0.52190  Biso   1.000  O
  O73      1.0000 0.97846  0.42749  0.67305  Biso   1.000  O
  O74      1.0000 0.64093  0.97124  0.48183  Biso   1.000  O
  O75      1.0000 0.44905  0.63946  0.02860  Biso   1.000  O
  O76      1.0000 0.50016  0.44439  0.86288  Biso   1.000  O
  O77      1.0000 0.14692  0.98231  0.05856  Biso   1.000  O
  O78      1.0000 0.94695  0.63853  0.53699  Biso   1.000  O
  O79      1.0000 0.48136  0.94566  0.68621  Biso   1.000  O
  O80      1.0000 0.83338  0.48089  0.48494  Biso   1.000  O
  O81      1.0000 0.03206  0.14081  0.00932  Biso   1.000  O
  O82      1.0000 0.99205  0.92898  0.86955  Biso   1.000  O
  O83      1.0000 0.33401  0.48087  0.06003  Biso   1.000  O
  O84      1.0000 0.53065  0.13707  0.50707  Biso   1.000  O
  O85      1.0000 0.98383  0.53026  0.37497  Biso   1.000  O
  O86      1.0000 0.33209  0.97656  0.55758  Biso   1.000  O
  O87      1.0000 0.52931  0.32740  0.01646  Biso   1.000  O
  O88      1.0000 0.46934  0.51348  0.18572  Biso   1.000  O
  O89      1.0000 0.82826  0.98219  0.98661  Biso   1.000  O
  O90      1.0000 0.02716  0.32103  0.51135  Biso   1.000  O
  O91      1.0000 0.49854  0.01325  0.36267  Biso   1.000  O
  O92      1.0000 0.14413  0.47111  0.56302  Biso   1.000  O
  O93      1.0000 0.95216  0.82397  0.02694  Biso   1.000  O
  O94      1.0000 0.98774  0.02869  0.17486  Biso   1.000  O
  O95      1.0000 0.64602  0.47715  0.98906  Biso   1.000  O
  O96      1.0000 0.44576  0.82675  0.53172  Biso   1.000  O
  O97      1.0000 0.44536  0.17791  0.50486  Biso   1.000  O
  O98      1.0000 0.49347  0.42664  0.22812  Biso   1.000  O
  O99      1.0000 0.18924  0.47954  0.48187  Biso   1.000  O
  O100     1.0000 0.94572  0.18492  0.00630  Biso   1.000  O
  O101     1.0000 0.98419  0.44997  0.31662  Biso   1.000  O
  O102     1.0000 0.68804  0.48895  0.07531  Biso   1.000  O
  O103     1.0000 0.02976  0.68730  0.54147  Biso   1.000  O
  O104     1.0000 0.99588  0.94977  0.22983  Biso   1.000  O
  O105     1.0000 0.28610  0.98500  0.47616  Biso   1.000  O
  O106     1.0000 0.53059  0.68815  0.04717  Biso   1.000  O
  O107     1.0000 0.48110  0.92754  0.32226  Biso   1.000  O
  O108     1.0000 0.77873  0.97535  0.07023  Biso   1.000  O
  O109     1.0000 0.52378  0.76887  0.54318  Biso   1.000  O
  O110     1.0000 0.48110  0.53191  0.82634  Biso   1.000  O
  O111     1.0000 0.77872  0.48915  0.57049  Biso   1.000  O
  O112     1.0000 0.03148  0.77703  0.04314  Biso   1.000  O
  O113     1.0000 0.99425  0.50551  0.73218  Biso   1.000  O
  O114     1.0000 0.28566  0.47882  0.97652  Biso   1.000  O
  O115     1.0000 0.94097  0.27656  0.51869  Biso   1.000  O
  O116     1.0000 0.97294  0.00567  0.81039  Biso   1.000  O
  O117     1.0000 0.68345  0.97365  0.56884  Biso   1.000  O
  O118     1.0000 0.44799  0.27821  0.00720  Biso   1.000  O
  O119     1.0000 0.48785  0.03588  0.72487  Biso   1.000  O
  O120     1.0000 0.19640  0.98854  0.97110  Biso   1.000  O
  O121     1.0000 0.03076  0.45704  0.73201  Biso   1.000  O
  O122     1.0000 0.68682  0.01682  0.52515  Biso   1.000  O
  O123     1.0000 0.48229  0.68692  0.08280  Biso   1.000  O
  O124     1.0000 0.53344  0.49955  0.82530  Biso   1.000  O
  O125     1.0000 0.19721  0.02699  0.01970  Biso   1.000  O
  O126     1.0000 0.99378  0.68727  0.49759  Biso   1.000  O
  O127     1.0000 0.43903  0.00275  0.72560  Biso   1.000  O
  O128     1.0000 0.78154  0.52372  0.52399  Biso   1.000  O
  O129     1.0000 0.98853  0.18807  0.04589  Biso   1.000  O
  O130     1.0000 0.93894  0.95862  0.81571  Biso   1.000  O
  O131     1.0000 0.28351  0.52393  0.01253  Biso   1.000  O
  O132     1.0000 0.48989  0.18120  0.46427  Biso   1.000  O
  O133     1.0000 0.94512  0.48981  0.32464  Biso   1.000  O
  O134     1.0000 0.28126  0.93864  0.51495  Biso   1.000  O
  O135     1.0000 0.49351  0.27988  0.96619  Biso   1.000  O
  O136     1.0000 0.43898  0.45889  0.22886  Biso   1.000  O
  O137     1.0000 0.77904  0.93927  0.02582  Biso   1.000  O
  O138     1.0000 0.98546  0.27127  0.55089  Biso   1.000  O
  O139     1.0000 0.52977  0.95655  0.32055  Biso   1.000  O
  O140     1.0000 0.19081  0.43392  0.51602  Biso   1.000  O
  O141     1.0000 0.00316  0.77733  0.99473  Biso   1.000  O
  O142     1.0000 0.03648  0.99463  0.22187  Biso   1.000  O
  O143     1.0000 0.69213  0.44257  0.03723  Biso   1.000  O
  O144     1.0000 0.48229  0.77744  0.58231  Biso   1.000  O
  O145     1.0000 0.52020  0.47826  0.23309  Biso   1.000  O
  O146     1.0000 0.18883  0.51786  0.52230  Biso   1.000  O
  O147     1.0000 0.48399  0.18142  0.54612  Biso   1.000  O
  O148     1.0000 0.02836  0.49508  0.31994  Biso   1.000  O
  O149     1.0000 0.69153  0.52575  0.03181  Biso   1.000  O
  O150     1.0000 0.99181  0.17996  0.96192  Biso   1.000  O
  O151     1.0000 0.95157  0.98759  0.22637  Biso   1.000  O
  O152     1.0000 0.28184  0.02337  0.52236  Biso   1.000  O
  O153     1.0000 0.98691  0.68205  0.58260  Biso   1.000  O
  O154     1.0000 0.44846  0.97915  0.31464  Biso   1.000  O
  O155     1.0000 0.78428  0.02423  0.03666  Biso   1.000  O
  O156     1.0000 0.49873  0.68629  0.99916  Biso   1.000  O
  O157     1.0000 0.44915  0.48503  0.81773  Biso   1.000  O
  O158     1.0000 0.77969  0.43990  0.53205  Biso   1.000  O
  O159     1.0000 0.48660  0.77606  0.49639  Biso   1.000  O
  O160     1.0000 0.94390  0.47013  0.73169  Biso   1.000  O
  O161     1.0000 0.28210  0.44007  0.02000  Biso   1.000  O
  O162     1.0000 0.98023  0.77980  0.07364  Biso   1.000  O
  O163     1.0000 0.01901  0.97405  0.81045  Biso   1.000  O
  O164     1.0000 0.68614  0.93401  0.52724  Biso   1.000  O
  O165     1.0000 0.97833  0.27768  0.46797  Biso   1.000  O
  O166     1.0000 0.52337  0.98996  0.73110  Biso   1.000  O
  O167     1.0000 0.19400  0.94199  0.01487  Biso   1.000  O
  O168     1.0000 0.49189  0.27510  0.04995  Biso   1.000  O
  O169     1.0000 0.99083  0.03356  0.22291  Biso   1.000  O
  O170     1.0000 0.19492  0.98285  0.05673  Biso   1.000  O
  O171     1.0000 0.02931  0.18911  0.00424  Biso   1.000  O
  O172     1.0000 0.49984  0.00814  0.31388  Biso   1.000  O
  O173     1.0000 0.69028  0.97412  0.48753  Biso   1.000  O
  O174     1.0000 0.53060  0.18518  0.51565  Biso   1.000  O
  O175     1.0000 0.46914  0.51019  0.23535  Biso   1.000  O
  O176     1.0000 0.28640  0.48758  0.05634  Biso   1.000  O
  O177     1.0000 0.44983  0.68686  0.03102  Biso   1.000  O
  O178     1.0000 0.98768  0.53367  0.32581  Biso   1.000  O
  O179     1.0000 0.78441  0.47825  0.48756  Biso   1.000  O
  O180     1.0000 0.94699  0.68747  0.53887  Biso   1.000  O
  O181     1.0000 0.98607  0.92431  0.82253  Biso   1.000  O
  O182     1.0000 0.77876  0.98329  0.98671  Biso   1.000  O
  O183     1.0000 0.95055  0.77578  0.02145  Biso   1.000  O
  O184     1.0000 0.47457  0.95354  0.73467  Biso   1.000  O
  O185     1.0000 0.28203  0.97789  0.56077  Biso   1.000  O
  O186     1.0000 0.44369  0.77745  0.53657  Biso   1.000  O
  O187     1.0000 0.50199  0.45306  0.81439  Biso   1.000  O
  O188     1.0000 0.69331  0.48022  0.99228  Biso   1.000  O
  O189     1.0000 0.53319  0.28056  0.00745  Biso   1.000  O
  O190     1.0000 0.97683  0.42417  0.72320  Biso   1.000  O
  O191     1.0000 0.19124  0.47341  0.56195  Biso   1.000  O
  O192     1.0000 0.02456  0.27339  0.50047  Biso   1.000  O
