data_image0
_cell_length_a       46.6149
_cell_length_b       46.6438
_cell_length_c       46.5236
_cell_angle_alpha    90
_cell_angle_beta     90
_cell_angle_gamma    90

_symmetry_space_group_name_H-M    "P 1"
_symmetry_int_tables_number       1

loop_
  _symmetry_equiv_pos_as_xyz
  'x, y, z'

loop_
  _atom_site_label
  _atom_site_occupancy
  _atom_site_fract_x
  _atom_site_fract_y
  _atom_site_fract_z
  _atom_site_thermal_displace_type
  _atom_site_B_iso_or_equiv
  _atom_site_type_symbol
  C1       1.0000 0.57112  0.98355  0.30888  Biso   1.000  C
  C2       1.0000 0.33776  0.53588  0.99840  Biso   1.000  C
  C3       1.0000 0.02818  0.30905  0.55238  Biso   1.000  C
  C4       1.0000 0.06922  0.99009  0.17051  Biso   1.000  C
  C5       1.0000 0.84713  0.54344  0.48962  Biso   1.000  C
  C6       1.0000 0.53283  0.30773  0.92918  Biso   1.000  C
  C7       1.0000 0.97697  0.47738  0.30454  Biso   1.000  C
  C8       1.0000 0.21081  0.04367  0.00391  Biso   1.000  C
  C9       1.0000 0.53673  0.81384  0.55309  Biso   1.000  C
  C10      1.0000 0.47406  0.47739  0.17317  Biso   1.000  C
  C11      1.0000 0.70349  0.04285  0.49158  Biso   1.000  C
  C12      1.0000 0.02780  0.80755  0.93604  Biso   1.000  C
  C13      1.0000 0.47546  0.99984  0.67427  Biso   1.000  C
  C14      1.0000 0.70637  0.43580  0.98932  Biso   1.000  C
  C15      1.0000 0.02823  0.66097  0.42931  Biso   1.000  C
  C16      1.0000 0.98134  0.98144  0.80900  Biso   1.000  C
  C17      1.0000 0.21240  0.43500  0.48959  Biso   1.000  C
  C18      1.0000 0.51390  0.66250  0.04791  Biso   1.000  C
  C19      1.0000 0.07710  0.48648  0.67139  Biso   1.000  C
  C20      1.0000 0.84541  0.93377  0.99636  Biso   1.000  C
  C21      1.0000 0.53207  0.16163  0.43228  Biso   1.000  C
  C22      1.0000 0.58097  0.50142  0.80649  Biso   1.000  C
  C23      1.0000 0.34179  0.93277  0.49296  Biso   1.000  C
  C24      1.0000 0.02649  0.16419  0.04736  Biso   1.000  C
  C25      1.0000 0.34333  0.04085  0.50173  Biso   1.000  C
  C26      1.0000 0.53107  0.30778  0.03893  Biso   1.000  C
  C27      1.0000 0.08338  0.47863  0.31107  Biso   1.000  C
  C28      1.0000 0.84564  0.04136  0.98486  Biso   1.000  C
  C29      1.0000 0.02418  0.30338  0.44430  Biso   1.000  C
  C30      1.0000 0.58132  0.48880  0.17328  Biso   1.000  C
  C31      1.0000 0.20955  0.54265  0.49663  Biso   1.000  C
  C32      1.0000 0.03111  0.80713  0.04456  Biso   1.000  C
  C33      1.0000 0.46389  0.97858  0.31507  Biso   1.000  C
  C34      1.0000 0.70263  0.54573  0.98746  Biso   1.000  C
  C35      1.0000 0.52197  0.80626  0.44762  Biso   1.000  C
  C36      1.0000 0.96097  0.97842  0.17473  Biso   1.000  C
  C37      1.0000 0.70282  0.93439  0.48661  Biso   1.000  C
  C38      1.0000 0.52169  0.66322  0.93730  Biso   1.000  C
  C39      1.0000 0.97309  0.50225  0.66934  Biso   1.000  C
  C40      1.0000 0.21053  0.93431  0.99518  Biso   1.000  C
  C41      1.0000 0.02526  0.67402  0.53753  Biso   1.000  C
  C42      1.0000 0.46950  0.48091  0.80982  Biso   1.000  C
  C43      1.0000 0.85136  0.43472  0.48950  Biso   1.000  C
  C44      1.0000 0.02213  0.16708  0.93605  Biso   1.000  C
  C45      1.0000 0.58584  0.99795  0.67148  Biso   1.000  C
  C46      1.0000 0.34515  0.42872  0.99135  Biso   1.000  C
  C47      1.0000 0.51963  0.17535  0.54002  Biso   1.000  C
  C48      1.0000 0.09059  0.99189  0.80710  Biso   1.000  C
  C49      1.0000 0.03320  0.04240  0.80529  Biso   1.000  C
  C50      1.0000 0.84384  0.99634  0.04209  Biso   1.000  C
  C51      1.0000 0.08266  0.80935  0.99022  Biso   1.000  C
  C52      1.0000 0.53221  0.05249  0.67105  Biso   1.000  C
  C53      1.0000 0.34072  0.99102  0.44440  Biso   1.000  C
  C54      1.0000 0.58028  0.80573  0.49224  Biso   1.000  C
  C55      1.0000 0.51752  0.54724  0.80701  Biso   1.000  C
  C56      1.0000 0.70296  0.49170  0.04280  Biso   1.000  C
  C57      1.0000 0.47563  0.30827  0.97932  Biso   1.000  C
  C58      1.0000 0.03423  0.54861  0.66635  Biso   1.000  C
  C59      1.0000 0.20665  0.48637  0.43723  Biso   1.000  C
  C60      1.0000 0.97335  0.30529  0.50039  Biso   1.000  C
  C61      1.0000 0.01928  0.93140  0.17638  Biso   1.000  C
  C62      1.0000 0.21306  0.99454  0.94295  Biso   1.000  C
  C63      1.0000 0.97157  0.16719  0.99100  Biso   1.000  C
  C64      1.0000 0.51850  0.92666  0.31660  Biso   1.000  C
  C65      1.0000 0.70950  0.98809  0.54273  Biso   1.000  C
  C66      1.0000 0.47003  0.16868  0.48038  Biso   1.000  C
  C67      1.0000 0.53213  0.42807  0.17322  Biso   1.000  C
  C68      1.0000 0.34472  0.48348  0.94321  Biso   1.000  C
  C69      1.0000 0.57488  0.66620  0.99644  Biso   1.000  C
  C70      1.0000 0.02393  0.42395  0.31389  Biso   1.000  C
  C71      1.0000 0.84891  0.49103  0.54379  Biso   1.000  C
  C72      1.0000 0.08388  0.66666  0.48812  Biso   1.000  C
  C73      1.0000 0.03138  0.53169  0.30222  Biso   1.000  C
  C74      1.0000 0.34171  0.98260  0.55297  Biso   1.000  C
  C75      1.0000 0.58364  0.30720  0.98672  Biso   1.000  C
  C76      1.0000 0.52401  0.53831  0.17240  Biso   1.000  C
  C77      1.0000 0.84890  0.97799  0.93689  Biso   1.000  C
  C78      1.0000 0.08225  0.30561  0.49960  Biso   1.000  C
  C79      1.0000 0.51712  0.03451  0.31027  Biso   1.000  C
  C80      1.0000 0.20704  0.48386  0.54734  Biso   1.000  C
  C81      1.0000 0.97419  0.80902  0.99501  Biso   1.000  C
  C82      1.0000 0.01009  0.03709  0.16992  Biso   1.000  C
  C83      1.0000 0.70699  0.49089  0.93476  Biso   1.000  C
  C84      1.0000 0.47430  0.81304  0.50016  Biso   1.000  C
  C85      1.0000 0.01881  0.44175  0.67233  Biso   1.000  C
  C86      1.0000 0.70200  0.99141  0.43233  Biso   1.000  C
  C87      1.0000 0.46397  0.65854  0.99054  Biso   1.000  C
  C88      1.0000 0.52878  0.43977  0.80932  Biso   1.000  C
  C89      1.0000 0.20657  0.98275  0.05092  Biso   1.000  C
  C90      1.0000 0.97168  0.67060  0.48194  Biso   1.000  C
  C91      1.0000 0.53179  0.94501  0.67757  Biso   1.000  C
  C92      1.0000 0.85366  0.48283  0.43574  Biso   1.000  C
  C93      1.0000 0.07999  0.16580  0.98699  Biso   1.000  C
  C94      1.0000 0.03724  0.93415  0.81140  Biso   1.000  C
  C95      1.0000 0.34422  0.47627  0.04998  Biso   1.000  C
  C96      1.0000 0.57897  0.17108  0.49130  Biso   1.000  C
  C97      1.0000 0.70268  0.07542  0.49288  Biso   1.000  C
  C98      1.0000 0.50992  0.66249  0.07931  Biso   1.000  C
  C99      1.0000 0.10852  0.47773  0.66868  Biso   1.000  C
  C100     1.0000 0.21055  0.07529  0.00253  Biso   1.000  C
  C101     1.0000 0.03099  0.65914  0.39700  Biso   1.000  C
  C102     1.0000 0.61438  0.50319  0.80622  Biso   1.000  C
  C103     1.0000 0.84789  0.57498  0.48480  Biso   1.000  C
  C104     1.0000 0.02222  0.16461  0.07920  Biso   1.000  C
  C105     1.0000 0.44288  0.99747  0.67659  Biso   1.000  C
  C106     1.0000 0.33579  0.56818  0.99862  Biso   1.000  C
  C107     1.0000 0.53397  0.16109  0.40080  Biso   1.000  C
  C108     1.0000 0.94828  0.97861  0.81028  Biso   1.000  C
  C109     1.0000 0.34034  0.90166  0.49918  Biso   1.000  C
  C110     1.0000 0.53450  0.30958  0.89739  Biso   1.000  C
  C111     1.0000 0.94553  0.47865  0.30514  Biso   1.000  C
  C112     1.0000 0.84669  0.90182  0.99769  Biso   1.000  C
  C113     1.0000 0.02762  0.31055  0.58412  Biso   1.000  C
  C114     1.0000 0.44298  0.47275  0.17501  Biso   1.000  C
  C115     1.0000 0.21077  0.40207  0.49138  Biso   1.000  C
  C116     1.0000 0.02892  0.80617  0.90351  Biso   1.000  C
  C117     1.0000 0.60326  0.98273  0.30569  Biso   1.000  C
  C118     1.0000 0.70850  0.40456  0.98664  Biso   1.000  C
  C119     1.0000 0.54270  0.81566  0.58625  Biso   1.000  C
  C120     1.0000 0.10205  0.99293  0.17092  Biso   1.000  C
  C121     1.0000 0.84114  0.99553  0.07420  Biso   1.000  C
  C122     1.0000 0.11529  0.80972  0.98817  Biso   1.000  C
  C123     1.0000 0.03348  0.07495  0.80665  Biso   1.000  C
  C124     1.0000 0.34094  0.99289  0.41203  Biso   1.000  C
  C125     1.0000 0.61183  0.80446  0.48758  Biso   1.000  C
  C126     1.0000 0.53007  0.08326  0.66910  Biso   1.000  C
  C127     1.0000 0.70171  0.49103  0.07470  Biso   1.000  C
  C128     1.0000 0.44283  0.30744  0.98022  Biso   1.000  C
  C129     1.0000 0.51418  0.57867  0.80623  Biso   1.000  C
  C130     1.0000 0.20980  0.48342  0.40552  Biso   1.000  C
  C131     1.0000 0.94080  0.30668  0.50061  Biso   1.000  C
  C132     1.0000 0.03791  0.58074  0.66402  Biso   1.000  C
  C133     1.0000 0.21588  0.99685  0.91046  Biso   1.000  C
  C134     1.0000 0.93928  0.16720  0.99349  Biso   1.000  C
  C135     1.0000 0.02011  0.89821  0.17593  Biso   1.000  C
  C136     1.0000 0.71221  0.99003  0.57447  Biso   1.000  C
  C137     1.0000 0.43883  0.16872  0.48379  Biso   1.000  C
  C138     1.0000 0.51718  0.89486  0.31640  Biso   1.000  C
  C139     1.0000 0.34358  0.48647  0.91015  Biso   1.000  C
  C140     1.0000 0.60722  0.66632  0.00076  Biso   1.000  C
  C141     1.0000 0.53295  0.39571  0.17187  Biso   1.000  C
  C142     1.0000 0.84891  0.49103  0.57660  Biso   1.000  C
  C143     1.0000 0.11621  0.66778  0.49391  Biso   1.000  C
  C144     1.0000 0.01720  0.39270  0.31414  Biso   1.000  C
  C145     1.0000 0.34428  0.47106  0.08163  Biso   1.000  C
  C146     1.0000 0.11384  0.30565  0.49296  Biso   1.000  C
  C147     1.0000 0.51598  0.06649  0.30886  Biso   1.000  C
  C148     1.0000 0.85460  0.47785  0.40302  Biso   1.000  C
  C149     1.0000 0.61515  0.30693  0.98494  Biso   1.000  C
  C150     1.0000 0.00431  0.06879  0.16916  Biso   1.000  C
  C151     1.0000 0.20336  0.97956  0.08191  Biso   1.000  C
  C152     1.0000 0.44233  0.81304  0.49961  Biso   1.000  C
  C153     1.0000 0.03072  0.56383  0.30031  Biso   1.000  C
  C154     1.0000 0.69915  0.99202  0.40111  Biso   1.000  C
  C155     1.0000 0.94329  0.80944  0.00185  Biso   1.000  C
  C156     1.0000 0.52090  0.57020  0.17190  Biso   1.000  C
  C157     1.0000 0.70894  0.49452  0.90346  Biso   1.000  C
  C158     1.0000 0.94063  0.67122  0.48000  Biso   1.000  C
  C159     1.0000 0.53695  0.91399  0.67847  Biso   1.000  C
  C160     1.0000 0.20586  0.48619  0.58008  Biso   1.000  C
  C161     1.0000 0.43184  0.66031  0.99195  Biso   1.000  C
  C162     1.0000 0.03641  0.90232  0.81095  Biso   1.000  C
  C163     1.0000 0.84926  0.97333  0.90466  Biso   1.000  C
  C164     1.0000 0.61020  0.17264  0.49141  Biso   1.000  C
  C165     1.0000 0.01446  0.40883  0.67282  Biso   1.000  C
  C166     1.0000 0.34365  0.97979  0.58430  Biso   1.000  C
  C167     1.0000 0.11143  0.16427  0.99182  Biso   1.000  C
  C168     1.0000 0.52582  0.40883  0.80920  Biso   1.000  C
  C169     1.0000 0.02491  0.80637  0.07518  Biso   1.000  C
  C170     1.0000 0.12163  0.99796  0.81014  Biso   1.000  C
  C171     1.0000 0.84457  0.07358  0.98281  Biso   1.000  C
  C172     1.0000 0.52197  0.80431  0.41555  Biso   1.000  C
  C173     1.0000 0.61776  0.99804  0.67146  Biso   1.000  C
  C174     1.0000 0.34407  0.07373  0.50017  Biso   1.000  C
  C175     1.0000 0.53208  0.30587  0.07046  Biso   1.000  C
  C176     1.0000 0.43822  0.47514  0.81216  Biso   1.000  C
  C177     1.0000 0.70377  0.57734  0.99041  Biso   1.000  C
  C178     1.0000 0.02146  0.30231  0.41209  Biso   1.000  C
  C179     1.0000 0.94105  0.50406  0.67139  Biso   1.000  C
  C180     1.0000 0.21150  0.57395  0.49734  Biso   1.000  C
  C181     1.0000 0.02450  0.16584  0.90388  Biso   1.000  C
  C182     1.0000 0.92844  0.97760  0.17481  Biso   1.000  C
  C183     1.0000 0.20987  0.90422  0.00138  Biso   1.000  C
  C184     1.0000 0.51510  0.17629  0.57303  Biso   1.000  C
  C185     1.0000 0.43070  0.98119  0.31588  Biso   1.000  C
  C186     1.0000 0.70338  0.90195  0.48306  Biso   1.000  C
  C187     1.0000 0.52429  0.66520  0.90417  Biso   1.000  C
  C188     1.0000 0.61314  0.49203  0.17257  Biso   1.000  C
  C189     1.0000 0.34693  0.39689  0.98780  Biso   1.000  C
  C190     1.0000 0.02473  0.67680  0.56944  Biso   1.000  C
  C191     1.0000 0.11537  0.47925  0.31149  Biso   1.000  C
  C192     1.0000 0.84907  0.40328  0.48944  Biso   1.000  C
  C193     1.0000 0.87597  0.97102  0.88963  Biso   1.000  C
  C194     1.0000 0.92831  0.83576  0.00368  Biso   1.000  C
  C195     1.0000 0.03382  0.88719  0.83813  Biso   1.000  C
  C196     1.0000 0.37035  0.98301  0.59943  Biso   1.000  C
  C197     1.0000 0.42444  0.83839  0.49792  Biso   1.000  C
  C198     1.0000 0.53898  0.89784  0.65061  Biso   1.000  C
  C199     1.0000 0.68253  0.50136  0.88770  Biso   1.000  C
  C200     1.0000 0.63199  0.33359  0.98325  Biso   1.000  C
  C201     1.0000 0.52658  0.39151  0.83534  Biso   1.000  C
  C202     1.0000 0.17775  0.48305  0.59445  Biso   1.000  C
  C203     1.0000 0.12995  0.33186  0.49273  Biso   1.000  C
  C204     1.0000 0.01805  0.39314  0.64494  Biso   1.000  C
  C205     1.0000 0.17483  0.98431  0.09485  Biso   1.000  C
  C206     1.0000 0.12731  0.13762  0.99556  Biso   1.000  C
  C207     1.0000 0.01025  0.08571  0.14284  Biso   1.000  C
  C208     1.0000 0.67138  0.98770  0.38616  Biso   1.000  C
  C209     1.0000 0.62607  0.14542  0.49237  Biso   1.000  C
  C210     1.0000 0.52137  0.08398  0.33469  Biso   1.000  C
  C211     1.0000 0.37215  0.47128  0.09687  Biso   1.000  C
  C212     1.0000 0.41391  0.63371  0.98977  Biso   1.000  C
  C213     1.0000 0.51431  0.58448  0.14579  Biso   1.000  C
  C214     1.0000 0.88152  0.47850  0.38667  Biso   1.000  C
  C215     1.0000 0.92608  0.64411  0.47810  Biso   1.000  C
  C216     1.0000 0.02904  0.58052  0.32739  Biso   1.000  C
  C217     1.0000 0.13617  0.00074  0.83868  Biso   1.000  C
  C218     1.0000 0.87138  0.08855  0.98485  Biso   1.000  C
  C219     1.0000 0.01670  0.83110  0.09179  Biso   1.000  C
  C220     1.0000 0.63181  0.00063  0.64426  Biso   1.000  C
  C221     1.0000 0.37022  0.08965  0.49609  Biso   1.000  C
  C222     1.0000 0.52168  0.83169  0.39897  Biso   1.000  C
  C223     1.0000 0.42287  0.48003  0.83901  Biso   1.000  C
  C224     1.0000 0.67545  0.59151  0.99459  Biso   1.000  C
  C225     1.0000 0.53207  0.33242  0.08823  Biso   1.000  C
  C226     1.0000 0.92522  0.50053  0.64433  Biso   1.000  C
  C227     1.0000 0.18454  0.58958  0.49551  Biso   1.000  C
  C228     1.0000 0.01720  0.32830  0.39526  Biso   1.000  C
  C229     1.0000 0.91324  0.97975  0.14706  Biso   1.000  C
  C230     1.0000 0.18312  0.88792  0.99517  Biso   1.000  C
  C231     1.0000 0.02562  0.13879  0.88795  Biso   1.000  C
  C232     1.0000 0.41656  0.98581  0.34289  Biso   1.000  C
  C233     1.0000 0.67739  0.88423  0.48602  Biso   1.000  C
  C234     1.0000 0.51675  0.14867  0.58910  Biso   1.000  C
  C235     1.0000 0.62703  0.49233  0.14459  Biso   1.000  C
  C236     1.0000 0.37418  0.38261  0.98482  Biso   1.000  C
  C237     1.0000 0.52067  0.63812  0.88691  Biso   1.000  C
  C238     1.0000 0.13204  0.48340  0.33864  Biso   1.000  C
  C239     1.0000 0.87645  0.38675  0.49340  Biso   1.000  C
  C240     1.0000 0.02582  0.65020  0.58487  Biso   1.000  C
  C241     1.0000 0.63106  0.50573  0.83336  Biso   1.000  C
  C242     1.0000 0.87449  0.59279  0.48427  Biso   1.000  C
  C243     1.0000 0.54234  0.84354  0.60124  Biso   1.000  C
  C244     1.0000 0.12670  0.47770  0.64360  Biso   1.000  C
  C245     1.0000 0.36277  0.58435  0.99317  Biso   1.000  C
  C246     1.0000 0.03294  0.83328  0.88773  Biso   1.000  C
  C247     1.0000 0.93168  0.97581  0.83738  Biso   1.000  C
  C248     1.0000 0.67527  0.08927  0.49194  Biso   1.000  C
  C249     1.0000 0.02379  0.33811  0.59851  Biso   1.000  C
  C250     1.0000 0.42506  0.99511  0.64856  Biso   1.000  C
  C251     1.0000 0.18189  0.09000  0.00407  Biso   1.000  C
  C252     1.0000 0.53451  0.33721  0.88255  Biso   1.000  C
  C253     1.0000 0.42628  0.47377  0.14870  Biso   1.000  C
  C254     1.0000 0.18297  0.38640  0.49300  Biso   1.000  C
  C255     1.0000 0.52842  0.13505  0.38333  Biso   1.000  C
  C256     1.0000 0.93146  0.47878  0.33324  Biso   1.000  C
  C257     1.0000 0.68310  0.38578  0.98323  Biso   1.000  C
  C258     1.0000 0.01728  0.13706  0.09296  Biso   1.000  C
  C259     1.0000 0.11945  0.98896  0.14488  Biso   1.000  C
  C260     1.0000 0.36790  0.88726  0.50026  Biso   1.000  C
  C261     1.0000 0.02890  0.63192  0.38199  Biso   1.000  C
  C262     1.0000 0.61985  0.98588  0.33130  Biso   1.000  C
  C263     1.0000 0.87372  0.88737  0.00047  Biso   1.000  C
  C264     1.0000 0.50390  0.63522  0.09479  Biso   1.000  C
  C265     1.0000 0.03155  0.08862  0.83406  Biso   1.000  C
  C266     1.0000 0.86688  0.98994  0.09206  Biso   1.000  C
  C267     1.0000 0.13199  0.83622  0.99031  Biso   1.000  C
  C268     1.0000 0.52623  0.09893  0.64197  Biso   1.000  C
  C269     1.0000 0.36738  0.99094  0.39672  Biso   1.000  C
  C270     1.0000 0.62782  0.83167  0.48638  Biso   1.000  C
  C271     1.0000 0.51292  0.59241  0.83298  Biso   1.000  C
  C272     1.0000 0.67549  0.49191  0.09190  Biso   1.000  C
  C273     1.0000 0.42523  0.33298  0.98338  Biso   1.000  C
  C274     1.0000 0.03314  0.59647  0.63804  Biso   1.000  C
  C275     1.0000 0.18355  0.48235  0.38958  Biso   1.000  C
  C276     1.0000 0.92495  0.33413  0.49989  Biso   1.000  C
  C277     1.0000 0.01627  0.88284  0.14921  Biso   1.000  C
  C278     1.0000 0.18737  0.00089  0.89438  Biso   1.000  C
  C279     1.0000 0.92246  0.14075  0.99326  Biso   1.000  C
  C280     1.0000 0.51778  0.87994  0.34411  Biso   1.000  C
  C281     1.0000 0.68468  0.99012  0.59067  Biso   1.000  C
  C282     1.0000 0.42313  0.14052  0.48963  Biso   1.000  C
  C283     1.0000 0.53437  0.38256  0.14388  Biso   1.000  C
  C284     1.0000 0.37003  0.48485  0.89386  Biso   1.000  C
  C285     1.0000 0.62348  0.63903  0.00507  Biso   1.000  C
  C286     1.0000 0.01748  0.37758  0.34039  Biso   1.000  C
  C287     1.0000 0.87510  0.49399  0.59421  Biso   1.000  C
  C288     1.0000 0.13127  0.63966  0.49547  Biso   1.000  C
  C289     1.0000 0.36947  0.85585  0.49576  Biso   1.000  C
  C290     1.0000 0.52982  0.33765  0.85088  Biso   1.000  C
  C291     1.0000 0.90062  0.48011  0.33313  Biso   1.000  C
  C292     1.0000 0.87454  0.85634  0.00213  Biso   1.000  C
  C293     1.0000 0.02338  0.33821  0.63010  Biso   1.000  C
  C294     1.0000 0.39506  0.46714  0.15026  Biso   1.000  C
  C295     1.0000 0.18256  0.35519  0.48913  Biso   1.000  C
  C296     1.0000 0.03262  0.83291  0.85757  Biso   1.000  C
  C297     1.0000 0.65035  0.98157  0.33208  Biso   1.000  C
  C298     1.0000 0.68461  0.35554  0.98317  Biso   1.000  C
  C299     1.0000 0.54432  0.84546  0.63301  Biso   1.000  C
  C300     1.0000 0.15066  0.98648  0.14588  Biso   1.000  C
  C301     1.0000 0.67708  0.12055  0.49168  Biso   1.000  C
  C302     1.0000 0.50631  0.63691  0.12607  Biso   1.000  C
  C303     1.0000 0.15738  0.47773  0.64667  Biso   1.000  C
  C304     1.0000 0.18163  0.12062  0.99934  Biso   1.000  C
  C305     1.0000 0.03330  0.63221  0.35046  Biso   1.000  C
  C306     1.0000 0.66145  0.49971  0.83339  Biso   1.000  C
  C307     1.0000 0.87344  0.62346  0.48126  Biso   1.000  C
  C308     1.0000 0.01444  0.13774  0.12456  Biso   1.000  C
  C309     1.0000 0.39426  0.98798  0.65180  Biso   1.000  C
  C310     1.0000 0.35991  0.61532  0.99501  Biso   1.000  C
  C311     1.0000 0.52690  0.13558  0.35255  Biso   1.000  C
  C312     1.0000 0.89998  0.97288  0.83689  Biso   1.000  C
  C313     1.0000 0.18547  0.47976  0.35850  Biso   1.000  C
  C314     1.0000 0.39190  0.14117  0.49189  Biso   1.000  C
  C315     1.0000 0.53330  0.35013  0.14213  Biso   1.000  C
  C316     1.0000 0.67916  0.49102  0.12287  Biso   1.000  C
  C317     1.0000 0.89228  0.14193  0.98814  Biso   1.000  C
  C318     1.0000 0.01240  0.34656  0.34197  Biso   1.000  C
  C319     1.0000 0.36509  0.99206  0.36500  Biso   1.000  C
  C320     1.0000 0.16313  0.64153  0.49588  Biso   1.000  C
  C321     1.0000 0.01781  0.85149  0.14644  Biso   1.000  C
  C322     1.0000 0.86211  0.98445  0.12311  Biso   1.000  C
  C323     1.0000 0.65550  0.64289  0.00092  Biso   1.000  C
  C324     1.0000 0.52050  0.84815  0.34406  Biso   1.000  C
  C325     1.0000 0.87263  0.49432  0.62622  Biso   1.000  C
  C326     1.0000 0.65877  0.83037  0.48448  Biso   1.000  C
  C327     1.0000 0.51883  0.62288  0.83265  Biso   1.000  C
  C328     1.0000 0.36978  0.47935  0.86209  Biso   1.000  C
  C329     1.0000 0.16408  0.83479  0.99349  Biso   1.000  C
  C330     1.0000 0.03348  0.62864  0.63815  Biso   1.000  C
  C331     1.0000 0.68432  0.99096  0.62211  Biso   1.000  C
  C332     1.0000 0.89379  0.33228  0.49650  Biso   1.000  C
  C333     1.0000 0.03268  0.11996  0.83557  Biso   1.000  C
  C334     1.0000 0.18855  0.99761  0.86273  Biso   1.000  C
  C335     1.0000 0.39452  0.33035  0.98023  Biso   1.000  C
  C336     1.0000 0.52092  0.12953  0.64212  Biso   1.000  C
  C337     1.0000 0.68218  0.49824  0.85589  Biso   1.000  C
  C338     1.0000 0.89487  0.64514  0.48164  Biso   1.000  C
  C339     1.0000 0.54330  0.86725  0.65400  Biso   1.000  C
  C340     1.0000 0.17900  0.47983  0.62650  Biso   1.000  C
  C341     1.0000 0.38354  0.63529  0.99516  Biso   1.000  C
  C342     1.0000 0.03426  0.85528  0.83630  Biso   1.000  C
  C343     1.0000 0.87770  0.97201  0.85840  Biso   1.000  C
  C344     1.0000 0.65645  0.14415  0.49174  Biso   1.000  C
  C345     1.0000 0.02153  0.36171  0.65006  Biso   1.000  C
  C346     1.0000 0.37133  0.98349  0.63076  Biso   1.000  C
  C347     1.0000 0.15912  0.13966  0.99457  Biso   1.000  C
  C348     1.0000 0.52498  0.35980  0.83187  Biso   1.000  C
  C349     1.0000 0.37279  0.46571  0.12759  Biso   1.000  C
  C350     1.0000 0.16091  0.33266  0.48762  Biso   1.000  C
  C351     1.0000 0.52361  0.11454  0.33096  Biso   1.000  C
  C352     1.0000 0.87992  0.47817  0.35591  Biso   1.000  C
  C353     1.0000 0.66387  0.33341  0.98421  Biso   1.000  C
  C354     1.0000 0.01016  0.11627  0.14561  Biso   1.000  C
  C355     1.0000 0.17352  0.98583  0.12604  Biso   1.000  C
  C356     1.0000 0.39251  0.83697  0.49557  Biso   1.000  C
  C357     1.0000 0.03234  0.61137  0.32748  Biso   1.000  C
  C358     1.0000 0.67142  0.98314  0.35386  Biso   1.000  C
  C359     1.0000 0.89728  0.83627  0.00502  Biso   1.000  C
  C360     1.0000 0.50991  0.61503  0.14725  Biso   1.000  C
  C361     1.0000 0.02800  0.14086  0.85612  Biso   1.000  C
  C362     1.0000 0.88167  0.98092  0.14640  Biso   1.000  C
  C363     1.0000 0.18540  0.85690  0.99482  Biso   1.000  C
  C364     1.0000 0.51699  0.14987  0.61975  Biso   1.000  C
  C365     1.0000 0.38568  0.98911  0.34180  Biso   1.000  C
  C366     1.0000 0.67956  0.85300  0.48445  Biso   1.000  C
  C367     1.0000 0.52182  0.64351  0.85503  Biso   1.000  C
  C368     1.0000 0.65856  0.49129  0.14562  Biso   1.000  C
  C369     1.0000 0.37290  0.35125  0.98121  Biso   1.000  C
  C370     1.0000 0.02905  0.64979  0.61714  Biso   1.000  C
  C371     1.0000 0.16322  0.48045  0.33640  Biso   1.000  C
  C372     1.0000 0.87369  0.35443  0.49406  Biso   1.000  C
  C373     1.0000 0.01905  0.83076  0.12332  Biso   1.000  C
  C374     1.0000 0.16700  0.99835  0.84036  Biso   1.000  C
  C375     1.0000 0.87082  0.12073  0.98458  Biso   1.000  C
  C376     1.0000 0.52153  0.82846  0.36702  Biso   1.000  C
  C377     1.0000 0.66282  0.99256  0.64402  Biso   1.000  C
  C378     1.0000 0.37031  0.12099  0.49460  Biso   1.000  C
  C379     1.0000 0.53272  0.32930  0.11969  Biso   1.000  C
  C380     1.0000 0.39187  0.47636  0.84158  Biso   1.000  C
  C381     1.0000 0.67778  0.62227  0.99838  Biso   1.000  C
  C382     1.0000 0.01312  0.32590  0.36398  Biso   1.000  C
  C383     1.0000 0.89414  0.49802  0.64697  Biso   1.000  C
  C384     1.0000 0.18537  0.62053  0.49559  Biso   1.000  C
  C385     1.0000 0.20851  0.13778  0.99751  Biso   1.000  C
  C386     1.0000 0.01128  0.16378  0.14055  Biso   1.000  C
  C387     1.0000 0.16505  0.98614  0.17358  Biso   1.000  C
  C388     1.0000 0.70423  0.13623  0.48963  Biso   1.000  C
  C389     1.0000 0.52720  0.16154  0.33649  Biso   1.000  C
  C390     1.0000 0.66409  0.97735  0.30540  Biso   1.000  C
  C391     1.0000 0.33439  0.63049  0.99892  Biso   1.000  C
  C392     1.0000 0.51110  0.66360  0.14214  Biso   1.000  C
  C393     1.0000 0.38094  0.46333  0.17699  Biso   1.000  C
  C394     1.0000 0.84637  0.63741  0.48132  Biso   1.000  C
  C395     1.0000 0.03450  0.65944  0.33547  Biso   1.000  C
  C396     1.0000 0.88368  0.48012  0.30661  Biso   1.000  C
  C397     1.0000 0.84714  0.83996  0.00240  Biso   1.000  C
  C398     1.0000 0.03141  0.80659  0.84051  Biso   1.000  C
  C399     1.0000 0.88477  0.97433  0.80966  Biso   1.000  C
  C400     1.0000 0.34309  0.83845  0.49338  Biso   1.000  C
  C401     1.0000 0.54558  0.81856  0.64811  Biso   1.000  C
  C402     1.0000 0.38082  0.98639  0.67888  Biso   1.000  C
  C403     1.0000 0.71176  0.34167  0.98325  Biso   1.000  C
  C404     1.0000 0.52467  0.31211  0.83353  Biso   1.000  C
  C405     1.0000 0.67756  0.49766  0.80768  Biso   1.000  C
  C406     1.0000 0.20821  0.33912  0.48482  Biso   1.000  C
  C407     1.0000 0.02483  0.31323  0.64652  Biso   1.000  C
  C408     1.0000 0.17260  0.47350  0.67479  Biso   1.000  C
  C409     1.0000 0.18426  0.99223  0.81545  Biso   1.000  C
  C410     1.0000 0.84543  0.13734  0.97901  Biso   1.000  C
  C411     1.0000 0.02423  0.80325  0.13733  Biso   1.000  C
  C412     1.0000 0.67829  0.98995  0.67075  Biso   1.000  C
  C413     1.0000 0.34213  0.13639  0.49462  Biso   1.000  C
  C414     1.0000 0.52238  0.79955  0.35154  Biso   1.000  C
  C415     1.0000 0.37535  0.46950  0.81486  Biso   1.000  C
  C416     1.0000 0.70518  0.63994  0.99734  Biso   1.000  C
  C417     1.0000 0.53387  0.30146  0.13438  Biso   1.000  C
  C418     1.0000 0.87889  0.49814  0.67420  Biso   1.000  C
  C419     1.0000 0.21307  0.63563  0.49683  Biso   1.000  C
  C420     1.0000 0.01196  0.29913  0.34826  Biso   1.000  C
  C421     1.0000 0.86545  0.98052  0.17206  Biso   1.000  C
  C422     1.0000 0.21145  0.84158  0.99958  Biso   1.000  C
  C423     1.0000 0.02711  0.16853  0.84073  Biso   1.000  C
  C424     1.0000 0.36813  0.99118  0.31532  Biso   1.000  C
  C425     1.0000 0.70689  0.83896  0.48309  Biso   1.000  C
  C426     1.0000 0.51363  0.17679  0.63482  Biso   1.000  C
  C427     1.0000 0.67569  0.49203  0.17192  Biso   1.000  C
  C428     1.0000 0.34593  0.33506  0.97965  Biso   1.000  C
  C429     1.0000 0.52480  0.67171  0.84044  Biso   1.000  C
  C430     1.0000 0.17691  0.47627  0.30981  Biso   1.000  C
  C431     1.0000 0.84574  0.34025  0.48909  Biso   1.000  C
  C432     1.0000 0.02988  0.67645  0.63266  Biso   1.000  C
  C433     1.0000 0.03454  0.13759  0.80878  Biso   1.000  C
  C434     1.0000 0.83483  0.98739  0.13784  Biso   1.000  C
  C435     1.0000 0.17862  0.80907  0.99485  Biso   1.000  C
  C436     1.0000 0.51855  0.14503  0.66999  Biso   1.000  C
  C437     1.0000 0.33718  0.99477  0.34915  Biso   1.000  C
  C438     1.0000 0.67542  0.80420  0.48391  Biso   1.000  C
  C439     1.0000 0.52308  0.63966  0.80681  Biso   1.000  C
  C440     1.0000 0.70652  0.48716  0.13851  Biso   1.000  C
  C441     1.0000 0.37976  0.30373  0.97592  Biso   1.000  C
  C442     1.0000 0.03718  0.64454  0.66478  Biso   1.000  C
  C443     1.0000 0.21151  0.47523  0.34260  Biso   1.000  C
  C444     1.0000 0.87801  0.30656  0.49103  Biso   1.000  C
  C445     1.0000 0.02467  0.83492  0.17255  Biso   1.000  C
  C446     1.0000 0.21590  0.99078  0.84792  Biso   1.000  C
  C447     1.0000 0.87742  0.16911  0.98677  Biso   1.000  C
  C448     1.0000 0.52111  0.83123  0.31761  Biso   1.000  C
  C449     1.0000 0.71090  0.98761  0.63803  Biso   1.000  C
  C450     1.0000 0.37578  0.16794  0.48852  Biso   1.000  C
  C451     1.0000 0.53434  0.33362  0.16828  Biso   1.000  C
  C452     1.0000 0.34196  0.47636  0.84610  Biso   1.000  C
  C453     1.0000 0.67102  0.67052  0.99948  Biso   1.000  C
  C454     1.0000 0.00926  0.32985  0.31423  Biso   1.000  C
  C455     1.0000 0.84559  0.49285  0.64144  Biso   1.000  C
  C456     1.0000 0.18002  0.66779  0.49677  Biso   1.000  C
  C457     1.0000 0.03562  0.62771  0.30146  Biso   1.000  C
  C458     1.0000 0.34680  0.98065  0.64737  Biso   1.000  C
  C459     1.0000 0.67899  0.30752  0.98354  Biso   1.000  C
  C460     1.0000 0.50939  0.63063  0.17580  Biso   1.000  C
  C461     1.0000 0.85072  0.97298  0.84139  Biso   1.000  C
  C462     1.0000 0.17586  0.30534  0.48269  Biso   1.000  C
  C463     1.0000 0.52050  0.12887  0.30345  Biso   1.000  C
  C464     1.0000 0.20546  0.47765  0.64312  Biso   1.000  C
  C465     1.0000 0.88087  0.80947  0.00768  Biso   1.000  C
  C466     1.0000 0.00622  0.13061  0.17230  Biso   1.000  C
  C467     1.0000 0.70806  0.49262  0.84061  Biso   1.000  C
  C468     1.0000 0.37742  0.80887  0.49317  Biso   1.000  C
  C469     1.0000 0.02102  0.34740  0.67816  Biso   1.000  C
  C470     1.0000 0.69740  0.98034  0.33811  Biso   1.000  C
  C471     1.0000 0.36929  0.66174  0.99983  Biso   1.000  C
  C472     1.0000 0.52147  0.34626  0.80475  Biso   1.000  C
  C473     1.0000 0.19863  0.98215  0.14350  Biso   1.000  C
  C474     1.0000 0.87844  0.67021  0.48243  Biso   1.000  C
  C475     1.0000 0.54136  0.85210  0.68159  Biso   1.000  C
  C476     1.0000 0.85214  0.47652  0.34059  Biso   1.000  C
  C477     1.0000 0.17408  0.16692  0.98944  Biso   1.000  C
  C478     1.0000 0.03419  0.83939  0.80878  Biso   1.000  C
  C479     1.0000 0.34648  0.46059  0.14438  Biso   1.000  C
  C480     1.0000 0.67190  0.17132  0.48673  Biso   1.000  C
  C481     1.0000 0.39449  0.78354  0.49493  Biso   1.000  C
  C482     1.0000 0.51842  0.36283  0.77833  Biso   1.000  C
  C483     1.0000 0.82582  0.47348  0.35669  Biso   1.000  C
  C484     1.0000 0.89555  0.78182  0.00692  Biso   1.000  C
  C485     1.0000 0.01393  0.36425  0.70428  Biso   1.000  C
  C486     1.0000 0.31860  0.45687  0.12797  Biso   1.000  C
  C487     1.0000 0.15943  0.27786  0.48347  Biso   1.000  C
  C488     1.0000 0.03523  0.85479  0.78226  Biso   1.000  C
  C489     1.0000 0.72526  0.98542  0.35235  Biso   1.000  C
  C490     1.0000 0.66314  0.27997  0.98645  Biso   1.000  C
  C491     1.0000 0.54198  0.86943  0.70869  Biso   1.000  C
  C492     1.0000 0.22604  0.97674  0.13056  Biso   1.000  C
  C493     1.0000 0.65771  0.20045  0.48395  Biso   1.000  C
  C494     1.0000 0.51447  0.61501  0.20209  Biso   1.000  C
  C495     1.0000 0.23339  0.48236  0.63050  Biso   1.000  C
  C496     1.0000 0.15809  0.19340  0.98572  Biso   1.000  C
  C497     1.0000 0.03524  0.61196  0.27467  Biso   1.000  C
  C498     1.0000 0.73571  0.48853  0.85674  Biso   1.000  C
  C499     1.0000 0.89384  0.69791  0.48566  Biso   1.000  C
  C500     1.0000 0.99973  0.11474  0.19907  Biso   1.000  C
  C501     1.0000 0.31855  0.97294  0.63190  Biso   1.000  C
  C502     1.0000 0.38687  0.68801  0.00206  Biso   1.000  C
  C503     1.0000 0.51558  0.11065  0.27589  Biso   1.000  C
  C504     1.0000 0.82301  0.97220  0.85609  Biso   1.000  C
  C505     1.0000 0.66200  0.49865  0.78136  Biso   1.000  C
  C506     1.0000 0.81950  0.62032  0.47904  Biso   1.000  C
  C507     1.0000 0.54449  0.79049  0.63467  Biso   1.000  C
  C508     1.0000 0.15412  0.46929  0.69969  Biso   1.000  C
  C509     1.0000 0.30731  0.61377  0.00124  Biso   1.000  C
  C510     1.0000 0.02656  0.77929  0.85653  Biso   1.000  C
  C511     1.0000 0.89957  0.97866  0.78228  Biso   1.000  C
  C512     1.0000 0.73098  0.12110  0.49074  Biso   1.000  C
  C513     1.0000 0.02808  0.28570  0.63297  Biso   1.000  C
  C514     1.0000 0.39800  0.99120  0.70553  Biso   1.000  C
  C515     1.0000 0.23584  0.12239  0.99579  Biso   1.000  C
  C516     1.0000 0.52609  0.28357  0.84684  Biso   1.000  C
  C517     1.0000 0.39763  0.46209  0.20308  Biso   1.000  C
  C518     1.0000 0.23648  0.35519  0.48277  Biso   1.000  C
  C519     1.0000 0.53539  0.18757  0.35320  Biso   1.000  C
  C520     1.0000 0.89690  0.48123  0.27811  Biso   1.000  C
  C521     1.0000 0.73816  0.35868  0.98045  Biso   1.000  C
  C522     1.0000 0.01677  0.19178  0.12616  Biso   1.000  C
  C523     1.0000 0.14884  0.99009  0.19962  Biso   1.000  C
  C524     1.0000 0.31501  0.85260  0.49203  Biso   1.000  C
  C525     1.0000 0.03283  0.68688  0.34961  Biso   1.000  C
  C526     1.0000 0.64697  0.97363  0.27799  Biso   1.000  C
  C527     1.0000 0.81988  0.85462  0.00062  Biso   1.000  C
  C528     1.0000 0.51304  0.69092  0.12676  Biso   1.000  C
  C529     1.0000 0.81843  0.12086  0.97452  Biso   1.000  C
  C530     1.0000 0.02961  0.77829  0.12002  Biso   1.000  C
  C531     1.0000 0.16959  0.99308  0.78660  Biso   1.000  C
  C532     1.0000 0.31498  0.12087  0.49682  Biso   1.000  C
  C533     1.0000 0.52472  0.77384  0.36959  Biso   1.000  C
  C534     1.0000 0.66395  0.98909  0.69893  Biso   1.000  C
  C535     1.0000 0.73221  0.62382  0.99107  Biso   1.000  C
  C536     1.0000 0.53275  0.27545  0.11657  Biso   1.000  C
  C537     1.0000 0.39199  0.46460  0.78872  Biso   1.000  C
  C538     1.0000 0.23996  0.61902  0.49592  Biso   1.000  C
  C539     1.0000 0.01686  0.27223  0.36415  Biso   1.000  C
  C540     1.0000 0.89461  0.50491  0.70056  Biso   1.000  C
  C541     1.0000 0.23732  0.85781  0.00778  Biso   1.000  C
  C542     1.0000 0.02823  0.19642  0.85779  Biso   1.000  C
  C543     1.0000 0.87979  0.97615  0.20032  Biso   1.000  C
  C544     1.0000 0.73234  0.85693  0.48137  Biso   1.000  C
  C545     1.0000 0.50881  0.20482  0.61966  Biso   1.000  C
  C546     1.0000 0.38349  0.98699  0.28609  Biso   1.000  C
  C547     1.0000 0.31916  0.35027  0.98428  Biso   1.000  C
  C548     1.0000 0.52912  0.69707  0.85866  Biso   1.000  C
  C549     1.0000 0.66125  0.49438  0.19888  Biso   1.000  C
  C550     1.0000 0.82027  0.35806  0.48451  Biso   1.000  C
  C551     1.0000 0.02771  0.70344  0.61718  Biso   1.000  C
  C552     1.0000 0.16068  0.47506  0.28299  Biso   1.000  C
  C553     1.0000 0.03585  0.12208  0.78124  Biso   1.000  C
  C554     1.0000 0.81117  0.99743  0.12062  Biso   1.000  C
  C555     1.0000 0.16082  0.78178  0.98910  Biso   1.000  C
  C556     1.0000 0.52455  0.12919  0.69610  Biso   1.000  C
  C557     1.0000 0.31139  0.99830  0.36674  Biso   1.000  C
  C558     1.0000 0.65936  0.77698  0.48534  Biso   1.000  C
  C559     1.0000 0.52161  0.62579  0.77889  Biso   1.000  C
  C560     1.0000 0.73206  0.48509  0.12183  Biso   1.000  C
  C561     1.0000 0.39642  0.27801  0.97449  Biso   1.000  C
  C562     1.0000 0.03985  0.62640  0.69203  Biso   1.000  C
  C563     1.0000 0.23932  0.47591  0.35994  Biso   1.000  C
  C564     1.0000 0.89419  0.27943  0.49294  Biso   1.000  C
  C565     1.0000 0.02753  0.85020  0.19988  Biso   1.000  C
  C566     1.0000 0.24291  0.98579  0.86391  Biso   1.000  C
  C567     1.0000 0.89341  0.19674  0.98924  Biso   1.000  C
  C568     1.0000 0.52093  0.84699  0.28979  Biso   1.000  C
  C569     1.0000 0.73944  0.98759  0.62345  Biso   1.000  C
  C570     1.0000 0.39098  0.19523  0.48192  Biso   1.000  C
  C571     1.0000 0.53528  0.34823  0.19708  Biso   1.000  C
  C572     1.0000 0.31577  0.48105  0.86172  Biso   1.000  C
  C573     1.0000 0.65247  0.69765  0.00104  Biso   1.000  C
  C574     1.0000 0.00602  0.34645  0.28591  Biso   1.000  C
  C575     1.0000 0.81954  0.48771  0.62308  Biso   1.000  C
  C576     1.0000 0.16381  0.69473  0.49706  Biso   1.000  C
  C577     1.0000 0.31776  0.46376  0.09762  Biso   1.000  C
  C578     1.0000 0.12936  0.27797  0.48971  Biso   1.000  C
  C579     1.0000 0.51348  0.08004  0.27830  Biso   1.000  C
  C580     1.0000 0.82783  0.47248  0.38823  Biso   1.000  C
  C581     1.0000 0.63183  0.28024  0.98857  Biso   1.000  C
  C582     1.0000 0.99928  0.08422  0.19673  Biso   1.000  C
  C583     1.0000 0.22922  0.97518  0.09809  Biso   1.000  C
  C584     1.0000 0.42652  0.78522  0.49744  Biso   1.000  C
  C585     1.0000 0.03261  0.58023  0.27406  Biso   1.000  C
  C586     1.0000 0.72575  0.99147  0.38318  Biso   1.000  C
  C587     1.0000 0.92614  0.78183  0.00582  Biso   1.000  C
  C588     1.0000 0.52268  0.58527  0.19897  Biso   1.000  C
  C589     1.0000 0.73555  0.48809  0.88877  Biso   1.000  C
  C590     1.0000 0.92647  0.69859  0.48397  Biso   1.000  C
  C591     1.0000 0.53890  0.90136  0.70710  Biso   1.000  C
  C592     1.0000 0.23267  0.48624  0.59774  Biso   1.000  C
  C593     1.0000 0.41784  0.68788  0.99905  Biso   1.000  C
  C594     1.0000 0.03470  0.88687  0.78356  Biso   1.000  C
  C595     1.0000 0.82250  0.97272  0.88773  Biso   1.000  C
  C596     1.0000 0.62603  0.19996  0.48950  Biso   1.000  C
  C597     1.0000 0.01313  0.39522  0.70030  Biso   1.000  C
  C598     1.0000 0.31732  0.97371  0.60019  Biso   1.000  C
  C599     1.0000 0.12723  0.19373  0.98735  Biso   1.000  C
  C600     1.0000 0.52121  0.39367  0.78103  Biso   1.000  C
  C601     1.0000 0.24299  0.99149  0.89455  Biso   1.000  C
  C602     1.0000 0.92476  0.19554  0.99201  Biso   1.000  C
  C603     1.0000 0.02210  0.88060  0.20211  Biso   1.000  C
  C604     1.0000 0.73974  0.98756  0.59116  Biso   1.000  C
  C605     1.0000 0.42294  0.19388  0.48018  Biso   1.000  C
  C606     1.0000 0.52109  0.87831  0.28886  Biso   1.000  C
  C607     1.0000 0.31633  0.48720  0.89389  Biso   1.000  C
  C608     1.0000 0.62096  0.69465  0.99911  Biso   1.000  C
  C609     1.0000 0.53383  0.37947  0.19889  Biso   1.000  C
  C610     1.0000 0.82068  0.48913  0.59034  Biso   1.000  C
  C611     1.0000 0.13123  0.69453  0.49343  Biso   1.000  C
  C612     1.0000 0.01092  0.37762  0.28723  Biso   1.000  C
  C613     1.0000 0.81408  0.99940  0.08921  Biso   1.000  C
  C614     1.0000 0.13062  0.78217  0.98580  Biso   1.000  C
  C615     1.0000 0.03611  0.09033  0.77882  Biso   1.000  C
  C616     1.0000 0.31392  0.99698  0.39690  Biso   1.000  C
  C617     1.0000 0.62648  0.77652  0.48742  Biso   1.000  C
  C618     1.0000 0.52745  0.09894  0.69649  Biso   1.000  C
  C619     1.0000 0.72914  0.48651  0.09012  Biso   1.000  C
  C620     1.0000 0.42803  0.27884  0.97737  Biso   1.000  C
  C621     1.0000 0.51630  0.59447  0.77837  Biso   1.000  C
  C622     1.0000 0.23748  0.48062  0.39089  Biso   1.000  C
  C623     1.0000 0.92534  0.27909  0.49704  Biso   1.000  C
  C624     1.0000 0.04205  0.59520  0.69243  Biso   1.000  C
  C625     1.0000 0.02817  0.19407  0.88935  Biso   1.000  C
  C626     1.0000 0.91150  0.97304  0.20063  Biso   1.000  C
  C627     1.0000 0.23721  0.88936  0.00765  Biso   1.000  C
  C628     1.0000 0.50952  0.20425  0.58884  Biso   1.000  C
  C629     1.0000 0.41449  0.98063  0.28861  Biso   1.000  C
  C630     1.0000 0.73107  0.88846  0.48009  Biso   1.000  C
  C631     1.0000 0.52861  0.69488  0.89001  Biso   1.000  C
  C632     1.0000 0.63042  0.49538  0.20047  Biso   1.000  C
  C633     1.0000 0.32038  0.38165  0.98945  Biso   1.000  C
  C634     1.0000 0.02498  0.70468  0.58481  Biso   1.000  C
  C635     1.0000 0.12967  0.47420  0.28489  Biso   1.000  C
  C636     1.0000 0.82119  0.39020  0.48501  Biso   1.000  C
  C637     1.0000 0.03096  0.77848  0.08936  Biso   1.000  C
  C638     1.0000 0.13847  0.99695  0.78465  Biso   1.000  C
  C639     1.0000 0.81777  0.08948  0.97749  Biso   1.000  C
  C640     1.0000 0.52223  0.77669  0.40117  Biso   1.000  C
  C641     1.0000 0.63306  0.99149  0.69800  Biso   1.000  C
  C642     1.0000 0.31685  0.08937  0.50147  Biso   1.000  C
  C643     1.0000 0.53319  0.27740  0.08576  Biso   1.000  C
  C644     1.0000 0.42351  0.46747  0.78606  Biso   1.000  C
  C645     1.0000 0.73147  0.59263  0.98730  Biso   1.000  C
  C646     1.0000 0.02191  0.27454  0.39580  Biso   1.000  C
  C647     1.0000 0.92715  0.50859  0.69942  Biso   1.000  C
  C648     1.0000 0.23975  0.58900  0.49712  Biso   1.000  C
  C649     1.0000 0.03323  0.68673  0.38154  Biso   1.000  C
  C650     1.0000 0.42923  0.99611  0.70428  Biso   1.000  C
  C651     1.0000 0.73637  0.39012  0.98468  Biso   1.000  C
  C652     1.0000 0.51301  0.69005  0.09588  Biso   1.000  C
  C653     1.0000 0.93141  0.97889  0.78223  Biso   1.000  C
  C654     1.0000 0.23760  0.38647  0.48693  Biso   1.000  C
  C655     1.0000 0.53811  0.18739  0.38470  Biso   1.000  C
  C656     1.0000 0.12251  0.47143  0.69700  Biso   1.000  C
  C657     1.0000 0.81844  0.88574  0.99731  Biso   1.000  C
  C658     1.0000 0.02082  0.19239  0.09516  Biso   1.000  C
  C659     1.0000 0.63057  0.50062  0.77952  Biso   1.000  C
  C660     1.0000 0.31373  0.88464  0.49377  Biso   1.000  C
  C661     1.0000 0.02934  0.28469  0.60158  Biso   1.000  C
  C662     1.0000 0.61648  0.97601  0.27874  Biso   1.000  C
  C663     1.0000 0.30724  0.58261  0.00243  Biso   1.000  C
  C664     1.0000 0.53076  0.28241  0.87837  Biso   1.000  C
  C665     1.0000 0.11722  0.99240  0.19887  Biso   1.000  C
  C666     1.0000 0.81999  0.58841  0.48048  Biso   1.000  C
  C667     1.0000 0.54297  0.78879  0.60325  Biso   1.000  C
  C668     1.0000 0.92871  0.47895  0.27796  Biso   1.000  C
  C669     1.0000 0.23785  0.09105  0.99931  Biso   1.000  C
  C670     1.0000 0.02517  0.77926  0.88791  Biso   1.000  C
  C671     1.0000 0.42945  0.46592  0.20226  Biso   1.000  C
  C672     1.0000 0.73086  0.09045  0.49410  Biso   1.000  C
  C673     1.0000 0.22784  0.98254  0.80053  Biso   1.000  C
  C674     1.0000 0.83286  0.18386  0.98163  Biso   1.000  C
  C675     1.0000 0.02944  0.78704  0.18198  Biso   1.000  C
  C676     1.0000 0.72259  0.98253  0.68667  Biso   1.000  C
  C677     1.0000 0.33065  0.18353  0.48932  Biso   1.000  C
  C678     1.0000 0.51859  0.78379  0.30436  Biso   1.000  C
  C679     1.0000 0.32952  0.46830  0.79919  Biso   1.000  C
  C680     1.0000 0.71877  0.68620  0.00039  Biso   1.000  C
  C681     1.0000 0.53581  0.28571  0.18164  Biso   1.000  C
  C682     1.0000 0.83292  0.49313  0.68903  Biso   1.000  C
  C683     1.0000 0.22793  0.68195  0.49704  Biso   1.000  C
  C684     1.0000 0.00627  0.28273  0.30077  Biso   1.000  C
  C685     1.0000 0.81780  0.98042  0.18215  Biso   1.000  C
  C686     1.0000 0.22417  0.79475  0.00145  Biso   1.000  C
  C687     1.0000 0.03313  0.18611  0.79617  Biso   1.000  C
  C688     1.0000 0.32102  0.99454  0.30186  Biso   1.000  C
  C689     1.0000 0.72203  0.79180  0.48014  Biso   1.000  C
  C690     1.0000 0.51597  0.19011  0.68350  Biso   1.000  C
  C691     1.0000 0.72297  0.48718  0.18534  Biso   1.000  C
  C692     1.0000 0.33376  0.28904  0.97154  Biso   1.000  C
  C693     1.0000 0.52634  0.68746  0.79342  Biso   1.000  C
  C694     1.0000 0.22414  0.47240  0.29606  Biso   1.000  C
  C695     1.0000 0.83189  0.29410  0.48837  Biso   1.000  C
  C696     1.0000 0.03493  0.69104  0.67758  Biso   1.000  C
  C697     1.0000 0.71014  0.97570  0.29193  Biso   1.000  C
  C698     1.0000 0.32491  0.67848  0.00150  Biso   1.000  C
  C699     1.0000 0.02391  0.30023  0.69373  Biso   1.000  C
  C700     1.0000 0.21027  0.98614  0.19067  Biso   1.000  C
  C701     1.0000 0.83088  0.68388  0.47900  Biso   1.000  C
  C702     1.0000 0.51787  0.30091  0.78837  Biso   1.000  C
  C703     1.0000 0.83550  0.47728  0.29334  Biso   1.000  C
  C704     1.0000 0.22060  0.18423  0.98679  Biso   1.000  C
  C705     1.0000 0.54477  0.80476  0.69417  Biso   1.000  C
  C706     1.0000 0.33626  0.46231  0.19291  Biso   1.000  C
  C707     1.0000 0.72000  0.18318  0.48580  Biso   1.000  C
  C708     1.0000 0.03184  0.79187  0.79445  Biso   1.000  C
  C709     1.0000 0.33216  0.97991  0.69235  Biso   1.000  C
  C710     1.0000 0.72603  0.29489  0.98406  Biso   1.000  C
  C711     1.0000 0.03911  0.67443  0.28834  Biso   1.000  C
  C712     1.0000 0.83848  0.97608  0.79343  Biso   1.000  C
  C713     1.0000 0.22215  0.29327  0.48175  Biso   1.000  C
  C714     1.0000 0.51146  0.67652  0.19041  Biso   1.000  C
  C715     1.0000 0.21983  0.47114  0.68910  Biso   1.000  C
  C716     1.0000 0.83406  0.79361  0.00603  Biso   1.000  C
  C717     1.0000 0.52830  0.17325  0.28789  Biso   1.000  C
  C718     1.0000 0.72496  0.49182  0.79507  Biso   1.000  C
  C719     1.0000 0.33064  0.79268  0.49297  Biso   1.000  C
  C720     1.0000 0.00719  0.17633  0.18833  Biso   1.000  C
  C721     1.0000 0.53547  0.78584  0.27805  Biso   1.000  C
  C722     1.0000 0.33450  0.47792  0.76984  Biso   1.000  C
  C723     1.0000 0.80259  0.29734  0.50019  Biso   1.000  C
  C724     1.0000 0.01595  0.75841  0.17697  Biso   1.000  C
  C725     1.0000 0.80313  0.50273  0.68316  Biso   1.000  C
  C726     1.0000 0.30575  0.29445  0.95931  Biso   1.000  C
  C727     1.0000 0.99310  0.25502  0.30554  Biso   1.000  C
  C728     1.0000 0.25745  0.99488  0.80278  Biso   1.000  C
  C729     1.0000 0.75033  0.79692  0.49388  Biso   1.000  C
  C730     1.0000 0.52034  0.28719  0.20937  Biso   1.000  C
  C731     1.0000 0.74781  0.96423  0.68412  Biso   1.000  C
  C732     1.0000 0.25337  0.79644  0.98991  Biso   1.000  C
  C733     1.0000 0.50182  0.18435  0.71120  Biso   1.000  C
  C734     1.0000 0.71971  0.47033  0.21300  Biso   1.000  C
  C735     1.0000 0.22302  0.70924  0.48176  Biso   1.000  C
  C736     1.0000 0.01170  0.21015  0.79969  Biso   1.000  C
  C737     1.0000 0.25102  0.45494  0.30228  Biso   1.000  C
  C738     1.0000 0.74753  0.68021  0.01503  Biso   1.000  C
  C739     1.0000 0.05635  0.69105  0.70110  Biso   1.000  C
  C740     1.0000 0.78787  0.96920  0.17350  Biso   1.000  C
  C741     1.0000 0.30468  0.17801  0.47339  Biso   1.000  C
  C742     1.0000 0.53970  0.68522  0.76429  Biso   1.000  C
  C743     1.0000 0.29228  0.98079  0.30712  Biso   1.000  C
  C744     1.0000 0.83342  0.20684  0.00408  Biso   1.000  C
  C745     1.0000 0.05619  0.70175  0.28917  Biso   1.000  C
  C746     1.0000 0.30305  0.99067  0.68912  Biso   1.000  C
  C747     1.0000 0.75335  0.29906  0.99892  Biso   1.000  C
  C748     1.0000 0.52968  0.70225  0.18808  Biso   1.000  C
  C749     1.0000 0.84029  0.96164  0.76553  Biso   1.000  C
  C750     1.0000 0.24771  0.29532  0.50041  Biso   1.000  C
  C751     1.0000 0.54132  0.16764  0.26028  Biso   1.000  C
  C752     1.0000 0.24558  0.45457  0.68201  Biso   1.000  C
  C753     1.0000 0.81071  0.79276  0.98351  Biso   1.000  C
  C754     1.0000 0.01434  0.16876  0.21904  Biso   1.000  C
  C755     1.0000 0.71913  0.47555  0.76598  Biso   1.000  C
  C756     1.0000 0.30621  0.79325  0.51209  Biso   1.000  C
  C757     1.0000 0.00820  0.27308  0.68950  Biso   1.000  C
  C758     1.0000 0.70684  0.99128  0.26506  Biso   1.000  C
  C759     1.0000 0.30115  0.67693  0.02080  Biso   1.000  C
  C760     1.0000 0.54159  0.29771  0.76815  Biso   1.000  C
  C761     1.0000 0.23677  0.00284  0.18597  Biso   1.000  C
  C762     1.0000 0.83828  0.71283  0.46567  Biso   1.000  C
  C763     1.0000 0.52489  0.80739  0.71680  Biso   1.000  C
  C764     1.0000 0.80780  0.48951  0.30026  Biso   1.000  C
  C765     1.0000 0.24511  0.18612  0.00682  Biso   1.000  C
  C766     1.0000 0.01767  0.79793  0.76625  Biso   1.000  C
  C767     1.0000 0.34104  0.48240  0.21864  Biso   1.000  C
  C768     1.0000 0.71859  0.20728  0.46577  Biso   1.000  C
  C769     1.0000 0.51169  0.71517  0.79902  Biso   1.000  C
  C770     1.0000 0.83955  0.48200  0.71835  Biso   1.000  C
  C771     1.0000 0.71802  0.76362  0.46574  Biso   1.000  C
  C772     1.0000 0.01188  0.71420  0.67976  Biso   1.000  C
  C773     1.0000 0.30071  0.45392  0.80458  Biso   1.000  C
  C774     1.0000 0.21531  0.76635  0.01515  Biso   1.000  C
  C775     1.0000 0.05280  0.18838  0.77020  Biso   1.000  C
  C776     1.0000 0.72374  0.99991  0.71284  Biso   1.000  C
  C777     1.0000 0.83712  0.26512  0.47394  Biso   1.000  C
  C778     1.0000 0.53085  0.21760  0.68022  Biso   1.000  C
  C779     1.0000 0.22010  0.96570  0.77438  Biso   1.000  C
  C780     1.0000 0.33926  0.26139  0.98468  Biso   1.000  C
  C781     1.0000 0.54955  0.25854  0.17635  Biso   1.000  C
  C782     1.0000 0.22196  0.48916  0.27033  Biso   1.000  C
  C783     1.0000 0.33428  0.21401  0.50055  Biso   1.000  C
  C784     1.0000 0.01841  0.28869  0.27152  Biso   1.000  C
  C785     1.0000 0.75247  0.49874  0.18272  Biso   1.000  C
  C786     1.0000 0.80634  0.18353  0.96412  Biso   1.000  C
  C787     1.0000 0.04636  0.78907  0.20889  Biso   1.000  C
  C788     1.0000 0.32452  0.00688  0.27239  Biso   1.000  C
  C789     1.0000 0.25560  0.67620  0.51176  Biso   1.000  C
  C790     1.0000 0.50078  0.75672  0.30682  Biso   1.000  C
  C791     1.0000 0.82102  0.98967  0.21183  Biso   1.000  C
  C792     1.0000 0.71645  0.71345  0.98527  Biso   1.000  C
  C793     1.0000 0.51801  0.20230  0.29196  Biso   1.000  C
  C794     1.0000 0.30926  0.44590  0.19259  Biso   1.000  C
  C795     1.0000 0.21975  0.26758  0.46222  Biso   1.000  C
  C796     1.0000 0.99555  0.20649  0.18286  Biso   1.000  C
  C797     1.0000 0.83803  0.46577  0.26344  Biso   1.000  C
  C798     1.0000 0.72293  0.26765  0.96781  Biso   1.000  C
  C799     1.0000 0.02118  0.66999  0.26427  Biso   1.000  C
  C800     1.0000 0.20756  0.97085  0.21747  Biso   1.000  C
  C801     1.0000 0.33605  0.76663  0.47628  Biso   1.000  C
  C802     1.0000 0.49537  0.67134  0.21713  Biso   1.000  C
  C803     1.0000 0.73629  0.96050  0.29553  Biso   1.000  C
  C804     1.0000 0.83447  0.76816  0.02547  Biso   1.000  C
  C805     1.0000 0.56364  0.77912  0.69503  Biso   1.000  C
  C806     1.0000 0.75397  0.50491  0.80061  Biso   1.000  C
  C807     1.0000 0.80211  0.67994  0.49197  Biso   1.000  C
  C808     1.0000 0.04638  0.76348  0.79918  Biso   1.000  C
  C809     1.0000 0.21632  0.48130  0.71949  Biso   1.000  C
  C810     1.0000 0.32693  0.70342  0.98128  Biso   1.000  C
  C811     1.0000 0.04339  0.30306  0.72032  Biso   1.000  C
  C812     1.0000 0.81410  0.99481  0.79886  Biso   1.000  C
  C813     1.0000 0.74677  0.17978  0.50336  Biso   1.000  C
  C814     1.0000 0.49647  0.27800  0.78976  Biso   1.000  C
  C815     1.0000 0.33898  0.96284  0.71930  Biso   1.000  C
  C816     1.0000 0.21856  0.20428  0.96273  Biso   1.000  C
  C817     1.0000 0.01324  0.23386  0.78163  Biso   1.000  C
  C818     1.0000 0.76678  0.96590  0.19482  Biso   1.000  C
  C819     1.0000 0.27278  0.77439  0.99455  Biso   1.000  C
  C820     1.0000 0.50549  0.20423  0.73373  Biso   1.000  C
  C821     1.0000 0.26995  0.98061  0.28535  Biso   1.000  C
  C822     1.0000 0.77263  0.77607  0.49037  Biso   1.000  C
  C823     1.0000 0.54310  0.70837  0.74629  Biso   1.000  C
  C824     1.0000 0.74104  0.46856  0.23378  Biso   1.000  C
  C825     1.0000 0.28304  0.27470  0.96101  Biso   1.000  C
  C826     1.0000 0.05498  0.71177  0.72251  Biso   1.000  C
  C827     1.0000 0.27299  0.45641  0.28154  Biso   1.000  C
  C828     1.0000 0.78294  0.27475  0.49833  Biso   1.000  C
  C829     1.0000 0.01861  0.73670  0.19652  Biso   1.000  C
  C830     1.0000 0.27781  0.98770  0.78185  Biso   1.000  C
  C831     1.0000 0.81353  0.22794  0.00698  Biso   1.000  C
  C832     1.0000 0.53249  0.76585  0.25505  Biso   1.000  C
  C833     1.0000 0.77128  0.96403  0.70292  Biso   1.000  C
  C834     1.0000 0.28284  0.19789  0.47208  Biso   1.000  C
  C835     1.0000 0.52004  0.26505  0.22823  Biso   1.000  C
  C836     1.0000 0.31305  0.47468  0.74802  Biso   1.000  C
  C837     1.0000 0.76866  0.70120  0.01424  Biso   1.000  C
  C838     1.0000 0.99052  0.23477  0.28274  Biso   1.000  C
  C839     1.0000 0.78196  0.50159  0.70412  Biso   1.000  C
  C840     1.0000 0.24625  0.72747  0.47875  Biso   1.000  C
  C841     1.0000 0.24198  0.95783  0.75492  Biso   1.000  C
  C842     1.0000 0.78808  0.20698  0.96521  Biso   1.000  C
  C843     1.0000 0.04988  0.76699  0.22792  Biso   1.000  C
  C844     1.0000 0.74605  0.99774  0.73270  Biso   1.000  C
  C845     1.0000 0.31245  0.23409  0.49630  Biso   1.000  C
  C846     1.0000 0.49976  0.73674  0.28524  Biso   1.000  C
  C847     1.0000 0.28114  0.45114  0.78104  Biso   1.000  C
  C848     1.0000 0.73997  0.73318  0.98557  Biso   1.000  C
  C849     1.0000 0.54921  0.23583  0.19670  Biso   1.000  C
  C850     1.0000 0.81603  0.47746  0.73696  Biso   1.000  C
  C851     1.0000 0.27849  0.69556  0.50861  Biso   1.000  C
  C852     1.0000 0.01757  0.26680  0.25085  Biso   1.000  C
  C853     1.0000 0.79871  0.98650  0.23139  Biso   1.000  C
  C854     1.0000 0.23485  0.74357  0.01576  Biso   1.000  C
  C855     1.0000 0.05108  0.21065  0.75023  Biso   1.000  C
  C856     1.0000 0.30133  0.00639  0.25244  Biso   1.000  C
  C857     1.0000 0.73930  0.74288  0.46664  Biso   1.000  C
  C858     1.0000 0.53176  0.23680  0.70219  Biso   1.000  C
  C859     1.0000 0.77297  0.49629  0.20408  Biso   1.000  C
  C860     1.0000 0.31703  0.24135  0.98497  Biso   1.000  C
  C861     1.0000 0.51409  0.73790  0.78052  Biso   1.000  C
  C862     1.0000 0.24617  0.48948  0.25193  Biso   1.000  C
  C863     1.0000 0.81550  0.24324  0.47268  Biso   1.000  C
  C864     1.0000 0.01033  0.73183  0.70376  Biso   1.000  C
  C865     1.0000 0.74071  0.47479  0.74658  Biso   1.000  C
  C866     1.0000 0.81574  0.73315  0.46583  Biso   1.000  C
  C867     1.0000 0.52204  0.78740  0.73824  Biso   1.000  C
  C868     1.0000 0.26777  0.45316  0.70302  Biso   1.000  C
  C869     1.0000 0.28216  0.70069  0.02295  Biso   1.000  C
  C870     1.0000 0.01547  0.77752  0.74449  Biso   1.000  C
  C871     1.0000 0.81719  0.96262  0.74450  Biso   1.000  C
  C872     1.0000 0.74197  0.22797  0.46447  Biso   1.000  C
  C873     1.0000 0.01169  0.25172  0.71015  Biso   1.000  C
  C874     1.0000 0.28204  0.98466  0.70972  Biso   1.000  C
  C875     1.0000 0.26704  0.20638  0.00110  Biso   1.000  C
  C876     1.0000 0.54178  0.27458  0.74940  Biso   1.000  C
  C877     1.0000 0.31862  0.48487  0.23805  Biso   1.000  C
  C878     1.0000 0.26848  0.27458  0.49873  Biso   1.000  C
  C879     1.0000 0.54417  0.18951  0.23940  Biso   1.000  C
  C880     1.0000 0.78509  0.48980  0.28127  Biso   1.000  C
  C881     1.0000 0.77446  0.27792  0.99959  Biso   1.000  C
  C882     1.0000 0.00899  0.19084  0.24151  Biso   1.000  C
  C883     1.0000 0.25701  0.00635  0.20923  Biso   1.000  C
  C884     1.0000 0.28745  0.77021  0.51210  Biso   1.000  C
  C885     1.0000 0.05581  0.72256  0.26772  Biso   1.000  C
  C886     1.0000 0.72679  0.99034  0.24272  Biso   1.000  C
  C887     1.0000 0.79012  0.77083  0.98304  Biso   1.000  C
  C888     1.0000 0.53222  0.72033  0.21240  Biso   1.000  C
  C889     1.0000 0.75666  0.95868  0.27242  Biso   1.000  C
  C890     1.0000 0.30628  0.72477  0.98316  Biso   1.000  C
  C891     1.0000 0.04430  0.28146  0.74195  Biso   1.000  C
  C892     1.0000 0.22686  0.97452  0.24004  Biso   1.000  C
  C893     1.0000 0.78122  0.70010  0.48941  Biso   1.000  C
  C894     1.0000 0.49661  0.25634  0.77032  Biso   1.000  C
  C895     1.0000 0.81630  0.46957  0.24413  Biso   1.000  C
  C896     1.0000 0.23939  0.22750  0.96141  Biso   1.000  C
  C897     1.0000 0.55834  0.75771  0.71579  Biso   1.000  C
  C898     1.0000 0.28827  0.45027  0.21288  Biso   1.000  C
  C899     1.0000 0.76806  0.20211  0.50215  Biso   1.000  C
  C900     1.0000 0.04614  0.74475  0.77514  Biso   1.000  C
  C901     1.0000 0.31651  0.95678  0.73834  Biso   1.000  C
  C902     1.0000 0.74447  0.24723  0.97118  Biso   1.000  C
  C903     1.0000 0.02123  0.69062  0.24328  Biso   1.000  C
  C904     1.0000 0.79127  0.99442  0.77773  Biso   1.000  C
  C905     1.0000 0.24004  0.24529  0.46436  Biso   1.000  C
  C906     1.0000 0.49808  0.69194  0.24140  Biso   1.000  C
  C907     1.0000 0.23845  0.47564  0.73967  Biso   1.000  C
  C908     1.0000 0.81212  0.74709  0.02172  Biso   1.000  C
  C909     1.0000 0.51972  0.22306  0.27093  Biso   1.000  C
  C910     1.0000 0.77308  0.50331  0.77896  Biso   1.000  C
  C911     1.0000 0.31786  0.74309  0.47847  Biso   1.000  C
  C912     1.0000 0.99674  0.22623  0.20575  Biso   1.000  C
  C913     1.0000 0.78917  0.48805  0.73058  Biso   1.000  C
  C914     1.0000 0.76549  0.74984  0.47730  Biso   1.000  C
  C915     1.0000 0.53106  0.73484  0.75554  Biso   1.000  C
  C916     1.0000 0.28679  0.46034  0.75321  Biso   1.000  C
  C917     1.0000 0.26318  0.74803  0.00515  Biso   1.000  C
  C918     1.0000 0.03214  0.73101  0.72460  Biso   1.000  C
  C919     1.0000 0.76912  0.98030  0.72844  Biso   1.000  C
  C920     1.0000 0.78919  0.24849  0.48432  Biso   1.000  C
  C921     1.0000 0.03138  0.23256  0.75679  Biso   1.000  C
  C922     1.0000 0.27074  0.96820  0.75917  Biso   1.000  C
  C923     1.0000 0.28886  0.24696  0.97344  Biso   1.000  C
  C924     1.0000 0.51900  0.23062  0.72943  Biso   1.000  C
  C925     1.0000 0.27041  0.47206  0.25689  Biso   1.000  C
  C926     1.0000 0.28561  0.22540  0.48408  Biso   1.000  C
  C927     1.0000 0.53532  0.24038  0.22256  Biso   1.000  C
  C928     1.0000 0.76825  0.48266  0.23066  Biso   1.000  C
  C929     1.0000 0.79224  0.22917  0.98596  Biso   1.000  C
  C930     1.0000 0.00244  0.24166  0.25589  Biso   1.000  C
  C931     1.0000 0.27540  0.99158  0.25795  Biso   1.000  C
  C932     1.0000 0.27276  0.72125  0.49399  Biso   1.000  C
  C933     1.0000 0.03641  0.74150  0.22138  Biso   1.000  C
  C934     1.0000 0.77288  0.97295  0.22270  Biso   1.000  C
  C935     1.0000 0.76565  0.72698  0.99908  Biso   1.000  C
  C936     1.0000 0.51607  0.74030  0.25934  Biso   1.000  C
  C937     1.0000 0.76984  0.25099  0.98730  Biso   1.000  C
  C938     1.0000 0.03606  0.71820  0.24585  Biso   1.000  C
  C939     1.0000 0.28935  0.96807  0.73436  Biso   1.000  C
  C940     1.0000 0.26463  0.25059  0.48173  Biso   1.000  C
  C941     1.0000 0.51584  0.71640  0.23842  Biso   1.000  C
  C942     1.0000 0.79369  0.98007  0.75052  Biso   1.000  C
  C943     1.0000 0.79063  0.74765  0.00056  Biso   1.000  C
  C944     1.0000 0.53382  0.21715  0.24549  Biso   1.000  C
  C945     1.0000 0.26267  0.46097  0.73160  Biso   1.000  C
  C946     1.0000 0.29278  0.74557  0.49459  Biso   1.000  C
  C947     1.0000 0.00085  0.21876  0.23384  Biso   1.000  C
  C948     1.0000 0.76754  0.48873  0.75326  Biso   1.000  C
  C949     1.0000 0.28365  0.72345  0.00335  Biso   1.000  C
  C950     1.0000 0.02847  0.25548  0.73513  Biso   1.000  C
  C951     1.0000 0.75192  0.97355  0.24645  Biso   1.000  C
  C952     1.0000 0.78757  0.72656  0.47641  Biso   1.000  C
  C953     1.0000 0.51796  0.25517  0.75008  Biso   1.000  C
  C954     1.0000 0.25186  0.99170  0.23541  Biso   1.000  C
  C955     1.0000 0.26472  0.22720  0.97862  Biso   1.000  C
  C956     1.0000 0.53693  0.76100  0.73674  Biso   1.000  C
  C957     1.0000 0.79082  0.48171  0.25314  Biso   1.000  C
  C958     1.0000 0.76599  0.22454  0.48284  Biso   1.000  C
  C959     1.0000 0.03091  0.75190  0.74862  Biso   1.000  C
  C960     1.0000 0.29280  0.46961  0.23582  Biso   1.000  C
  Cu1      1.0000 0.02292  0.49294  0.64352  Biso   1.000  Cu
  Cu2      1.0000 0.67733  0.98799  0.48950  Biso   1.000  Cu
  Cu3      1.0000 0.52098  0.63710  0.99319  Biso   1.000  Cu
  Cu4      1.0000 0.52671  0.49436  0.83645  Biso   1.000  Cu
  Cu5      1.0000 0.18295  0.98837  0.99599  Biso   1.000  Cu
  Cu6      1.0000 0.02777  0.64225  0.48599  Biso   1.000  Cu
  Cu7      1.0000 0.52905  0.99726  0.64651  Biso   1.000  Cu
  Cu8      1.0000 0.87609  0.48868  0.49093  Biso   1.000  Cu
  Cu9      1.0000 0.02435  0.13937  0.98887  Biso   1.000  Cu
  Cu10     1.0000 0.03604  0.98846  0.83501  Biso   1.000  Cu
  Cu11     1.0000 0.36974  0.48368  0.99736  Biso   1.000  Cu
  Cu12     1.0000 0.52580  0.14153  0.48675  Biso   1.000  Cu
  Cu13     1.0000 0.02983  0.48158  0.33632  Biso   1.000  Cu
  Cu14     1.0000 0.36958  0.98760  0.49943  Biso   1.000  Cu
  Cu15     1.0000 0.53002  0.33341  0.98466  Biso   1.000  Cu
  Cu16     1.0000 0.52742  0.48341  0.14559  Biso   1.000  Cu
  Cu17     1.0000 0.87604  0.98834  0.99081  Biso   1.000  Cu
  Cu18     1.0000 0.02773  0.33269  0.49762  Biso   1.000  Cu
  Cu19     1.0000 0.52028  0.98155  0.34064  Biso   1.000  Cu
  Cu20     1.0000 0.18170  0.48737  0.49165  Biso   1.000  Cu
  Cu21     1.0000 0.03121  0.83438  0.99126  Biso   1.000  Cu
  Cu22     1.0000 0.01309  0.98330  0.14500  Biso   1.000  Cu
  Cu23     1.0000 0.67844  0.49061  0.98856  Biso   1.000  Cu
  Cu24     1.0000 0.53191  0.83740  0.49897  Biso   1.000  Cu
  Cu25     1.0000 0.23683  0.98954  0.99910  Biso   1.000  Cu
  Cu26     1.0000 0.02622  0.19453  0.99160  Biso   1.000  Cu
  Cu27     1.0000 0.01578  0.98557  0.19913  Biso   1.000  Cu
  Cu28     1.0000 0.73163  0.98969  0.48733  Biso   1.000  Cu
  Cu29     1.0000 0.52531  0.19431  0.48377  Biso   1.000  Cu
  Cu30     1.0000 0.51456  0.97696  0.28626  Biso   1.000  Cu
  Cu31     1.0000 0.31457  0.48014  0.99487  Biso   1.000  Cu
  Cu32     1.0000 0.51867  0.69120  0.99407  Biso   1.000  Cu
  Cu33     1.0000 0.52681  0.48302  0.20036  Biso   1.000  Cu
  Cu34     1.0000 0.82406  0.48872  0.48727  Biso   1.000  Cu
  Cu35     1.0000 0.02812  0.69492  0.48360  Biso   1.000  Cu
  Cu36     1.0000 0.02846  0.47540  0.28185  Biso   1.000  Cu
  Cu37     1.0000 0.82045  0.98651  0.98844  Biso   1.000  Cu
  Cu38     1.0000 0.02651  0.78159  0.98973  Biso   1.000  Cu
  Cu39     1.0000 0.03450  0.98673  0.77849  Biso   1.000  Cu
  Cu40     1.0000 0.31472  0.98543  0.49756  Biso   1.000  Cu
  Cu41     1.0000 0.52588  0.78303  0.50228  Biso   1.000  Cu
  Cu42     1.0000 0.53189  0.00137  0.69844  Biso   1.000  Cu
  Cu43     1.0000 0.73195  0.49242  0.98946  Biso   1.000  Cu
  Cu44     1.0000 0.52932  0.28038  0.98457  Biso   1.000  Cu
  Cu45     1.0000 0.52388  0.49377  0.78086  Biso   1.000  Cu
  Cu46     1.0000 0.23499  0.48918  0.49392  Biso   1.000  Cu
  Cu47     1.0000 0.02782  0.27824  0.49973  Biso   1.000  Cu
  Cu48     1.0000 0.02679  0.49567  0.69767  Biso   1.000  Cu
  H1       1.0000 0.27042  0.76784  0.52693  Biso   1.000  H
  H2       1.0000 0.55874  0.27033  0.73406  Biso   1.000  H
  H3       1.0000 0.76357  0.49549  0.28910  Biso   1.000  H
  H4       1.0000 0.77502  0.77083  0.96411  Biso   1.000  H
  H5       1.0000 0.00005  0.23235  0.70671  Biso   1.000  H
  H6       1.0000 0.32031  0.50218  0.25236  Biso   1.000  H
  H7       1.0000 0.28791  0.28146  0.51182  Biso   1.000  H
  H8       1.0000 0.00661  0.78219  0.72289  Biso   1.000  H
  H9       1.0000 0.71992  0.99963  0.22040  Biso   1.000  H
  H10      1.0000 0.79391  0.28086  0.01257  Biso   1.000  H
  H11      1.0000 0.50379  0.78681  0.75362  Biso   1.000  H
  H12      1.0000 0.27699  0.01970  0.20516  Biso   1.000  H
  H13      1.0000 0.74101  0.24651  0.45131  Biso   1.000  H
  H14      1.0000 0.55115  0.73525  0.21226  Biso   1.000  H
  H15      1.0000 0.28863  0.44477  0.69632  Biso   1.000  H
  H16      1.0000 0.28429  0.20522  0.01770  Biso   1.000  H
  H17      1.0000 0.07070  0.74037  0.26932  Biso   1.000  H
  H18      1.0000 0.73800  0.46503  0.72408  Biso   1.000  H
  H19      1.0000 0.81993  0.75473  0.45829  Biso   1.000  H
  H20      1.0000 0.01367  0.18532  0.26318  Biso   1.000  H
  H21      1.0000 0.26027  0.99280  0.70643  Biso   1.000  H
  H22      1.0000 0.26528  0.69985  0.03835  Biso   1.000  H
  H23      1.0000 0.55339  0.18618  0.21825  Biso   1.000  H
  H24      1.0000 0.81990  0.94982  0.72538  Biso   1.000  H
  H25      1.0000 0.29927  0.99826  0.78488  Biso   1.000  H
  H26      1.0000 0.81402  0.24240  0.02504  Biso   1.000  H
  H27      1.0000 0.00892  0.71500  0.19083  Biso   1.000  H
  H28      1.0000 0.78745  0.94700  0.69700  Biso   1.000  H
  H29      1.0000 0.26421  0.19064  0.46093  Biso   1.000  H
  H30      1.0000 0.54147  0.76846  0.23491  Biso   1.000  H
  H31      1.0000 0.31826  0.48258  0.72703  Biso   1.000  H
  H32      1.0000 0.78926  0.69391  0.02493  Biso   1.000  H
  H33      1.0000 0.50594  0.26917  0.24629  Biso   1.000  H
  H34      1.0000 0.76085  0.51233  0.69863  Biso   1.000  H
  H35      1.0000 0.24213  0.74646  0.46839  Biso   1.000  H
  H36      1.0000 0.97698  0.21573  0.28171  Biso   1.000  H
  H37      1.0000 0.74459  0.95886  0.18966  Biso   1.000  H
  H38      1.0000 0.29569  0.78090  0.98913  Biso   1.000  H
  H39      1.0000 0.99809  0.25132  0.78334  Biso   1.000  H
  H40      1.0000 0.24951  0.96882  0.29013  Biso   1.000  H
  H41      1.0000 0.79455  0.78093  0.49974  Biso   1.000  H
  H42      1.0000 0.49634  0.20066  0.75522  Biso   1.000  H
  H43      1.0000 0.73611  0.45705  0.25315  Biso   1.000  H
  H44      1.0000 0.26200  0.28136  0.95238  Biso   1.000  H
  H45      1.0000 0.55212  0.70624  0.72529  Biso   1.000  H
  H46      1.0000 0.29152  0.44155  0.28345  Biso   1.000  H
  H47      1.0000 0.76077  0.27729  0.50809  Biso   1.000  H
  H48      1.0000 0.07173  0.71149  0.74024  Biso   1.000  H
  H49      1.0000 0.24740  0.50466  0.23388  Biso   1.000  H
  H50      1.0000 0.31947  0.25402  0.50533  Biso   1.000  H
  H51      1.0000 0.55911  0.21613  0.19092  Biso   1.000  H
  H52      1.0000 0.79342  0.50911  0.20387  Biso   1.000  H
  H53      1.0000 0.77055  0.20680  0.94899  Biso   1.000  H
  H54      1.0000 0.02682  0.26888  0.23056  Biso   1.000  H
  H55      1.0000 0.30550  0.01965  0.23299  Biso   1.000  H
  H56      1.0000 0.29984  0.69437  0.51876  Biso   1.000  H
  H57      1.0000 0.06228  0.77429  0.24774  Biso   1.000  H
  H58      1.0000 0.80014  0.99625  0.25259  Biso   1.000  H
  H59      1.0000 0.73813  0.75356  0.97222  Biso   1.000  H
  H60      1.0000 0.48855  0.71734  0.28998  Biso   1.000  H
  H61      1.0000 0.82101  0.46367  0.75612  Biso   1.000  H
  H62      1.0000 0.73474  0.72227  0.45643  Biso   1.000  H
  H63      1.0000 0.50460  0.75855  0.78592  Biso   1.000  H
  H64      1.0000 0.26075  0.43950  0.78120  Biso   1.000  H
  H65      1.0000 0.22624  0.72142  0.02251  Biso   1.000  H
  H66      1.0000 0.99173  0.74428  0.70633  Biso   1.000  H
  H67      1.0000 0.74255  0.00799  0.75331  Biso   1.000  H
  H68      1.0000 0.81969  0.22066  0.46138  Biso   1.000  H
  H69      1.0000 0.06480  0.21283  0.73162  Biso   1.000  H
  H70      1.0000 0.23579  0.94498  0.73708  Biso   1.000  H
  H71      1.0000 0.32089  0.22046  0.99544  Biso   1.000  H
  H72      1.0000 0.54304  0.25727  0.69556  Biso   1.000  H
  H73      1.0000 0.79482  0.51277  0.78156  Biso   1.000  H
  H74      1.0000 0.76310  0.69543  0.50347  Biso   1.000  H
  H75      1.0000 0.57381  0.73965  0.71597  Biso   1.000  H
  H76      1.0000 0.23512  0.48050  0.76257  Biso   1.000  H
  H77      1.0000 0.30474  0.74282  0.96802  Biso   1.000  H
  H78      1.0000 0.05298  0.72308  0.77912  Biso   1.000  H
  H79      1.0000 0.77238  0.00691  0.78388  Biso   1.000  H
  H80      1.0000 0.78728  0.20127  0.51633  Biso   1.000  H
  H81      1.0000 0.05746  0.28467  0.76040  Biso   1.000  H
  H82      1.0000 0.32060  0.94403  0.75720  Biso   1.000  H
  H83      1.0000 0.23774  0.24050  0.94209  Biso   1.000  H
  H84      1.0000 0.47851  0.23954  0.77070  Biso   1.000  H
  H85      1.0000 0.26850  0.43558  0.20954  Biso   1.000  H
  H86      1.0000 0.23765  0.22429  0.45127  Biso   1.000  H
  H87      1.0000 0.51252  0.24581  0.27485  Biso   1.000  H
  H88      1.0000 0.81818  0.46141  0.22124  Biso   1.000  H
  H89      1.0000 0.73831  0.22610  0.96107  Biso   1.000  H
  H90      1.0000 0.98928  0.24702  0.20073  Biso   1.000  H
  H91      1.0000 0.22700  0.96275  0.25870  Biso   1.000  H
  H92      1.0000 0.32241  0.72452  0.46429  Biso   1.000  H
  H93      1.0000 0.00726  0.68993  0.22467  Biso   1.000  H
  H94      1.0000 0.77509  0.94555  0.27661  Biso   1.000  H
  H95      1.0000 0.81195  0.72916  0.03751  Biso   1.000  H
  H96      1.0000 0.48409  0.69166  0.26025  Biso   1.000  H
  H97      1.0000 0.89675  0.97136  0.90050  Biso   1.000  H
  H98      1.0000 0.93886  0.85609  0.00308  Biso   1.000  H
  H99      1.0000 0.03270  0.89834  0.85965  Biso   1.000  H
  H100     1.0000 0.38946  0.98168  0.58613  Biso   1.000  H
  H101     1.0000 0.43499  0.85989  0.49757  Biso   1.000  H
  H102     1.0000 0.53496  0.90841  0.63004  Biso   1.000  H
  H103     1.0000 0.66260  0.50638  0.89871  Biso   1.000  H
  H104     1.0000 0.62070  0.35271  0.98116  Biso   1.000  H
  H105     1.0000 0.53158  0.40072  0.85750  Biso   1.000  H
  H106     1.0000 0.15690  0.48626  0.58382  Biso   1.000  H
  H107     1.0000 0.12230  0.35187  0.50144  Biso   1.000  H
  H108     1.0000 0.01714  0.40374  0.62397  Biso   1.000  H
  H109     1.0000 0.15413  0.98518  0.08215  Biso   1.000  H
  H110     1.0000 0.11521  0.11702  0.99844  Biso   1.000  H
  H111     1.0000 0.01410  0.07631  0.12241  Biso   1.000  H
  H112     1.0000 0.65096  0.99215  0.39657  Biso   1.000  H
  H113     1.0000 0.61265  0.12665  0.49332  Biso   1.000  H
  H114     1.0000 0.52205  0.07432  0.35598  Biso   1.000  H
  H115     1.0000 0.39357  0.47514  0.08402  Biso   1.000  H
  H116     1.0000 0.42352  0.61401  0.98378  Biso   1.000  H
  H117     1.0000 0.51373  0.57189  0.12552  Biso   1.000  H
  H118     1.0000 0.90274  0.47904  0.39622  Biso   1.000  H
  H119     1.0000 0.93826  0.62379  0.47564  Biso   1.000  H
  H120     1.0000 0.02858  0.56922  0.34789  Biso   1.000  H
  H121     1.0000 0.12352  0.00424  0.85748  Biso   1.000  H
  H122     1.0000 0.89071  0.07647  0.98999  Biso   1.000  H
  H123     1.0000 0.01191  0.85134  0.08033  Biso   1.000  H
  H124     1.0000 0.61901  0.00512  0.62340  Biso   1.000  H
  H125     1.0000 0.39154  0.07960  0.49565  Biso   1.000  H
  H126     1.0000 0.52777  0.85175  0.40934  Biso   1.000  H
  H127     1.0000 0.43368  0.48644  0.85972  Biso   1.000  H
  H128     1.0000 0.65502  0.58016  0.99353  Biso   1.000  H
  H129     1.0000 0.52833  0.35316  0.07971  Biso   1.000  H
  H130     1.0000 0.93613  0.49852  0.62305  Biso   1.000  H
  H131     1.0000 0.16511  0.57559  0.49803  Biso   1.000  H
  H132     1.0000 0.01870  0.35021  0.40520  Biso   1.000  H
  H133     1.0000 0.92653  0.98036  0.12794  Biso   1.000  H
  H134     1.0000 0.16211  0.89820  0.99312  Biso   1.000  H
  H135     1.0000 0.02194  0.11631  0.89741  Biso   1.000  H
  H136     1.0000 0.42952  0.98630  0.36292  Biso   1.000  H
  H137     1.0000 0.65810  0.89739  0.48748  Biso   1.000  H
  H138     1.0000 0.52162  0.12951  0.57907  Biso   1.000  H
  H139     1.0000 0.61846  0.49454  0.12319  Biso   1.000  H
  H140     1.0000 0.39472  0.39419  0.98645  Biso   1.000  H
  H141     1.0000 0.51945  0.61773  0.89642  Biso   1.000  H
  H142     1.0000 0.12176  0.49047  0.35856  Biso   1.000  H
  H143     1.0000 0.89706  0.39778  0.49529  Biso   1.000  H
  H144     1.0000 0.02692  0.62888  0.57353  Biso   1.000  H
  H145     1.0000 0.62108  0.50930  0.85389  Biso   1.000  H
  H146     1.0000 0.89574  0.58215  0.48650  Biso   1.000  H
  H147     1.0000 0.54210  0.86399  0.58801  Biso   1.000  H
  H148     1.0000 0.11484  0.48071  0.62423  Biso   1.000  H
  H149     1.0000 0.38382  0.57423  0.98781  Biso   1.000  H
  H150     1.0000 0.03476  0.85293  0.90043  Biso   1.000  H
  H151     1.0000 0.94140  0.97849  0.85870  Biso   1.000  H
  H152     1.0000 0.65445  0.07990  0.49163  Biso   1.000  H
  H153     1.0000 0.02081  0.35753  0.58359  Biso   1.000  H
  H154     1.0000 0.43433  0.99605  0.62626  Biso   1.000  H
  H155     1.0000 0.16274  0.07798  0.00732  Biso   1.000  H
  H156     1.0000 0.53863  0.35717  0.89443  Biso   1.000  H
  H157     1.0000 0.43615  0.48098  0.12811  Biso   1.000  H
  H158     1.0000 0.16304  0.39836  0.49629  Biso   1.000  H
  H159     1.0000 0.52416  0.11521  0.39508  Biso   1.000  H
  H160     1.0000 0.94513  0.48193  0.35325  Biso   1.000  H
  H161     1.0000 0.66195  0.39725  0.98223  Biso   1.000  H
  H162     1.0000 0.01616  0.11675  0.08069  Biso   1.000  H
  H163     1.0000 0.11060  0.99135  0.12262  Biso   1.000  H
  H164     1.0000 0.38743  0.90077  0.50295  Biso   1.000  H
  H165     1.0000 0.02373  0.61170  0.39297  Biso   1.000  H
  H166     1.0000 0.60928  0.99136  0.35082  Biso   1.000  H
  H167     1.0000 0.89443  0.89912  0.99803  Biso   1.000  H
  H168     1.0000 0.50028  0.61529  0.08247  Biso   1.000  H
  H169     1.0000 0.02520  0.07632  0.85262  Biso   1.000  H
  H170     1.0000 0.88741  0.98917  0.08073  Biso   1.000  H
  H171     1.0000 0.12074  0.85700  0.99052  Biso   1.000  H
  H172     1.0000 0.52744  0.08744  0.61995  Biso   1.000  H
  H173     1.0000 0.38739  0.98542  0.40942  Biso   1.000  H
  H174     1.0000 0.61709  0.85211  0.48697  Biso   1.000  H
  H175     1.0000 0.50334  0.57950  0.85125  Biso   1.000  H
  H176     1.0000 0.65416  0.49464  0.08215  Biso   1.000  H
  H177     1.0000 0.43638  0.35447  0.99156  Biso   1.000  H
  H178     1.0000 0.03053  0.58691  0.61565  Biso   1.000  H
  H179     1.0000 0.16168  0.48495  0.39880  Biso   1.000  H
  H180     1.0000 0.93681  0.35528  0.50096  Biso   1.000  H
  H181     1.0000 0.01525  0.89187  0.12775  Biso   1.000  H
  H182     1.0000 0.16894  0.00908  0.90429  Biso   1.000  H
  H183     1.0000 0.93390  0.12092  0.99338  Biso   1.000  H
  H184     1.0000 0.51565  0.89142  0.36437  Biso   1.000  H
  H185     1.0000 0.66376  0.98900  0.58069  Biso   1.000  H
  H186     1.0000 0.43669  0.12172  0.49126  Biso   1.000  H
  H187     1.0000 0.53307  0.39521  0.12437  Biso   1.000  H
  H188     1.0000 0.38968  0.48703  0.90697  Biso   1.000  H
  H189     1.0000 0.61536  0.61616  0.00624  Biso   1.000  H
  H190     1.0000 0.02225  0.38952  0.36108  Biso   1.000  H
  H191     1.0000 0.89595  0.50095  0.58412  Biso   1.000  H
  H192     1.0000 0.11890  0.61972  0.49426  Biso   1.000  H
  H193     1.0000 0.29550  0.83974  0.48775  Biso   1.000  H
  H194     1.0000 0.52492  0.26444  0.83411  Biso   1.000  H
  H195     1.0000 0.88388  0.48197  0.25674  Biso   1.000  H
  H196     1.0000 0.79939  0.84411  0.00066  Biso   1.000  H
  H197     1.0000 0.03009  0.26494  0.64524  Biso   1.000  H
  H198     1.0000 0.39031  0.45639  0.22498  Biso   1.000  H
  H199     1.0000 0.25638  0.34501  0.48066  Biso   1.000  H
  H200     1.0000 0.02138  0.75813  0.84765  Biso   1.000  H
  H201     1.0000 0.65775  0.96787  0.25727  Biso   1.000  H
  H202     1.0000 0.76032  0.35097  0.97586  Biso   1.000  H
  H203     1.0000 0.54034  0.77114  0.64652  Biso   1.000  H
  H204     1.0000 0.15894  0.99073  0.22079  Biso   1.000  H
  H205     1.0000 0.75334  0.12770  0.48849  Biso   1.000  H
  H206     1.0000 0.51266  0.71193  0.13788  Biso   1.000  H
  H207     1.0000 0.16250  0.46257  0.72021  Biso   1.000  H
  H208     1.0000 0.25632  0.13349  0.99304  Biso   1.000  H
  H209     1.0000 0.03350  0.70689  0.33752  Biso   1.000  H
  H210     1.0000 0.67232  0.49846  0.76146  Biso   1.000  H
  H211     1.0000 0.79917  0.62924  0.47697  Biso   1.000  H
  H212     1.0000 0.02003  0.21328  0.13634  Biso   1.000  H
  H213     1.0000 0.38953  0.98927  0.72726  Biso   1.000  H
  H214     1.0000 0.28677  0.62486  0.00062  Biso   1.000  H
  H215     1.0000 0.53995  0.20666  0.34188  Biso   1.000  H
  H216     1.0000 0.88836  0.98070  0.76177  Biso   1.000  H
  H217     1.0000 0.26071  0.47615  0.35002  Biso   1.000  H
  H218     1.0000 0.37987  0.21683  0.48129  Biso   1.000  H
  H219     1.0000 0.53584  0.33665  0.21703  Biso   1.000  H
  H220     1.0000 0.75174  0.48226  0.13437  Biso   1.000  H
  H221     1.0000 0.88040  0.21547  0.98952  Biso   1.000  H
  H222     1.0000 0.00069  0.33430  0.26635  Biso   1.000  H
  H223     1.0000 0.29043  0.99939  0.35616  Biso   1.000  H
  H224     1.0000 0.17490  0.71667  0.50171  Biso   1.000  H
  H225     1.0000 0.03008  0.83879  0.21985  Biso   1.000  H
  H226     1.0000 0.79025  0.00179  0.13170  Biso   1.000  H
  H227     1.0000 0.66398  0.71919  0.00137  Biso   1.000  H
  H228     1.0000 0.51942  0.83826  0.26750  Biso   1.000  H
  H229     1.0000 0.79732  0.48346  0.63081  Biso   1.000  H
  H230     1.0000 0.67100  0.75676  0.48717  Biso   1.000  H
  H231     1.0000 0.52339  0.63860  0.75850  Biso   1.000  H
  H232     1.0000 0.29451  0.48024  0.84953  Biso   1.000  H
  H233     1.0000 0.16920  0.75998  0.98512  Biso   1.000  H
  H234     1.0000 0.04368  0.63666  0.71319  Biso   1.000  H
  H235     1.0000 0.76083  0.98936  0.63521  Biso   1.000  H
  H236     1.0000 0.88395  0.25827  0.49153  Biso   1.000  H
  H237     1.0000 0.03702  0.13361  0.76101  Biso   1.000  H
  H238     1.0000 0.26455  0.98027  0.85473  Biso   1.000  H
  H239     1.0000 0.38618  0.25635  0.96950  Biso   1.000  H
  H240     1.0000 0.52678  0.13918  0.71663  Biso   1.000  H
  H241     1.0000 0.75550  0.48429  0.84625  Biso   1.000  H
  H242     1.0000 0.88332  0.71882  0.48983  Biso   1.000  H
  H243     1.0000 0.54050  0.85835  0.72939  Biso   1.000  H
  H244     1.0000 0.25430  0.48230  0.64134  Biso   1.000  H
  H245     1.0000 0.37627  0.70788  0.00408  Biso   1.000  H
  H246     1.0000 0.03664  0.84730  0.75948  Biso   1.000  H
  H247     1.0000 0.80234  0.96935  0.84556  Biso   1.000  H
  H248     1.0000 0.66885  0.22158  0.48236  Biso   1.000  H
  H249     1.0000 0.01307  0.35609  0.72641  Biso   1.000  H
  H250     1.0000 0.29864  0.96547  0.64308  Biso   1.000  H
  H251     1.0000 0.16964  0.21417  0.98411  Biso   1.000  H
  H252     1.0000 0.51839  0.35238  0.75661  Biso   1.000  H
  H253     1.0000 0.29908  0.45094  0.13807  Biso   1.000  H
  H254     1.0000 0.16988  0.25806  0.47980  Biso   1.000  H
  H255     1.0000 0.51412  0.12160  0.25573  Biso   1.000  H
  H256     1.0000 0.80479  0.46545  0.34747  Biso   1.000  H
  H257     1.0000 0.67590  0.26077  0.99086  Biso   1.000  H
  H258     1.0000 0.99223  0.12356  0.21999  Biso   1.000  H
  H259     1.0000 0.24472  0.97111  0.14570  Biso   1.000  H
  H260     1.0000 0.38488  0.76201  0.49441  Biso   1.000  H
  H261     1.0000 0.04061  0.62161  0.25397  Biso   1.000  H
  H262     1.0000 0.74409  0.98573  0.33975  Biso   1.000  H
  H263     1.0000 0.88171  0.76173  0.00868  Biso   1.000  H
  H264     1.0000 0.51762  0.62301  0.22363  Biso   1.000  H
  H265     1.0000 0.03434  0.21724  0.84922  Biso   1.000  H
  H266     1.0000 0.86727  0.97255  0.21935  Biso   1.000  H
  H267     1.0000 0.25609  0.84557  0.01598  Biso   1.000  H
  H268     1.0000 0.50481  0.22428  0.63034  Biso   1.000  H
  H269     1.0000 0.37200  0.98648  0.26553  Biso   1.000  H
  H270     1.0000 0.75386  0.84866  0.47871  Biso   1.000  H
  H271     1.0000 0.53241  0.71831  0.84924  Biso   1.000  H
  H272     1.0000 0.67324  0.49919  0.21940  Biso   1.000  H
  H273     1.0000 0.29867  0.33872  0.98443  Biso   1.000  H
  H274     1.0000 0.02953  0.72344  0.62938  Biso   1.000  H
  H275     1.0000 0.17193  0.46863  0.26285  Biso   1.000  H
  H276     1.0000 0.79875  0.34717  0.48390  Biso   1.000  H
  H277     1.0000 0.03655  0.75906  0.12888  Biso   1.000  H
  H278     1.0000 0.18069  0.99216  0.76681  Biso   1.000  H
  H279     1.0000 0.79713  0.12941  0.97054  Biso   1.000  H
  H280     1.0000 0.52608  0.75362  0.35849  Biso   1.000  H
  H281     1.0000 0.67489  0.98821  0.72020  Biso   1.000  H
  H282     1.0000 0.29493  0.13111  0.50036  Biso   1.000  H
  H283     1.0000 0.52931  0.25385  0.12558  Biso   1.000  H
  H284     1.0000 0.38299  0.45879  0.76803  Biso   1.000  H
  H285     1.0000 0.75092  0.63744  0.99060  Biso   1.000  H
  H286     1.0000 0.01735  0.25187  0.35302  Biso   1.000  H
  H287     1.0000 0.88653  0.50612  0.72231  Biso   1.000  H
  H288     1.0000 0.26010  0.63046  0.49536  Biso   1.000  H
  H289     1.0000 0.11660  0.21386  0.98667  Biso   1.000  H
  H290     1.0000 0.99074  0.07317  0.21512  Biso   1.000  H
  H291     1.0000 0.24883  0.96736  0.08782  Biso   1.000  H
  H292     1.0000 0.61486  0.21904  0.49107  Biso   1.000  H
  H293     1.0000 0.51009  0.06460  0.26049  Biso   1.000  H
  H294     1.0000 0.74507  0.99719  0.39661  Biso   1.000  H
  H295     1.0000 0.43214  0.70713  0.00289  Biso   1.000  H
  H296     1.0000 0.53069  0.57478  0.21824  Biso   1.000  H
  H297     1.0000 0.29605  0.46431  0.08726  Biso   1.000  H
  H298     1.0000 0.93742  0.71841  0.48390  Biso   1.000  H
  H299     1.0000 0.03194  0.56833  0.25257  Biso   1.000  H
  H300     1.0000 0.80643  0.47005  0.40059  Biso   1.000  H
  H301     1.0000 0.93689  0.76232  0.00661  Biso   1.000  H
  H302     1.0000 0.03516  0.89862  0.76243  Biso   1.000  H
  H303     1.0000 0.80109  0.97374  0.89799  Biso   1.000  H
  H304     1.0000 0.43884  0.76599  0.49937  Biso   1.000  H
  H305     1.0000 0.54343  0.91318  0.72781  Biso   1.000  H
  H306     1.0000 0.29617  0.96766  0.59012  Biso   1.000  H
  H307     1.0000 0.61870  0.26128  0.99385  Biso   1.000  H
  H308     1.0000 0.52127  0.40705  0.76125  Biso   1.000  H
  H309     1.0000 0.75648  0.48357  0.90011  Biso   1.000  H
  H310     1.0000 0.11799  0.25748  0.49123  Biso   1.000  H
  H311     1.0000 0.00856  0.41057  0.71900  Biso   1.000  H
  H312     1.0000 0.25340  0.48409  0.58612  Biso   1.000  H
  H313     1.0000 0.26340  0.98971  0.90799  Biso   1.000  H
  H314     1.0000 0.93801  0.21445  0.99487  Biso   1.000  H
  H315     1.0000 0.02215  0.89206  0.22385  Biso   1.000  H
  H316     1.0000 0.75958  0.98854  0.57922  Biso   1.000  H
  H317     1.0000 0.43549  0.21268  0.47758  Biso   1.000  H
  H318     1.0000 0.52384  0.88879  0.26724  Biso   1.000  H
  H319     1.0000 0.29585  0.49163  0.90508  Biso   1.000  H
  H320     1.0000 0.60640  0.71284  0.00422  Biso   1.000  H
  H321     1.0000 0.53214  0.39061  0.22027  Biso   1.000  H
  H322     1.0000 0.80188  0.48772  0.57509  Biso   1.000  H
  H323     1.0000 0.12113  0.71613  0.48968  Biso   1.000  H
  H324     1.0000 0.01202  0.39164  0.26865  Biso   1.000  H
  H325     1.0000 0.79392  0.00098  0.07659  Biso   1.000  H
  H326     1.0000 0.11985  0.76190  0.98391  Biso   1.000  H
  H327     1.0000 0.03465  0.07735  0.75883  Biso   1.000  H
  H328     1.0000 0.29364  0.99988  0.40942  Biso   1.000  H
  H329     1.0000 0.61687  0.75584  0.49201  Biso   1.000  H
  H330     1.0000 0.52777  0.09130  0.71863  Biso   1.000  H
  H331     1.0000 0.75045  0.48761  0.07984  Biso   1.000  H
  H332     1.0000 0.43980  0.25882  0.97418  Biso   1.000  H
  H333     1.0000 0.51363  0.58177  0.75740  Biso   1.000  H
  H334     1.0000 0.25784  0.48477  0.40278  Biso   1.000  H
  H335     1.0000 0.93531  0.25765  0.50074  Biso   1.000  H
  H336     1.0000 0.04797  0.58451  0.71234  Biso   1.000  H
  H337     1.0000 0.03486  0.21217  0.90290  Biso   1.000  H
  H338     1.0000 0.92118  0.96820  0.22152  Biso   1.000  H
  H339     1.0000 0.25864  0.90048  0.01438  Biso   1.000  H
  H340     1.0000 0.50559  0.22501  0.57795  Biso   1.000  H
  H341     1.0000 0.42728  0.97990  0.26810  Biso   1.000  H
  H342     1.0000 0.74973  0.90259  0.47853  Biso   1.000  H
  H343     1.0000 0.53376  0.71411  0.90311  Biso   1.000  H
  H344     1.0000 0.62006  0.49684  0.22245  Biso   1.000  H
  H345     1.0000 0.30072  0.39455  0.99102  Biso   1.000  H
  H346     1.0000 0.02633  0.72515  0.57233  Biso   1.000  H
  H347     1.0000 0.11798  0.47056  0.26489  Biso   1.000  H
  H348     1.0000 0.80215  0.40374  0.48240  Biso   1.000  H
  H349     1.0000 0.03511  0.75814  0.07710  Biso   1.000  H
  H350     1.0000 0.12847  0.99935  0.76414  Biso   1.000  H
  H351     1.0000 0.79636  0.08006  0.96924  Biso   1.000  H
  H352     1.0000 0.52433  0.75671  0.41449  Biso   1.000  H
  H353     1.0000 0.61955  0.99120  0.71689  Biso   1.000  H
  H354     1.0000 0.29698  0.07673  0.50599  Biso   1.000  H
  H355     1.0000 0.53140  0.25805  0.07087  Biso   1.000  H
  H356     1.0000 0.43401  0.46120  0.76576  Biso   1.000  H
  H357     1.0000 0.75066  0.58010  0.98487  Biso   1.000  H
  H358     1.0000 0.02496  0.25410  0.40684  Biso   1.000  H
  H359     1.0000 0.93787  0.51344  0.72024  Biso   1.000  H
  H360     1.0000 0.26041  0.57776  0.49496  Biso   1.000  H
  H361     1.0000 0.03724  0.70696  0.39319  Biso   1.000  H
  H362     1.0000 0.44078  0.99401  0.72460  Biso   1.000  H
  H363     1.0000 0.75678  0.40275  0.98354  Biso   1.000  H
  H364     1.0000 0.51931  0.71100  0.08718  Biso   1.000  H
  H365     1.0000 0.94217  0.98207  0.76222  Biso   1.000  H
  H366     1.0000 0.25741  0.40129  0.48565  Biso   1.000  H
  H367     1.0000 0.54325  0.20735  0.39529  Biso   1.000  H
  H368     1.0000 0.11169  0.46836  0.71789  Biso   1.000  H
  H369     1.0000 0.79637  0.89450  0.99502  Biso   1.000  H
  H370     1.0000 0.02519  0.21383  0.08564  Biso   1.000  H
  H371     1.0000 0.62001  0.50279  0.75850  Biso   1.000  H
  H372     1.0000 0.29288  0.89363  0.49242  Biso   1.000  H
  H373     1.0000 0.03466  0.26515  0.58941  Biso   1.000  H
  H374     1.0000 0.60296  0.97402  0.25901  Biso   1.000  H
  H375     1.0000 0.28746  0.56968  0.00109  Biso   1.000  H
  H376     1.0000 0.53659  0.26190  0.88835  Biso   1.000  H
  H377     1.0000 0.10579  0.99515  0.22065  Biso   1.000  H
  H378     1.0000 0.79673  0.57830  0.48026  Biso   1.000  H
  H379     1.0000 0.54113  0.76871  0.59126  Biso   1.000  H
  H380     1.0000 0.94072  0.47670  0.25773  Biso   1.000  H
  H381     1.0000 0.25779  0.07922  0.99893  Biso   1.000  H
  H382     1.0000 0.01755  0.76202  0.90066  Biso   1.000  H
  H383     1.0000 0.44397  0.46500  0.22091  Biso   1.000  H
  H384     1.0000 0.75045  0.07997  0.49232  Biso   1.000  H
  H385     1.0000 0.25506  0.44115  0.32121  Biso   1.000  H
  H386     1.0000 0.30159  0.15769  0.46080  Biso   1.000  H
  H387     1.0000 0.50866  0.30566  0.21554  Biso   1.000  H
  H388     1.0000 0.69918  0.45846  0.21358  Biso   1.000  H
  H389     1.0000 0.85137  0.20800  0.01976  Biso   1.000  H
  H390     1.0000 0.98419  0.24905  0.32699  Biso   1.000  H
  H391     1.0000 0.28814  0.96969  0.32715  Biso   1.000  H
  H392     1.0000 0.20223  0.71620  0.47059  Biso   1.000  H
  H393     1.0000 0.00207  0.75452  0.15768  Biso   1.000  H
  H394     1.0000 0.78297  0.96221  0.15175  Biso   1.000  H
  H395     1.0000 0.74832  0.66151  0.02898  Biso   1.000  H
  H396     1.0000 0.54855  0.80562  0.27574  Biso   1.000  H
  H397     1.0000 0.79779  0.51098  0.66149  Biso   1.000  H
  H398     1.0000 0.75528  0.81420  0.50887  Biso   1.000  H
  H399     1.0000 0.54798  0.66492  0.75754  Biso   1.000  H
  H400     1.0000 0.35518  0.48796  0.76396  Biso   1.000  H
  H401     1.0000 0.26045  0.81584  0.97911  Biso   1.000  H
  H402     1.0000 0.07374  0.67660  0.70148  Biso   1.000  H
  H403     1.0000 0.75033  0.95078  0.66436  Biso   1.000  H
  H404     1.0000 0.79603  0.31870  0.50959  Biso   1.000  H
  H405     1.0000 0.99585  0.20937  0.81652  Biso   1.000  H
  H406     1.0000 0.26485  0.00990  0.82070  Biso   1.000  H
  H407     1.0000 0.29851  0.31388  0.94779  Biso   1.000  H
  H408     1.0000 0.49069  0.16343  0.71458  Biso   1.000  H
  H409     1.0000 0.30451  0.43047  0.17484  Biso   1.000  H
  H410     1.0000 0.20191  0.26478  0.44720  Biso   1.000  H
  H411     1.0000 0.50818  0.20767  0.31210  Biso   1.000  H
  H412     1.0000 0.85516  0.45199  0.25498  Biso   1.000  H
  H413     1.0000 0.70525  0.26152  0.95237  Biso   1.000  H
  H414     1.0000 0.98988  0.21499  0.16087  Biso   1.000  H
  H415     1.0000 0.18946  0.95919  0.22213  Biso   1.000  H
  H416     1.0000 0.35385  0.76343  0.46190  Biso   1.000  H
  H417     1.0000 0.00666  0.65142  0.26171  Biso   1.000  H
  H418     1.0000 0.73984  0.94815  0.31523  Biso   1.000  H
  H419     1.0000 0.85395  0.76501  0.04087  Biso   1.000  H
  H420     1.0000 0.48117  0.65336  0.21859  Biso   1.000  H
  H421     1.0000 0.76098  0.51755  0.81959  Biso   1.000  H
  H422     1.0000 0.79530  0.65947  0.50265  Biso   1.000  H
  H423     1.0000 0.58136  0.77612  0.68122  Biso   1.000  H
  H424     1.0000 0.19546  0.48921  0.72765  Biso   1.000  H
  H425     1.0000 0.34217  0.70543  0.96478  Biso   1.000  H
  H426     1.0000 0.05490  0.75595  0.82017  Biso   1.000  H
  H427     1.0000 0.81569  0.00581  0.81924  Biso   1.000  H
  H428     1.0000 0.74960  0.16283  0.51942  Biso   1.000  H
  H429     1.0000 0.05668  0.32272  0.72272  Biso   1.000  H
  H430     1.0000 0.36107  0.95440  0.72429  Biso   1.000  H
  H431     1.0000 0.20286  0.19960  0.94668  Biso   1.000  H
  H432     1.0000 0.48046  0.27826  0.80714  Biso   1.000  H
  H433     1.0000 0.29829  0.00234  0.66948  Biso   1.000  H
  H434     1.0000 0.75506  0.31963  0.00957  Biso   1.000  H
  H435     1.0000 0.07214  0.70520  0.30735  Biso   1.000  H
  H436     1.0000 0.85818  0.94686  0.76154  Biso   1.000  H
  H437     1.0000 0.25102  0.31323  0.51577  Biso   1.000  H
  H438     1.0000 0.54498  0.70460  0.16968  Biso   1.000  H
  H439     1.0000 0.24737  0.44268  0.66095  Biso   1.000  H
  H440     1.0000 0.81342  0.81062  0.96951  Biso   1.000  H
  H441     1.0000 0.55084  0.14638  0.26039  Biso   1.000  H
  H442     1.0000 0.69800  0.46596  0.75470  Biso   1.000  H
  H443     1.0000 0.30267  0.81053  0.52762  Biso   1.000  H
  H444     1.0000 0.02295  0.14756  0.22736  Biso   1.000  H
  H445     1.0000 0.68830  0.00672  0.26075  Biso   1.000  H
  H446     1.0000 0.29892  0.65856  0.03550  Biso   1.000  H
  H447     1.0000 0.99299  0.27151  0.67159  Biso   1.000  H
  H448     1.0000 0.23861  0.01251  0.16498  Biso   1.000  H
  H449     1.0000 0.85883  0.72191  0.45572  Biso   1.000  H
  H450     1.0000 0.56041  0.31212  0.77149  Biso   1.000  H
  H451     1.0000 0.80550  0.49923  0.32141  Biso   1.000  H
  H452     1.0000 0.24646  0.17080  0.02457  Biso   1.000  H
  H453     1.0000 0.50894  0.82522  0.71697  Biso   1.000  H
  H454     1.0000 0.36073  0.49517  0.22075  Biso   1.000  H
  H455     1.0000 0.69920  0.20953  0.45278  Biso   1.000  H
  H456     1.0000 0.00706  0.81925  0.76317  Biso   1.000  H
  H457     1.0000 0.69686  0.75791  0.45475  Biso   1.000  H
  H458     1.0000 0.49978  0.71825  0.81865  Biso   1.000  H
  H459     1.0000 0.86104  0.47379  0.72339  Biso   1.000  H
  H460     1.0000 0.19330  0.76325  0.02415  Biso   1.000  H
  H461     1.0000 0.99501  0.71359  0.66266  Biso   1.000  H
  H462     1.0000 0.29618  0.44584  0.82557  Biso   1.000  H
  H463     1.0000 0.85666  0.26008  0.46310  Biso   1.000  H
  H464     1.0000 0.06952  0.17130  0.76797  Biso   1.000  H
  H465     1.0000 0.70778  0.01752  0.71422  Biso   1.000  H
  H466     1.0000 0.35927  0.25734  0.99660  Biso   1.000  H
  H467     1.0000 0.53862  0.22331  0.65963  Biso   1.000  H
  H468     1.0000 0.19773  0.95547  0.77219  Biso   1.000  H
  H469     1.0000 0.35375  0.22098  0.51389  Biso   1.000  H
  H470     1.0000 0.56251  0.25364  0.15829  Biso   1.000  H
  H471     1.0000 0.20468  0.50496  0.26732  Biso   1.000  H
  H472     1.0000 0.80149  0.16880  0.94506  Biso   1.000  H
  H473     1.0000 0.03122  0.30849  0.26767  Biso   1.000  H
  H474     1.0000 0.75702  0.51272  0.16506  Biso   1.000  H
  H475     1.0000 0.25924  0.65879  0.52636  Biso   1.000  H
  H476     1.0000 0.05598  0.81029  0.21544  Biso   1.000  H
  H477     1.0000 0.34390  0.01768  0.26296  Biso   1.000  H
  H478     1.0000 0.69744  0.71803  0.97403  Biso   1.000  H
  H479     1.0000 0.48961  0.75351  0.32720  Biso   1.000  H
  H480     1.0000 0.83896  0.00271  0.22063  Biso   1.000  H
  N1       1.0000 0.69922  0.16461  0.48717  Biso   1.000  N
  N2       1.0000 0.51068  0.65814  0.16910  Biso   1.000  N
  N3       1.0000 0.20064  0.47465  0.67021  Biso   1.000  N
  N4       1.0000 0.20185  0.16437  0.99149  Biso   1.000  N
  N5       1.0000 0.03708  0.65524  0.30782  Biso   1.000  N
  N6       1.0000 0.70433  0.49403  0.81323  Biso   1.000  N
  N7       1.0000 0.85050  0.66451  0.48062  Biso   1.000  N
  N8       1.0000 0.00812  0.15749  0.16792  Biso   1.000  N
  N9       1.0000 0.35295  0.98379  0.67499  Biso   1.000  N
  N10      1.0000 0.34185  0.65746  0.00007  Biso   1.000  N
  N11      1.0000 0.52475  0.15524  0.30858  Biso   1.000  N
  N12      1.0000 0.85721  0.97342  0.81415  Biso   1.000  N
  N13      1.0000 0.34987  0.81188  0.49229  Biso   1.000  N
  N14      1.0000 0.52161  0.31924  0.80805  Biso   1.000  N
  N15      1.0000 0.85559  0.47797  0.31316  Biso   1.000  N
  N16      1.0000 0.85366  0.81272  0.00612  Biso   1.000  N
  N17      1.0000 0.02406  0.31926  0.67378  Biso   1.000  N
  N18      1.0000 0.35369  0.46192  0.17213  Biso   1.000  N
  N19      1.0000 0.20235  0.31103  0.48182  Biso   1.000  N
  N20      1.0000 0.03319  0.81162  0.81366  Biso   1.000  N
  N21      1.0000 0.69159  0.97730  0.31095  Biso   1.000  N
  N22      1.0000 0.70612  0.31377  0.98284  Biso   1.000  N
  N23      1.0000 0.54408  0.82436  0.67548  Biso   1.000  N
  N24      1.0000 0.19204  0.98355  0.17014  Biso   1.000  N
  N25      1.0000 0.85131  0.49441  0.66943  Biso   1.000  N
  N26      1.0000 0.70205  0.81122  0.48212  Biso   1.000  N
  N27      1.0000 0.52467  0.66718  0.81280  Biso   1.000  N
  N28      1.0000 0.34759  0.47056  0.81959  Biso   1.000  N
  N29      1.0000 0.20618  0.81398  0.99835  Biso   1.000  N
  N30      1.0000 0.03609  0.67167  0.65846  Biso   1.000  N
  N31      1.0000 0.70532  0.98523  0.66480  Biso   1.000  N
  N32      1.0000 0.85050  0.31350  0.48869  Biso   1.000  N
  N33      1.0000 0.03068  0.16501  0.81347  Biso   1.000  N
  N34      1.0000 0.21144  0.98882  0.82051  Biso   1.000  N
  N35      1.0000 0.35274  0.30892  0.97457  Biso   1.000  N
  N36      1.0000 0.51592  0.17150  0.66246  Biso   1.000  N
  N37      1.0000 0.20460  0.47481  0.31529  Biso   1.000  N
  N38      1.0000 0.34916  0.16333  0.49183  Biso   1.000  N
  N39      1.0000 0.53474  0.30576  0.16221  Biso   1.000  N
  N40      1.0000 0.70317  0.48903  0.16651  Biso   1.000  N
  N41      1.0000 0.85074  0.16407  0.98242  Biso   1.000  N
  N42      1.0000 0.00961  0.30237  0.32022  Biso   1.000  N
  N43      1.0000 0.34127  0.99321  0.32034  Biso   1.000  N
  N44      1.0000 0.20744  0.66314  0.49795  Biso   1.000  N
  N45      1.0000 0.02550  0.80785  0.16484  Biso   1.000  N
  N46      1.0000 0.83900  0.98213  0.16574  Biso   1.000  N
  N47      1.0000 0.69892  0.66677  0.99984  Biso   1.000  N
  N48      1.0000 0.52011  0.80429  0.32345  Biso   1.000  N
  O1       1.0000 0.36286  0.52558  0.99960  Biso   1.000  O
  O2       1.0000 0.02977  0.33180  0.53953  Biso   1.000  O
  O3       1.0000 0.56170  0.98179  0.33310  Biso   1.000  O
  O4       1.0000 0.87219  0.53122  0.48765  Biso   1.000  O
  O5       1.0000 0.53085  0.33164  0.94285  Biso   1.000  O
  O6       1.0000 0.05491  0.98933  0.14664  Biso   1.000  O
  O7       1.0000 0.18711  0.02931  0.00406  Biso   1.000  O
  O8       1.0000 0.54053  0.83723  0.53939  Biso   1.000  O
  O9       1.0000 0.99117  0.48206  0.32766  Biso   1.000  O
  O10      1.0000 0.67977  0.02921  0.49170  Biso   1.000  O
  O11      1.0000 0.03047  0.83234  0.94832  Biso   1.000  O
  O12      1.0000 0.48613  0.47953  0.14849  Biso   1.000  O
  O13      1.0000 0.68072  0.44575  0.98855  Biso   1.000  O
  O14      1.0000 0.02791  0.63739  0.44371  Biso   1.000  O
  O15      1.0000 0.48697  0.99921  0.64971  Biso   1.000  O
  O16      1.0000 0.18897  0.44681  0.48867  Biso   1.000  O
  O17      1.0000 0.51724  0.63899  0.03469  Biso   1.000  O
  O18      1.0000 0.99402  0.98352  0.83363  Biso   1.000  O
  O19      1.0000 0.86949  0.94689  0.99989  Biso   1.000  O
  O20      1.0000 0.53075  0.13721  0.44427  Biso   1.000  O
  O21      1.0000 0.06347  0.48803  0.64733  Biso   1.000  O
  O22      1.0000 0.36625  0.94607  0.49557  Biso   1.000  O
  O23      1.0000 0.02685  0.14011  0.03273  Biso   1.000  O
  O24      1.0000 0.56799  0.49831  0.83031  Biso   1.000  O
  O25      1.0000 0.97180  0.98025  0.15002  Biso   1.000  O
  O26      1.0000 0.18642  0.94826  0.99277  Biso   1.000  O
  O27      1.0000 0.01966  0.14279  0.94844  Biso   1.000  O
  O28      1.0000 0.47747  0.97955  0.34003  Biso   1.000  O
  O29      1.0000 0.67845  0.94632  0.49007  Biso   1.000  O
  O30      1.0000 0.52234  0.15001  0.52902  Biso   1.000  O
  O31      1.0000 0.56952  0.48717  0.14912  Biso   1.000  O
  O32      1.0000 0.36872  0.44236  0.99407  Biso   1.000  O
  O33      1.0000 0.51936  0.63868  0.94834  Biso   1.000  O
  O34      1.0000 0.07119  0.48331  0.33503  Biso   1.000  O
  O35      1.0000 0.87544  0.44724  0.49353  Biso   1.000  O
  O36      1.0000 0.02352  0.64948  0.52615  Biso   1.000  O
  O37      1.0000 0.07690  0.99243  0.83113  Biso   1.000  O
  O38      1.0000 0.87094  0.03055  0.98642  Biso   1.000  O
  O39      1.0000 0.03271  0.83187  0.03236  Biso   1.000  O
  O40      1.0000 0.57282  0.99886  0.64730  Biso   1.000  O
  O41      1.0000 0.36742  0.03016  0.50026  Biso   1.000  O
  O42      1.0000 0.52336  0.83163  0.45636  Biso   1.000  O
  O43      1.0000 0.48407  0.48755  0.83269  Biso   1.000  O
  O44      1.0000 0.67793  0.53371  0.99005  Biso   1.000  O
  O45      1.0000 0.53012  0.33235  0.02774  Biso   1.000  O
  O46      1.0000 0.98430  0.49682  0.64473  Biso   1.000  O
  O47      1.0000 0.18537  0.52948  0.49352  Biso   1.000  O
  O48      1.0000 0.02501  0.32819  0.45538  Biso   1.000  O
  O49      1.0000 0.01709  0.94381  0.15196  Biso   1.000  O
  O50      1.0000 0.18746  0.99309  0.95263  Biso   1.000  O
  O51      1.0000 0.98269  0.14253  0.99056  Biso   1.000  O
  O52      1.0000 0.52072  0.93937  0.33997  Biso   1.000  O
  O53      1.0000 0.68394  0.98804  0.53180  Biso   1.000  O
  O54      1.0000 0.48201  0.14416  0.48327  Biso   1.000  O
  O55      1.0000 0.53263  0.44127  0.14966  Biso   1.000  O
  O56      1.0000 0.36870  0.48612  0.95585  Biso   1.000  O
  O57      1.0000 0.56168  0.64190  0.99366  Biso   1.000  O
  O58      1.0000 0.02913  0.43736  0.33732  Biso   1.000  O
  O59      1.0000 0.87383  0.49182  0.53154  Biso   1.000  O
  O60      1.0000 0.07061  0.64274  0.49009  Biso   1.000  O
  O61      1.0000 0.03197  0.03151  0.83039  Biso   1.000  O
  O62      1.0000 0.86970  0.99786  0.03100  Biso   1.000  O
  O63      1.0000 0.07007  0.83458  0.99033  Biso   1.000  O
  O64      1.0000 0.53230  0.03842  0.64792  Biso   1.000  O
  O65      1.0000 0.36517  0.99202  0.45758  Biso   1.000  O
  O66      1.0000 0.57087  0.83068  0.49087  Biso   1.000  O
  O67      1.0000 0.52281  0.53643  0.83152  Biso   1.000  O
  O68      1.0000 0.67893  0.49012  0.02964  Biso   1.000  O
  O69      1.0000 0.48900  0.33254  0.98091  Biso   1.000  O
  O70      1.0000 0.02958  0.53567  0.64256  Biso   1.000  O
  O71      1.0000 0.18244  0.48719  0.44869  Biso   1.000  O
  O72      1.0000 0.98748  0.32946  0.50141  Biso   1.000  O
  O73      1.0000 0.01889  0.45247  0.64719  Biso   1.000  O
  O74      1.0000 0.67899  0.99257  0.44671  Biso   1.000  O
  O75      1.0000 0.47757  0.63498  0.99023  Biso   1.000  O
  O76      1.0000 0.53240  0.45218  0.83357  Biso   1.000  O
  O77      1.0000 0.18367  0.98400  0.03705  Biso   1.000  O
  O78      1.0000 0.98373  0.64734  0.48653  Biso   1.000  O
  O79      1.0000 0.52927  0.95590  0.65265  Biso   1.000  O
  O80      1.0000 0.87708  0.48324  0.45069  Biso   1.000  O
  O81      1.0000 0.06595  0.14131  0.98223  Biso   1.000  O
  O82      1.0000 0.04078  0.94729  0.83495  Biso   1.000  O
  O83      1.0000 0.36823  0.47851  0.03747  Biso   1.000  O
  O84      1.0000 0.56661  0.14671  0.48946  Biso   1.000  O
  O85      1.0000 0.03285  0.52102  0.32785  Biso   1.000  O
  O86      1.0000 0.36616  0.98635  0.53965  Biso   1.000  O
  O87      1.0000 0.57161  0.33151  0.98465  Biso   1.000  O
  O88      1.0000 0.52475  0.52541  0.14832  Biso   1.000  O
  O89      1.0000 0.87361  0.97728  0.94975  Biso   1.000  O
  O90      1.0000 0.06956  0.32892  0.50203  Biso   1.000  O
  O91      1.0000 0.52025  0.02314  0.33477  Biso   1.000  O
  O92      1.0000 0.18328  0.48347  0.53363  Biso   1.000  O
  O93      1.0000 0.98731  0.83332  0.99298  Biso   1.000  O
  O94      1.0000 0.01081  0.02422  0.14588  Biso   1.000  O
  O95      1.0000 0.68251  0.49176  0.94681  Biso   1.000  O
  O96      1.0000 0.48824  0.83634  0.49904  Biso   1.000  O
  O97      1.0000 0.48258  0.19159  0.47533  Biso   1.000  O
  O98      1.0000 0.53340  0.44029  0.19814  Biso   1.000  O
  O99      1.0000 0.22926  0.49109  0.45157  Biso   1.000  O
  O100     1.0000 0.98603  0.19207  0.99065  Biso   1.000  O
  O101     1.0000 0.02256  0.43597  0.28846  Biso   1.000  O
  O102     1.0000 0.72751  0.49225  0.03090  Biso   1.000  O
  O103     1.0000 0.07130  0.69041  0.48461  Biso   1.000  O
  O104     1.0000 0.02150  0.94470  0.19968  Biso   1.000  O
  O105     1.0000 0.31665  0.99016  0.45665  Biso   1.000  O
  O106     1.0000 0.56187  0.69012  0.99479  Biso   1.000  O
  O107     1.0000 0.51558  0.93663  0.29117  Biso   1.000  O
  O108     1.0000 0.82088  0.99109  0.02881  Biso   1.000  O
  O109     1.0000 0.56686  0.78263  0.49688  Biso   1.000  O
  O110     1.0000 0.51546  0.53332  0.78290  Biso   1.000  O
  O111     1.0000 0.82457  0.49021  0.53115  Biso   1.000  O
  O112     1.0000 0.06946  0.78560  0.98797  Biso   1.000  O
  O113     1.0000 0.03671  0.53636  0.69160  Biso   1.000  O
  O114     1.0000 0.32059  0.47905  0.95433  Biso   1.000  O
  O115     1.0000 0.98652  0.28144  0.49943  Biso   1.000  O
  O116     1.0000 0.03489  0.02784  0.78162  Biso   1.000  O
  O117     1.0000 0.73351  0.98783  0.52912  Biso   1.000  O
  O118     1.0000 0.48923  0.28487  0.97968  Biso   1.000  O
  O119     1.0000 0.53122  0.04184  0.69670  Biso   1.000  O
  O120     1.0000 0.23644  0.99333  0.95719  Biso   1.000  O
  O121     1.0000 0.06865  0.49317  0.69720  Biso   1.000  O
  O122     1.0000 0.72812  0.03062  0.49104  Biso   1.000  O
  O123     1.0000 0.51487  0.68726  0.03466  Biso   1.000  O
  O124     1.0000 0.56807  0.50243  0.78238  Biso   1.000  O
  O125     1.0000 0.23506  0.03281  0.00263  Biso   1.000  O
  O126     1.0000 0.02672  0.68573  0.44084  Biso   1.000  O
  O127     1.0000 0.49001  0.00274  0.69922  Biso   1.000  O
  O128     1.0000 0.82432  0.52880  0.48991  Biso   1.000  O
  O129     1.0000 0.02940  0.18871  0.03548  Biso   1.000  O
  O130     1.0000 0.99108  0.98777  0.78412  Biso   1.000  O
  O131     1.0000 0.31451  0.52243  0.99640  Biso   1.000  O
  O132     1.0000 0.53233  0.18635  0.44393  Biso   1.000  O
  O133     1.0000 0.98774  0.47469  0.28038  Biso   1.000  O
  O134     1.0000 0.31761  0.94476  0.48785  Biso   1.000  O
  O135     1.0000 0.53526  0.28400  0.94080  Biso   1.000  O
  O136     1.0000 0.48645  0.47875  0.19668  Biso   1.000  O
  O137     1.0000 0.82073  0.94474  0.99236  Biso   1.000  O
  O138     1.0000 0.02922  0.28368  0.54107  Biso   1.000  O
  O139     1.0000 0.55623  0.98071  0.28517  Biso   1.000  O
  O140     1.0000 0.23642  0.44740  0.49004  Biso   1.000  O
  O141     1.0000 0.02252  0.78402  0.94934  Biso   1.000  O
  O142     1.0000 0.05681  0.99074  0.19429  Biso   1.000  O
  O143     1.0000 0.73023  0.44947  0.99074  Biso   1.000  O
  O144     1.0000 0.52561  0.79063  0.54229  Biso   1.000  O
  O145     1.0000 0.56813  0.48559  0.19606  Biso   1.000  O
  O146     1.0000 0.23405  0.53092  0.49618  Biso   1.000  O
  O147     1.0000 0.51923  0.19881  0.52646  Biso   1.000  O
  O148     1.0000 0.07004  0.47518  0.28718  Biso   1.000  O
  O149     1.0000 0.72650  0.53355  0.98575  Biso   1.000  O
  O150     1.0000 0.02035  0.19194  0.94803  Biso   1.000  O
  O151     1.0000 0.97499  0.97987  0.19900  Biso   1.000  O
  O152     1.0000 0.31901  0.02609  0.50343  Biso   1.000  O
  O153     1.0000 0.02798  0.69803  0.52431  Biso   1.000  O
  O154     1.0000 0.47427  0.97419  0.29104  Biso   1.000  O
  O155     1.0000 0.82258  0.02736  0.98479  Biso   1.000  O
  O156     1.0000 0.52236  0.68775  0.95159  Biso   1.000  O
  O157     1.0000 0.48108  0.48345  0.78482  Biso   1.000  O
  O158     1.0000 0.82767  0.44762  0.48687  Biso   1.000  O
  O159     1.0000 0.52202  0.78277  0.46036  Biso   1.000  O
  O160     1.0000 0.98589  0.50302  0.69466  Biso   1.000  O
  O161     1.0000 0.31996  0.43890  0.99128  Biso   1.000  O
  O162     1.0000 0.02975  0.78226  0.03184  Biso   1.000  O
  O163     1.0000 0.07703  0.98585  0.78267  Biso   1.000  O
  O164     1.0000 0.72729  0.94785  0.48394  Biso   1.000  O
  O165     1.0000 0.02473  0.28003  0.45751  Biso   1.000  O
  O166     1.0000 0.57370  0.99848  0.69571  Biso   1.000  O
  O167     1.0000 0.23590  0.94700  0.99483  Biso   1.000  O
  O168     1.0000 0.52992  0.28353  0.02626  Biso   1.000  O
  O169     1.0000 0.01344  0.02613  0.19468  Biso   1.000  O
  O170     1.0000 0.23125  0.98399  0.04035  Biso   1.000  O
  O171     1.0000 0.06797  0.19015  0.98738  Biso   1.000  O
  O172     1.0000 0.51220  0.02039  0.28740  Biso   1.000  O
  O173     1.0000 0.72814  0.99109  0.44389  Biso   1.000  O
  O174     1.0000 0.56632  0.19409  0.48893  Biso   1.000  O
  O175     1.0000 0.52481  0.52624  0.19661  Biso   1.000  O
  O176     1.0000 0.31987  0.47706  0.03639  Biso   1.000  O
  O177     1.0000 0.47754  0.68303  0.99154  Biso   1.000  O
  O178     1.0000 0.03100  0.51779  0.27795  Biso   1.000  O
  O179     1.0000 0.82812  0.48656  0.44587  Biso   1.000  O
  O180     1.0000 0.98505  0.69498  0.47917  Biso   1.000  O
  O181     1.0000 0.03260  0.94632  0.78759  Biso   1.000  O
  O182     1.0000 0.82475  0.98129  0.94811  Biso   1.000  O
  O183     1.0000 0.98630  0.78409  0.99452  Biso   1.000  O
  O184     1.0000 0.53037  0.95909  0.70120  Biso   1.000  O
  O185     1.0000 0.31560  0.98175  0.53946  Biso   1.000  O
  O186     1.0000 0.48663  0.78881  0.50094  Biso   1.000  O
  O187     1.0000 0.52698  0.45197  0.78482  Biso   1.000  O
  O188     1.0000 0.73060  0.48993  0.94795  Biso   1.000  O
  O189     1.0000 0.57253  0.28239  0.98868  Biso   1.000  O
  O190     1.0000 0.01975  0.45489  0.69601  Biso   1.000  O
  O191     1.0000 0.23221  0.48421  0.53733  Biso   1.000  O
  O192     1.0000 0.07013  0.28110  0.49891  Biso   1.000  O
