data_image0
_cell_length_a       46.8944
_cell_length_b       46.6405
_cell_length_c       46.546
_cell_angle_alpha    90
_cell_angle_beta     90
_cell_angle_gamma    90

_symmetry_space_group_name_H-M    "P 1"
_symmetry_int_tables_number       1

loop_
  _symmetry_equiv_pos_as_xyz
  'x, y, z'

loop_
  _atom_site_label
  _atom_site_occupancy
  _atom_site_fract_x
  _atom_site_fract_y
  _atom_site_fract_z
  _atom_site_thermal_displace_type
  _atom_site_B_iso_or_equiv
  _atom_site_type_symbol
  C1       1.0000 0.55816  0.99602  0.33571  Biso   1.000  C
  C2       1.0000 0.31801  0.54357  0.01924  Biso   1.000  C
  C3       1.0000 0.00921  0.30857  0.55898  Biso   1.000  C
  C4       1.0000 0.05989  0.99500  0.19709  Biso   1.000  C
  C5       1.0000 0.82070  0.53629  0.52348  Biso   1.000  C
  C6       1.0000 0.50443  0.31323  0.96769  Biso   1.000  C
  C7       1.0000 0.94096  0.49427  0.33463  Biso   1.000  C
  C8       1.0000 0.19323  0.04335  0.02136  Biso   1.000  C
  C9       1.0000 0.48705  0.81206  0.56150  Biso   1.000  C
  C10      1.0000 0.44170  0.49285  0.19822  Biso   1.000  C
  C11      1.0000 0.68486  0.03504  0.50195  Biso   1.000  C
  C12      1.0000 0.00726  0.81555  0.97007  Biso   1.000  C
  C13      1.0000 0.44892  0.99713  0.69336  Biso   1.000  C
  C14      1.0000 0.68110  0.45135  0.01578  Biso   1.000  C
  C15      1.0000 0.98426  0.67695  0.46884  Biso   1.000  C
  C16      1.0000 0.95336  0.98855  0.83354  Biso   1.000  C
  C17      1.0000 0.18780  0.44866  0.52045  Biso   1.000  C
  C18      1.0000 0.49831  0.67120  0.06551  Biso   1.000  C
  C19      1.0000 0.05756  0.49295  0.69438  Biso   1.000  C
  C20      1.0000 0.82132  0.94781  0.01930  Biso   1.000  C
  C21      1.0000 0.51928  0.17673  0.45845  Biso   1.000  C
  C22      1.0000 0.55606  0.48741  0.83537  Biso   1.000  C
  C23      1.0000 0.31907  0.94881  0.52083  Biso   1.000  C
  C24      1.0000 0.00542  0.17626  0.06294  Biso   1.000  C
  C25      1.0000 0.32743  0.05816  0.52406  Biso   1.000  C
  C26      1.0000 0.51779  0.31570  0.07572  Biso   1.000  C
  C27      1.0000 0.05001  0.50251  0.33497  Biso   1.000  C
  C28      1.0000 0.82413  0.05705  0.01085  Biso   1.000  C
  C29      1.0000 0.02212  0.31428  0.45432  Biso   1.000  C
  C30      1.0000 0.55036  0.49856  0.19580  Biso   1.000  C
  C31      1.0000 0.17583  0.55605  0.51143  Biso   1.000  C
  C32      1.0000 0.98997  0.81596  0.07527  Biso   1.000  C
  C33      1.0000 0.44944  0.00127  0.34018  Biso   1.000  C
  C34      1.0000 0.68416  0.56192  0.01619  Biso   1.000  C
  C35      1.0000 0.48804  0.81520  0.45331  Biso   1.000  C
  C36      1.0000 0.95021  0.99293  0.19671  Biso   1.000  C
  C37      1.0000 0.68312  0.92776  0.52335  Biso   1.000  C
  C38      1.0000 0.49509  0.67718  0.95857  Biso   1.000  C
  C39      1.0000 0.95054  0.48639  0.69291  Biso   1.000  C
  C40      1.0000 0.18654  0.93776  0.00725  Biso   1.000  C
  C41      1.0000 0.99287  0.67379  0.57510  Biso   1.000  C
  C42      1.0000 0.44666  0.50081  0.83909  Biso   1.000  C
  C43      1.0000 0.82861  0.42528  0.51201  Biso   1.000  C
  C44      1.0000 0.01416  0.17318  0.95366  Biso   1.000  C
  C45      1.0000 0.55902  0.98889  0.69210  Biso   1.000  C
  C46      1.0000 0.32181  0.43572  0.01419  Biso   1.000  C
  C47      1.0000 0.51408  0.17514  0.56728  Biso   1.000  C
  C48      1.0000 0.06281  0.99235  0.83320  Biso   1.000  C
  C49      1.0000 0.00464  0.04304  0.83250  Biso   1.000  C
  C50      1.0000 0.82257  0.00391  0.06809  Biso   1.000  C
  C51      1.0000 0.05313  0.81777  0.03048  Biso   1.000  C
  C52      1.0000 0.50567  0.04528  0.69164  Biso   1.000  C
  C53      1.0000 0.32400  0.00251  0.46570  Biso   1.000  C
  C54      1.0000 0.54373  0.81093  0.50800  Biso   1.000  C
  C55      1.0000 0.50594  0.54644  0.83661  Biso   1.000  C
  C56      1.0000 0.67883  0.50423  0.07244  Biso   1.000  C
  C57      1.0000 0.45562  0.31767  0.02730  Biso   1.000  C
  C58      1.0000 0.99827  0.54430  0.69562  Biso   1.000  C
  C59      1.0000 0.17959  0.49567  0.46116  Biso   1.000  C
  C60      1.0000 0.96257  0.30667  0.50414  Biso   1.000  C
  C61      1.0000 0.00752  0.94100  0.20222  Biso   1.000  C
  C62      1.0000 0.18711  0.00137  0.96418  Biso   1.000  C
  C63      1.0000 0.95578  0.17942  0.00290  Biso   1.000  C
  C64      1.0000 0.49893  0.94221  0.32985  Biso   1.000  C
  C65      1.0000 0.68015  0.99419  0.56489  Biso   1.000  C
  C66      1.0000 0.46281  0.17734  0.51327  Biso   1.000  C
  C67      1.0000 0.50027  0.44327  0.20279  Biso   1.000  C
  C68      1.0000 0.32211  0.49087  0.96104  Biso   1.000  C
  C69      1.0000 0.55398  0.67991  0.01146  Biso   1.000  C
  C70      1.0000 0.00274  0.44270  0.33173  Biso   1.000  C
  C71      1.0000 0.82445  0.47583  0.57220  Biso   1.000  C
  C72      1.0000 0.04351  0.67851  0.51632  Biso   1.000  C
  C73      1.0000 0.98878  0.54999  0.34206  Biso   1.000  C
  C74      1.0000 0.31960  0.00667  0.57343  Biso   1.000  C
  C75      1.0000 0.56581  0.31034  0.01415  Biso   1.000  C
  C76      1.0000 0.49506  0.55189  0.19872  Biso   1.000  C
  C77      1.0000 0.82516  0.99764  0.96039  Biso   1.000  C
  C78      1.0000 0.07059  0.31195  0.51290  Biso   1.000  C
  C79      1.0000 0.50513  0.05000  0.33388  Biso   1.000  C
  C80      1.0000 0.18419  0.50809  0.57068  Biso   1.000  C
  C81      1.0000 0.94546  0.82022  0.01413  Biso   1.000  C
  C82      1.0000 0.00105  0.05002  0.19558  Biso   1.000  C
  C83      1.0000 0.68015  0.50715  0.96246  Biso   1.000  C
  C84      1.0000 0.43426  0.81482  0.50488  Biso   1.000  C
  C85      1.0000 0.00660  0.43445  0.68692  Biso   1.000  C
  C86      1.0000 0.68471  0.96748  0.45973  Biso   1.000  C
  C87      1.0000 0.44365  0.67274  0.01623  Biso   1.000  C
  C88      1.0000 0.50033  0.43924  0.84095  Biso   1.000  C
  C89      1.0000 0.19025  0.98247  0.06920  Biso   1.000  C
  C90      1.0000 0.93527  0.67256  0.52647  Biso   1.000  C
  C91      1.0000 0.50043  0.93435  0.69156  Biso   1.000  C
  C92      1.0000 0.81742  0.48681  0.46507  Biso   1.000  C
  C93      1.0000 0.06484  0.17195  0.01618  Biso   1.000  C
  C94      1.0000 0.01279  0.93562  0.83454  Biso   1.000  C
  C95      1.0000 0.31558  0.48633  0.06918  Biso   1.000  C
  C96      1.0000 0.57134  0.17352  0.51472  Biso   1.000  C
  C97      1.0000 0.68747  0.06724  0.49865  Biso   1.000  C
  C98      1.0000 0.49579  0.67120  0.09712  Biso   1.000  C
  C99      1.0000 0.08963  0.49376  0.69570  Biso   1.000  C
  C100     1.0000 0.19335  0.07485  0.02373  Biso   1.000  C
  C101     1.0000 0.98290  0.67826  0.43649  Biso   1.000  C
  C102     1.0000 0.58718  0.48576  0.83557  Biso   1.000  C
  C103     1.0000 0.81862  0.56884  0.52255  Biso   1.000  C
  C104     1.0000 0.00505  0.17595  0.09489  Biso   1.000  C
  C105     1.0000 0.41873  0.00608  0.69457  Biso   1.000  C
  C106     1.0000 0.31745  0.57663  0.01826  Biso   1.000  C
  C107     1.0000 0.52140  0.17606  0.42621  Biso   1.000  C
  C108     1.0000 0.92271  0.99572  0.83168  Biso   1.000  C
  C109     1.0000 0.31778  0.91681  0.52066  Biso   1.000  C
  C110     1.0000 0.51234  0.31228  0.93621  Biso   1.000  C
  C111     1.0000 0.91037  0.49908  0.33593  Biso   1.000  C
  C112     1.0000 0.82230  0.91596  0.02340  Biso   1.000  C
  C113     1.0000 0.01020  0.30801  0.59045  Biso   1.000  C
  C114     1.0000 0.41007  0.48545  0.19829  Biso   1.000  C
  C115     1.0000 0.19112  0.41759  0.52312  Biso   1.000  C
  C116     1.0000 0.01210  0.81340  0.93807  Biso   1.000  C
  C117     1.0000 0.59067  0.99649  0.33502  Biso   1.000  C
  C118     1.0000 0.68342  0.41839  0.01502  Biso   1.000  C
  C119     1.0000 0.48949  0.81107  0.59239  Biso   1.000  C
  C120     1.0000 0.09121  0.99479  0.19670  Biso   1.000  C
  C121     1.0000 0.82208  0.00723  0.09979  Biso   1.000  C
  C122     1.0000 0.08549  0.81608  0.03493  Biso   1.000  C
  C123     1.0000 0.00426  0.07519  0.83171  Biso   1.000  C
  C124     1.0000 0.32481  0.99892  0.43376  Biso   1.000  C
  C125     1.0000 0.57548  0.81003  0.50993  Biso   1.000  C
  C126     1.0000 0.50565  0.07669  0.69419  Biso   1.000  C
  C127     1.0000 0.67691  0.50840  0.10387  Biso   1.000  C
  C128     1.0000 0.42372  0.31643  0.03262  Biso   1.000  C
  C129     1.0000 0.50658  0.58006  0.83565  Biso   1.000  C
  C130     1.0000 0.17805  0.49632  0.42907  Biso   1.000  C
  C131     1.0000 0.93151  0.30599  0.50824  Biso   1.000  C
  C132     1.0000 0.99676  0.57569  0.69904  Biso   1.000  C
  C133     1.0000 0.18633  0.00854  0.93378  Biso   1.000  C
  C134     1.0000 0.92395  0.18118  0.00221  Biso   1.000  C
  C135     1.0000 0.00484  0.90895  0.20277  Biso   1.000  C
  C136     1.0000 0.68047  0.99761  0.59672  Biso   1.000  C
  C137     1.0000 0.43134  0.17681  0.52051  Biso   1.000  C
  C138     1.0000 0.49549  0.91057  0.32684  Biso   1.000  C
  C139     1.0000 0.32144  0.49306  0.92850  Biso   1.000  C
  C140     1.0000 0.58512  0.68354  0.01354  Biso   1.000  C
  C141     1.0000 0.50481  0.41106  0.20300  Biso   1.000  C
  C142     1.0000 0.82298  0.47919  0.60299  Biso   1.000  C
  C143     1.0000 0.07530  0.68113  0.52038  Biso   1.000  C
  C144     1.0000 0.00301  0.41130  0.32914  Biso   1.000  C
  C145     1.0000 0.31564  0.48677  0.10208  Biso   1.000  C
  C146     1.0000 0.10345  0.31502  0.51454  Biso   1.000  C
  C147     1.0000 0.50724  0.08129  0.33381  Biso   1.000  C
  C148     1.0000 0.81641  0.49040  0.43289  Biso   1.000  C
  C149     1.0000 0.59685  0.31134  0.00882  Biso   1.000  C
  C150     1.0000 0.99795  0.08158  0.19285  Biso   1.000  C
  C151     1.0000 0.18927  0.98570  0.10149  Biso   1.000  C
  C152     1.0000 0.40332  0.81535  0.50910  Biso   1.000  C
  C153     1.0000 0.99050  0.58265  0.34357  Biso   1.000  C
  C154     1.0000 0.68354  0.96632  0.42594  Biso   1.000  C
  C155     1.0000 0.91417  0.82009  0.01413  Biso   1.000  C
  C156     1.0000 0.49985  0.58379  0.19786  Biso   1.000  C
  C157     1.0000 0.67912  0.50451  0.93065  Biso   1.000  C
  C158     1.0000 0.90427  0.67014  0.53089  Biso   1.000  C
  C159     1.0000 0.49810  0.90295  0.69269  Biso   1.000  C
  C160     1.0000 0.18382  0.50861  0.60152  Biso   1.000  C
  C161     1.0000 0.41136  0.67214  0.01585  Biso   1.000  C
  C162     1.0000 0.01364  0.90364  0.83590  Biso   1.000  C
  C163     1.0000 0.82739  0.99616  0.92871  Biso   1.000  C
  C164     1.0000 0.60212  0.17162  0.51366  Biso   1.000  C
  C165     1.0000 0.00487  0.40125  0.68666  Biso   1.000  C
  C166     1.0000 0.31889  0.00665  0.60605  Biso   1.000  C
  C167     1.0000 0.09649  0.17117  0.01456  Biso   1.000  C
  C168     1.0000 0.50303  0.40589  0.83875  Biso   1.000  C
  C169     1.0000 0.98493  0.81590  0.10572  Biso   1.000  C
  C170     1.0000 0.09400  0.99384  0.83398  Biso   1.000  C
  C171     1.0000 0.82592  0.08962  0.00956  Biso   1.000  C
  C172     1.0000 0.48784  0.81644  0.42183  Biso   1.000  C
  C173     1.0000 0.59034  0.98468  0.69136  Biso   1.000  C
  C174     1.0000 0.33012  0.08916  0.52778  Biso   1.000  C
  C175     1.0000 0.51964  0.31684  0.10703  Biso   1.000  C
  C176     1.0000 0.41454  0.50720  0.83947  Biso   1.000  C
  C177     1.0000 0.68502  0.59390  0.01165  Biso   1.000  C
  C178     1.0000 0.02537  0.31656  0.42186  Biso   1.000  C
  C179     1.0000 0.91884  0.49114  0.69372  Biso   1.000  C
  C180     1.0000 0.17052  0.58761  0.50578  Biso   1.000  C
  C181     1.0000 0.02064  0.17212  0.92278  Biso   1.000  C
  C182     1.0000 0.91780  0.99152  0.19737  Biso   1.000  C
  C183     1.0000 0.18498  0.90531  0.00906  Biso   1.000  C
  C184     1.0000 0.51170  0.17606  0.59989  Biso   1.000  C
  C185     1.0000 0.41841  0.00746  0.33951  Biso   1.000  C
  C186     1.0000 0.67701  0.89628  0.52265  Biso   1.000  C
  C187     1.0000 0.49606  0.67821  0.92638  Biso   1.000  C
  C188     1.0000 0.58175  0.49358  0.19634  Biso   1.000  C
  C189     1.0000 0.32543  0.40360  0.01572  Biso   1.000  C
  C190     1.0000 0.99681  0.67290  0.60691  Biso   1.000  C
  C191     1.0000 0.08217  0.50347  0.33505  Biso   1.000  C
  C192     1.0000 0.83201  0.39345  0.50911  Biso   1.000  C
  C193     1.0000 0.85419  0.99672  0.91281  Biso   1.000  C
  C194     1.0000 0.89710  0.84581  0.01205  Biso   1.000  C
  C195     1.0000 0.01238  0.89021  0.86419  Biso   1.000  C
  C196     1.0000 0.34599  0.01112  0.62043  Biso   1.000  C
  C197     1.0000 0.38903  0.84318  0.51205  Biso   1.000  C
  C198     1.0000 0.49225  0.88859  0.66441  Biso   1.000  C
  C199     1.0000 0.65247  0.50228  0.91324  Biso   1.000  C
  C200     1.0000 0.60890  0.34153  0.00933  Biso   1.000  C
  C201     1.0000 0.50664  0.39020  0.86490  Biso   1.000  C
  C202     1.0000 0.15671  0.50449  0.61722  Biso   1.000  C
  C203     1.0000 0.11797  0.34389  0.51658  Biso   1.000  C
  C204     1.0000 0.00004  0.38622  0.65962  Biso   1.000  C
  C205     1.0000 0.16132  0.99117  0.11766  Biso   1.000  C
  C206     1.0000 0.11200  0.14338  0.01524  Biso   1.000  C
  C207     1.0000 0.99921  0.09614  0.16474  Biso   1.000  C
  C208     1.0000 0.65648  0.97023  0.40986  Biso   1.000  C
  C209     1.0000 0.61404  0.14292  0.50828  Biso   1.000  C
  C210     1.0000 0.50998  0.09677  0.36116  Biso   1.000  C
  C211     1.0000 0.34236  0.48839  0.11818  Biso   1.000  C
  C212     1.0000 0.39594  0.64597  0.01180  Biso   1.000  C
  C213     1.0000 0.49733  0.59743  0.17011  Biso   1.000  C
  C214     1.0000 0.84366  0.49336  0.41682  Biso   1.000  C
  C215     1.0000 0.88874  0.64264  0.52988  Biso   1.000  C
  C216     1.0000 0.98763  0.59757  0.37105  Biso   1.000  C
  C217     1.0000 0.10901  0.99857  0.86131  Biso   1.000  C
  C218     1.0000 0.85362  0.10472  0.00480  Biso   1.000  C
  C219     1.0000 0.99254  0.84170  0.12234  Biso   1.000  C
  C220     1.0000 0.60708  0.98431  0.66483  Biso   1.000  C
  C221     1.0000 0.35965  0.10146  0.53019  Biso   1.000  C
  C222     1.0000 0.49020  0.84396  0.40564  Biso   1.000  C
  C223     1.0000 0.39791  0.50541  0.86584  Biso   1.000  C
  C224     1.0000 0.65736  0.60997  0.01109  Biso   1.000  C
  C225     1.0000 0.51962  0.34358  0.12373  Biso   1.000  C
  C226     1.0000 0.90130  0.48749  0.66844  Biso   1.000  C
  C227     1.0000 0.14264  0.60369  0.51106  Biso   1.000  C
  C228     1.0000 0.01955  0.34328  0.40605  Biso   1.000  C
  C229     1.0000 0.90184  0.99641  0.17085  Biso   1.000  C
  C230     1.0000 0.15593  0.89065  0.01476  Biso   1.000  C
  C231     1.0000 0.01665  0.14516  0.90763  Biso   1.000  C
  C232     1.0000 0.40256  0.00775  0.36656  Biso   1.000  C
  C233     1.0000 0.64870  0.88142  0.52185  Biso   1.000  C
  C234     1.0000 0.51111  0.14750  0.61558  Biso   1.000  C
  C235     1.0000 0.59838  0.49533  0.16944  Biso   1.000  C
  C236     1.0000 0.35290  0.38908  0.02071  Biso   1.000  C
  C237     1.0000 0.50257  0.64987  0.91101  Biso   1.000  C
  C238     1.0000 0.09742  0.50348  0.36156  Biso   1.000  C
  C239     1.0000 0.85896  0.37778  0.51284  Biso   1.000  C
  C240     1.0000 0.99533  0.64615  0.62163  Biso   1.000  C
  C241     1.0000 0.60251  0.49148  0.86179  Biso   1.000  C
  C242     1.0000 0.84300  0.58694  0.52519  Biso   1.000  C
  C243     1.0000 0.49201  0.83848  0.60851  Biso   1.000  C
  C244     1.0000 0.10458  0.49631  0.66854  Biso   1.000  C
  C245     1.0000 0.34389  0.59271  0.01578  Biso   1.000  C
  C246     1.0000 0.01367  0.83954  0.92046  Biso   1.000  C
  C247     1.0000 0.90673  0.99335  0.85980  Biso   1.000  C
  C248     1.0000 0.66161  0.08542  0.50036  Biso   1.000  C
  C249     1.0000 0.00814  0.33420  0.60642  Biso   1.000  C
  C250     1.0000 0.40000  0.00644  0.67005  Biso   1.000  C
  C251     1.0000 0.16605  0.09092  0.02010  Biso   1.000  C
  C252     1.0000 0.51282  0.33938  0.91870  Biso   1.000  C
  C253     1.0000 0.39426  0.48852  0.17200  Biso   1.000  C
  C254     1.0000 0.16550  0.39864  0.52051  Biso   1.000  C
  C255     1.0000 0.51789  0.14939  0.41051  Biso   1.000  C
  C256     1.0000 0.89433  0.49650  0.36373  Biso   1.000  C
  C257     1.0000 0.65744  0.39931  0.01284  Biso   1.000  C
  C258     1.0000 0.00104  0.14825  0.11145  Biso   1.000  C
  C259     1.0000 0.10934  0.99487  0.16954  Biso   1.000  C
  C260     1.0000 0.34288  0.89987  0.51617  Biso   1.000  C
  C261     1.0000 0.98416  0.65120  0.42044  Biso   1.000  C
  C262     1.0000 0.60630  0.98855  0.36113  Biso   1.000  C
  C263     1.0000 0.84886  0.89887  0.01840  Biso   1.000  C
  C264     1.0000 0.49620  0.64517  0.11551  Biso   1.000  C
  C265     1.0000 0.00724  0.09179  0.85834  Biso   1.000  C
  C266     1.0000 0.84888  0.00537  0.11533  Biso   1.000  C
  C267     1.0000 0.10243  0.84241  0.02794  Biso   1.000  C
  C268     1.0000 0.50918  0.09359  0.66650  Biso   1.000  C
  C269     1.0000 0.35089  0.00223  0.41778  Biso   1.000  C
  C270     1.0000 0.59351  0.83608  0.51191  Biso   1.000  C
  C271     1.0000 0.50774  0.59733  0.86205  Biso   1.000  C
  C272     1.0000 0.64976  0.50357  0.11849  Biso   1.000  C
  C273     1.0000 0.40713  0.34243  0.02723  Biso   1.000  C
  C274     1.0000 0.99571  0.59279  0.67200  Biso   1.000  C
  C275     1.0000 0.14994  0.49789  0.41380  Biso   1.000  C
  C276     1.0000 0.91385  0.33148  0.50857  Biso   1.000  C
  C277     1.0000 0.00291  0.89256  0.17605  Biso   1.000  C
  C278     1.0000 0.15856  0.00614  0.91719  Biso   1.000  C
  C279     1.0000 0.90617  0.15318  0.00367  Biso   1.000  C
  C280     1.0000 0.49355  0.89470  0.35405  Biso   1.000  C
  C281     1.0000 0.65596  0.99074  0.61502  Biso   1.000  C
  C282     1.0000 0.41432  0.15164  0.52741  Biso   1.000  C
  C283     1.0000 0.50840  0.39529  0.17618  Biso   1.000  C
  C284     1.0000 0.34781  0.49530  0.91281  Biso   1.000  C
  C285     1.0000 0.60339  0.65762  0.01101  Biso   1.000  C
  C286     1.0000 0.00741  0.39387  0.35468  Biso   1.000  C
  C287     1.0000 0.84999  0.48342  0.61764  Biso   1.000  C
  C288     1.0000 0.09197  0.65496  0.51542  Biso   1.000  C
  C289     1.0000 0.34002  0.86868  0.51728  Biso   1.000  C
  C290     1.0000 0.51015  0.33800  0.88737  Biso   1.000  C
  C291     1.0000 0.86293  0.49496  0.36301  Biso   1.000  C
  C292     1.0000 0.84771  0.86845  0.02029  Biso   1.000  C
  C293     1.0000 0.00908  0.33411  0.63839  Biso   1.000  C
  C294     1.0000 0.36253  0.48921  0.17275  Biso   1.000  C
  C295     1.0000 0.16909  0.36789  0.51465  Biso   1.000  C
  C296     1.0000 0.01239  0.83864  0.88929  Biso   1.000  C
  C297     1.0000 0.63819  0.98341  0.35821  Biso   1.000  C
  C298     1.0000 0.66079  0.36730  0.01116  Biso   1.000  C
  C299     1.0000 0.49197  0.83705  0.64066  Biso   1.000  C
  C300     1.0000 0.14080  0.99692  0.16974  Biso   1.000  C
  C301     1.0000 0.66541  0.11633  0.50398  Biso   1.000  C
  C302     1.0000 0.49737  0.64878  0.14633  Biso   1.000  C
  C303     1.0000 0.13591  0.50209  0.66964  Biso   1.000  C
  C304     1.0000 0.16599  0.12257  0.01886  Biso   1.000  C
  C305     1.0000 0.98638  0.65091  0.39038  Biso   1.000  C
  C306     1.0000 0.63398  0.49075  0.86085  Biso   1.000  C
  C307     1.0000 0.83850  0.61945  0.52673  Biso   1.000  C
  C308     1.0000 0.00225  0.14966  0.14270  Biso   1.000  C
  C309     1.0000 0.36920  0.01213  0.67234  Biso   1.000  C
  C310     1.0000 0.34222  0.62409  0.01566  Biso   1.000  C
  C311     1.0000 0.51353  0.14993  0.37998  Biso   1.000  C
  C312     1.0000 0.87604  0.99618  0.85921  Biso   1.000  C
  C313     1.0000 0.15062  0.49851  0.38257  Biso   1.000  C
  C314     1.0000 0.38230  0.15279  0.52810  Biso   1.000  C
  C315     1.0000 0.51159  0.36495  0.17700  Biso   1.000  C
  C316     1.0000 0.65066  0.49751  0.14942  Biso   1.000  C
  C317     1.0000 0.87591  0.15613  0.00377  Biso   1.000  C
  C318     1.0000 0.01229  0.36368  0.35244  Biso   1.000  C
  C319     1.0000 0.35028  0.00257  0.38602  Biso   1.000  C
  C320     1.0000 0.12362  0.65616  0.51633  Biso   1.000  C
  C321     1.0000 0.99511  0.86193  0.17687  Biso   1.000  C
  C322     1.0000 0.84896  0.99916  0.14672  Biso   1.000  C
  C323     1.0000 0.63510  0.66001  0.01458  Biso   1.000  C
  C324     1.0000 0.49488  0.86197  0.35413  Biso   1.000  C
  C325     1.0000 0.84827  0.48774  0.64865  Biso   1.000  C
  C326     1.0000 0.62456  0.83273  0.51312  Biso   1.000  C
  C327     1.0000 0.50725  0.62782  0.85960  Biso   1.000  C
  C328     1.0000 0.34574  0.49752  0.88131  Biso   1.000  C
  C329     1.0000 0.13457  0.84062  0.02491  Biso   1.000  C
  C330     1.0000 0.99570  0.62325  0.67531  Biso   1.000  C
  C331     1.0000 0.65983  0.98944  0.64543  Biso   1.000  C
  C332     1.0000 0.88281  0.32719  0.50860  Biso   1.000  C
  C333     1.0000 0.01231  0.12286  0.85529  Biso   1.000  C
  C334     1.0000 0.16062  0.00833  0.88461  Biso   1.000  C
  C335     1.0000 0.37425  0.33839  0.02817  Biso   1.000  C
  C336     1.0000 0.50914  0.12526  0.66927  Biso   1.000  C
  C337     1.0000 0.65467  0.49583  0.88348  Biso   1.000  C
  C338     1.0000 0.85780  0.64274  0.52816  Biso   1.000  C
  C339     1.0000 0.49352  0.85733  0.66381  Biso   1.000  C
  C340     1.0000 0.15755  0.50477  0.64779  Biso   1.000  C
  C341     1.0000 0.36416  0.64612  0.01488  Biso   1.000  C
  C342     1.0000 0.01134  0.85967  0.86544  Biso   1.000  C
  C343     1.0000 0.85417  0.99475  0.88081  Biso   1.000  C
  C344     1.0000 0.64524  0.14027  0.50841  Biso   1.000  C
  C345     1.0000 0.00615  0.35501  0.66103  Biso   1.000  C
  C346     1.0000 0.34702  0.01221  0.65132  Biso   1.000  C
  C347     1.0000 0.14412  0.14408  0.01741  Biso   1.000  C
  C348     1.0000 0.50885  0.35839  0.86378  Biso   1.000  C
  C349     1.0000 0.34190  0.48895  0.14928  Biso   1.000  C
  C350     1.0000 0.15043  0.34499  0.51392  Biso   1.000  C
  C351     1.0000 0.50958  0.12821  0.35940  Biso   1.000  C
  C352     1.0000 0.84140  0.49385  0.38474  Biso   1.000  C
  C353     1.0000 0.64070  0.34312  0.00883  Biso   1.000  C
  C354     1.0000 0.00079  0.12831  0.16503  Biso   1.000  C
  C355     1.0000 0.16247  0.99640  0.14832  Biso   1.000  C
  C356     1.0000 0.35858  0.84473  0.51481  Biso   1.000  C
  C357     1.0000 0.98758  0.62892  0.36908  Biso   1.000  C
  C358     1.0000 0.65947  0.97829  0.37944  Biso   1.000  C
  C359     1.0000 0.86678  0.84535  0.01893  Biso   1.000  C
  C360     1.0000 0.49923  0.62910  0.16868  Biso   1.000  C
  C361     1.0000 0.01447  0.14462  0.87611  Biso   1.000  C
  C362     1.0000 0.87046  0.99487  0.16831  Biso   1.000  C
  C363     1.0000 0.15633  0.85968  0.01847  Biso   1.000  C
  C364     1.0000 0.50962  0.14799  0.64702  Biso   1.000  C
  C365     1.0000 0.37219  0.00595  0.36494  Biso   1.000  C
  C366     1.0000 0.64817  0.85073  0.51799  Biso   1.000  C
  C367     1.0000 0.50377  0.65060  0.87971  Biso   1.000  C
  C368     1.0000 0.62943  0.49496  0.17094  Biso   1.000  C
  C369     1.0000 0.35249  0.35822  0.02404  Biso   1.000  C
  C370     1.0000 0.99788  0.64412  0.65220  Biso   1.000  C
  C371     1.0000 0.13009  0.50103  0.35960  Biso   1.000  C
  C372     1.0000 0.85920  0.34695  0.51101  Biso   1.000  C
  C373     1.0000 0.98950  0.84136  0.15445  Biso   1.000  C
  C374     1.0000 0.13943  0.00581  0.86117  Biso   1.000  C
  C375     1.0000 0.85346  0.13581  0.00466  Biso   1.000  C
  C376     1.0000 0.49300  0.83993  0.37435  Biso   1.000  C
  C377     1.0000 0.63860  0.98467  0.66729  Biso   1.000  C
  C378     1.0000 0.35937  0.13287  0.53051  Biso   1.000  C
  C379     1.0000 0.51569  0.34383  0.15520  Biso   1.000  C
  C380     1.0000 0.36802  0.50232  0.86096  Biso   1.000  C
  C381     1.0000 0.65756  0.64051  0.01478  Biso   1.000  C
  C382     1.0000 0.01777  0.34309  0.37368  Biso   1.000  C
  C383     1.0000 0.86991  0.48946  0.67068  Biso   1.000  C
  C384     1.0000 0.14415  0.63548  0.51306  Biso   1.000  C
  C385     1.0000 0.19257  0.13881  0.02067  Biso   1.000  C
  C386     1.0000 0.00658  0.17669  0.15721  Biso   1.000  C
  C387     1.0000 0.15659  0.99741  0.19705  Biso   1.000  C
  C388     1.0000 0.69431  0.12983  0.50454  Biso   1.000  C
  C389     1.0000 0.51467  0.17608  0.36490  Biso   1.000  C
  C390     1.0000 0.65437  0.98759  0.33062  Biso   1.000  C
  C391     1.0000 0.31537  0.63901  0.01946  Biso   1.000  C
  C392     1.0000 0.49803  0.67588  0.16090  Biso   1.000  C
  C393     1.0000 0.34571  0.48639  0.19854  Biso   1.000  C
  C394     1.0000 0.81061  0.63272  0.52351  Biso   1.000  C
  C395     1.0000 0.99036  0.67896  0.37483  Biso   1.000  C
  C396     1.0000 0.84785  0.49521  0.33519  Biso   1.000  C
  C397     1.0000 0.81987  0.85439  0.02658  Biso   1.000  C
  C398     1.0000 0.00898  0.81100  0.87455  Biso   1.000  C
  C399     1.0000 0.86012  0.99796  0.83245  Biso   1.000  C
  C400     1.0000 0.31125  0.85483  0.52004  Biso   1.000  C
  C401     1.0000 0.49331  0.80965  0.65538  Biso   1.000  C
  C402     1.0000 0.35616  0.01569  0.70091  Biso   1.000  C
  C403     1.0000 0.68890  0.35520  0.01028  Biso   1.000  C
  C404     1.0000 0.51345  0.31065  0.87290  Biso   1.000  C
  C405     1.0000 0.65050  0.48703  0.83505  Biso   1.000  C
  C406     1.0000 0.19799  0.35550  0.51255  Biso   1.000  C
  C407     1.0000 0.01380  0.30744  0.65410  Biso   1.000  C
  C408     1.0000 0.15159  0.50092  0.69614  Biso   1.000  C
  C409     1.0000 0.15637  0.00959  0.83483  Biso   1.000  C
  C410     1.0000 0.82722  0.15353  0.00682  Biso   1.000  C
  C411     1.0000 0.98250  0.81535  0.17029  Biso   1.000  C
  C412     1.0000 0.65441  0.98740  0.69472  Biso   1.000  C
  C413     1.0000 0.33298  0.14936  0.52915  Biso   1.000  C
  C414     1.0000 0.49359  0.81372  0.35935  Biso   1.000  C
  C415     1.0000 0.35391  0.50129  0.83358  Biso   1.000  C
  C416     1.0000 0.68326  0.65800  0.01595  Biso   1.000  C
  C417     1.0000 0.51814  0.31704  0.17169  Biso   1.000  C
  C418     1.0000 0.85502  0.49479  0.69730  Biso   1.000  C
  C419     1.0000 0.17036  0.65197  0.51086  Biso   1.000  C
  C420     1.0000 0.02060  0.31705  0.35754  Biso   1.000  C
  C421     1.0000 0.85408  0.99109  0.19443  Biso   1.000  C
  C422     1.0000 0.18193  0.84293  0.01795  Biso   1.000  C
  C423     1.0000 0.01872  0.17074  0.85890  Biso   1.000  C
  C424     1.0000 0.35709  0.00692  0.33755  Biso   1.000  C
  C425     1.0000 0.67305  0.83318  0.51969  Biso   1.000  C
  C426     1.0000 0.51038  0.17353  0.66339  Biso   1.000  C
  C427     1.0000 0.64354  0.49406  0.19960  Biso   1.000  C
  C428     1.0000 0.32692  0.34026  0.02414  Biso   1.000  C
  C429     1.0000 0.50472  0.67651  0.86429  Biso   1.000  C
  C430     1.0000 0.14548  0.49989  0.33297  Biso   1.000  C
  C431     1.0000 0.83342  0.32960  0.50961  Biso   1.000  C
  C432     1.0000 0.99975  0.67069  0.66928  Biso   1.000  C
  C433     1.0000 0.01106  0.13814  0.82846  Biso   1.000  C
  C434     1.0000 0.82196  0.99719  0.16167  Biso   1.000  C
  C435     1.0000 0.14665  0.81281  0.02571  Biso   1.000  C
  C436     1.0000 0.50655  0.14015  0.69656  Biso   1.000  C
  C437     1.0000 0.32386  0.00085  0.36881  Biso   1.000  C
  C438     1.0000 0.63865  0.80458  0.51254  Biso   1.000  C
  C439     1.0000 0.50726  0.64285  0.83142  Biso   1.000  C
  C440     1.0000 0.67717  0.49567  0.16635  Biso   1.000  C
  C441     1.0000 0.36102  0.31144  0.03325  Biso   1.000  C
  C442     1.0000 0.99789  0.63883  0.70225  Biso   1.000  C
  C443     1.0000 0.17682  0.49575  0.36628  Biso   1.000  C
  C444     1.0000 0.86960  0.29943  0.50756  Biso   1.000  C
  C445     1.0000 0.99186  0.84618  0.20365  Biso   1.000  C
  C446     1.0000 0.18751  0.01370  0.87106  Biso   1.000  C
  C447     1.0000 0.86142  0.18402  0.00347  Biso   1.000  C
  C448     1.0000 0.49582  0.84743  0.32629  Biso   1.000  C
  C449     1.0000 0.68653  0.99502  0.65998  Biso   1.000  C
  C450     1.0000 0.36811  0.18147  0.52690  Biso   1.000  C
  C451     1.0000 0.51266  0.34963  0.20391  Biso   1.000  C
  C452     1.0000 0.32005  0.49678  0.86516  Biso   1.000  C
  C453     1.0000 0.64830  0.68770  0.01661  Biso   1.000  C
  C454     1.0000 0.01180  0.34829  0.32524  Biso   1.000  C
  C455     1.0000 0.82252  0.49129  0.66550  Biso   1.000  C
  C456     1.0000 0.13935  0.68329  0.52008  Biso   1.000  C
  C457     1.0000 0.99048  0.64534  0.34257  Biso   1.000  C
  C458     1.0000 0.32133  0.01231  0.66826  Biso   1.000  C
  C459     1.0000 0.65900  0.31807  0.01009  Biso   1.000  C
  C460     1.0000 0.50085  0.64559  0.19542  Biso   1.000  C
  C461     1.0000 0.82767  0.99661  0.86523  Biso   1.000  C
  C462     1.0000 0.16750  0.32077  0.50786  Biso   1.000  C
  C463     1.0000 0.50745  0.14378  0.33254  Biso   1.000  C
  C464     1.0000 0.18385  0.50770  0.66272  Biso   1.000  C
  C465     1.0000 0.85011  0.81995  0.02253  Biso   1.000  C
  C466     1.0000 0.00150  0.14476  0.19180  Biso   1.000  C
  C467     1.0000 0.68169  0.49432  0.86858  Biso   1.000  C
  C468     1.0000 0.34017  0.82020  0.51906  Biso   1.000  C
  C469     1.0000 0.00891  0.33829  0.68746  Biso   1.000  C
  C470     1.0000 0.68710  0.97900  0.36402  Biso   1.000  C
  C471     1.0000 0.34763  0.67287  0.01697  Biso   1.000  C
  C472     1.0000 0.50992  0.34263  0.83787  Biso   1.000  C
  C473     1.0000 0.18949  0.99663  0.16483  Biso   1.000  C
  C474     1.0000 0.84057  0.66843  0.52905  Biso   1.000  C
  C475     1.0000 0.49319  0.84018  0.68947  Biso   1.000  C
  C476     1.0000 0.81434  0.49620  0.36822  Biso   1.000  C
  C477     1.0000 0.15933  0.17109  0.01861  Biso   1.000  C
  C478     1.0000 0.00835  0.84201  0.84023  Biso   1.000  C
  C479     1.0000 0.31407  0.48849  0.16492  Biso   1.000  C
  C480     1.0000 0.66381  0.16573  0.51042  Biso   1.000  C
  C481     1.0000 0.35304  0.79179  0.51670  Biso   1.000  C
  C482     1.0000 0.50510  0.35746  0.81135  Biso   1.000  C
  C483     1.0000 0.78795  0.49427  0.38471  Biso   1.000  C
  C484     1.0000 0.86530  0.79289  0.02117  Biso   1.000  C
  C485     1.0000 0.00980  0.35322  0.71512  Biso   1.000  C
  C486     1.0000 0.28769  0.49144  0.14828  Biso   1.000  C
  C487     1.0000 0.15371  0.29246  0.50781  Biso   1.000  C
  C488     1.0000 0.00986  0.85470  0.81189  Biso   1.000  C
  C489     1.0000 0.71280  0.97282  0.37915  Biso   1.000  C
  C490     1.0000 0.64626  0.28794  0.00981  Biso   1.000  C
  C491     1.0000 0.49520  0.85369  0.71775  Biso   1.000  C
  C492     1.0000 0.21597  0.98858  0.14833  Biso   1.000  C
  C493     1.0000 0.65124  0.19443  0.51701  Biso   1.000  C
  C494     1.0000 0.50591  0.63275  0.22413  Biso   1.000  C
  C495     1.0000 0.21139  0.51279  0.64664  Biso   1.000  C
  C496     1.0000 0.14353  0.19838  0.01634  Biso   1.000  C
  C497     1.0000 0.99546  0.63007  0.31651  Biso   1.000  C
  C498     1.0000 0.70843  0.50085  0.88396  Biso   1.000  C
  C499     1.0000 0.85557  0.69566  0.53187  Biso   1.000  C
  C500     1.0000 0.99608  0.13041  0.21912  Biso   1.000  C
  C501     1.0000 0.29372  0.00459  0.65338  Biso   1.000  C
  C502     1.0000 0.36213  0.69972  0.01954  Biso   1.000  C
  C503     1.0000 0.50086  0.12861  0.30555  Biso   1.000  C
  C504     1.0000 0.80129  0.99407  0.88007  Biso   1.000  C
  C505     1.0000 0.63504  0.47938  0.80890  Biso   1.000  C
  C506     1.0000 0.78729  0.61272  0.51898  Biso   1.000  C
  C507     1.0000 0.49183  0.78250  0.63915  Biso   1.000  C
  C508     1.0000 0.13509  0.49769  0.72322  Biso   1.000  C
  C509     1.0000 0.28739  0.62250  0.02308  Biso   1.000  C
  C510     1.0000 0.00692  0.78412  0.89172  Biso   1.000  C
  C511     1.0000 0.87625  0.00237  0.80429  Biso   1.000  C
  C512     1.0000 0.71941  0.11182  0.50007  Biso   1.000  C
  C513     1.0000 0.01672  0.28034  0.63669  Biso   1.000  C
  C514     1.0000 0.37551  0.01798  0.72572  Biso   1.000  C
  C515     1.0000 0.21970  0.12304  0.02508  Biso   1.000  C
  C516     1.0000 0.51623  0.28331  0.89079  Biso   1.000  C
  C517     1.0000 0.36166  0.48191  0.22559  Biso   1.000  C
  C518     1.0000 0.22484  0.37373  0.51348  Biso   1.000  C
  C519     1.0000 0.52298  0.20266  0.38004  Biso   1.000  C
  C520     1.0000 0.86419  0.49624  0.30766  Biso   1.000  C
  C521     1.0000 0.71515  0.37455  0.01087  Biso   1.000  C
  C522     1.0000 0.01056  0.20374  0.14109  Biso   1.000  C
  C523     1.0000 0.13890  0.00002  0.22362  Biso   1.000  C
  C524     1.0000 0.28558  0.87235  0.52517  Biso   1.000  C
  C525     1.0000 0.98736  0.70599  0.39036  Biso   1.000  C
  C526     1.0000 0.63692  0.99792  0.30505  Biso   1.000  C
  C527     1.0000 0.79400  0.87219  0.03422  Biso   1.000  C
  C528     1.0000 0.49353  0.70244  0.14311  Biso   1.000  C
  C529     1.0000 0.80031  0.13768  0.00894  Biso   1.000  C
  C530     1.0000 0.97398  0.78937  0.15490  Biso   1.000  C
  C531     1.0000 0.13938  0.00836  0.80814  Biso   1.000  C
  C532     1.0000 0.30450  0.13575  0.53292  Biso   1.000  C
  C533     1.0000 0.49037  0.78605  0.37626  Biso   1.000  C
  C534     1.0000 0.63736  0.98417  0.72079  Biso   1.000  C
  C535     1.0000 0.71178  0.64241  0.01506  Biso   1.000  C
  C536     1.0000 0.51960  0.28976  0.15525  Biso   1.000  C
  C537     1.0000 0.37140  0.50440  0.80841  Biso   1.000  C
  C538     1.0000 0.19726  0.63706  0.50226  Biso   1.000  C
  C539     1.0000 0.02706  0.28991  0.37326  Biso   1.000  C
  C540     1.0000 0.87235  0.49912  0.72204  Biso   1.000  C
  C541     1.0000 0.20953  0.85774  0.01104  Biso   1.000  C
  C542     1.0000 0.02380  0.19853  0.87415  Biso   1.000  C
  C543     1.0000 0.86922  0.98544  0.22180  Biso   1.000  C
  C544     1.0000 0.70210  0.84819  0.52184  Biso   1.000  C
  C545     1.0000 0.51255  0.20151  0.64838  Biso   1.000  C
  C546     1.0000 0.37288  0.00568  0.30987  Biso   1.000  C
  C547     1.0000 0.30097  0.35380  0.01614  Biso   1.000  C
  C548     1.0000 0.50372  0.70472  0.87942  Biso   1.000  C
  C549     1.0000 0.62757  0.49151  0.22627  Biso   1.000  C
  C550     1.0000 0.80512  0.34459  0.50780  Biso   1.000  C
  C551     1.0000 0.00373  0.69810  0.65410  Biso   1.000  C
  C552     1.0000 0.12911  0.50308  0.30563  Biso   1.000  C
  C553     1.0000 0.00524  0.12232  0.80192  Biso   1.000  C
  C554     1.0000 0.79523  0.00507  0.14744  Biso   1.000  C
  C555     1.0000 0.12986  0.78566  0.03117  Biso   1.000  C
  C556     1.0000 0.50537  0.12345  0.72405  Biso   1.000  C
  C557     1.0000 0.29657  0.99837  0.38541  Biso   1.000  C
  C558     1.0000 0.62057  0.77882  0.51211  Biso   1.000  C
  C559     1.0000 0.50259  0.62616  0.80569  Biso   1.000  C
  C560     1.0000 0.70407  0.50335  0.15088  Biso   1.000  C
  C561     1.0000 0.37921  0.28666  0.04086  Biso   1.000  C
  C562     1.0000 0.99817  0.62122  0.72896  Biso   1.000  C
  C563     1.0000 0.20316  0.49375  0.38114  Biso   1.000  C
  C564     1.0000 0.88616  0.27320  0.50890  Biso   1.000  C
  C565     1.0000 0.99733  0.86358  0.23062  Biso   1.000  C
  C566     1.0000 0.21489  0.01549  0.88711  Biso   1.000  C
  C567     1.0000 0.87812  0.21001  0.00459  Biso   1.000  C
  C568     1.0000 0.49985  0.86361  0.29946  Biso   1.000  C
  C569     1.0000 0.71038  0.00400  0.64225  Biso   1.000  C
  C570     1.0000 0.38644  0.20727  0.52318  Biso   1.000  C
  C571     1.0000 0.50973  0.36566  0.23067  Biso   1.000  C
  C572     1.0000 0.29340  0.49225  0.88158  Biso   1.000  C
  C573     1.0000 0.63058  0.71463  0.01623  Biso   1.000  C
  C574     1.0000 0.00688  0.36539  0.29841  Biso   1.000  C
  C575     1.0000 0.79482  0.48676  0.64933  Biso   1.000  C
  C576     1.0000 0.12179  0.70868  0.52885  Biso   1.000  C
  C577     1.0000 0.28813  0.48985  0.11746  Biso   1.000  C
  C578     1.0000 0.12164  0.29041  0.51084  Biso   1.000  C
  C579     1.0000 0.50266  0.09678  0.30596  Biso   1.000  C
  C580     1.0000 0.78852  0.49180  0.41717  Biso   1.000  C
  C581     1.0000 0.61508  0.28609  0.00903  Biso   1.000  C
  C582     1.0000 0.99308  0.09880  0.21944  Biso   1.000  C
  C583     1.0000 0.21607  0.98551  0.11665  Biso   1.000  C
  C584     1.0000 0.38442  0.79095  0.51277  Biso   1.000  C
  C585     1.0000 0.99565  0.59796  0.31612  Biso   1.000  C
  C586     1.0000 0.71195  0.96637  0.41094  Biso   1.000  C
  C587     1.0000 0.89755  0.79325  0.01862  Biso   1.000  C
  C588     1.0000 0.50510  0.60103  0.22436  Biso   1.000  C
  C589     1.0000 0.70782  0.50396  0.91594  Biso   1.000  C
  C590     1.0000 0.88685  0.69613  0.53330  Biso   1.000  C
  C591     1.0000 0.49792  0.88568  0.71901  Biso   1.000  C
  C592     1.0000 0.21148  0.51216  0.61574  Biso   1.000  C
  C593     1.0000 0.39433  0.69951  0.02122  Biso   1.000  C
  C594     1.0000 0.01461  0.88535  0.80999  Biso   1.000  C
  C595     1.0000 0.80077  0.99415  0.91157  Biso   1.000  C
  C596     1.0000 0.62043  0.19587  0.51742  Biso   1.000  C
  C597     1.0000 0.00814  0.38497  0.71364  Biso   1.000  C
  C598     1.0000 0.29245  0.00279  0.62189  Biso   1.000  C
  C599     1.0000 0.11227  0.19734  0.01309  Biso   1.000  C
  C600     1.0000 0.50083  0.38907  0.81242  Biso   1.000  C
  C601     1.0000 0.21328  0.01362  0.91870  Biso   1.000  C
  C602     1.0000 0.90973  0.20836  0.00208  Biso   1.000  C
  C603     1.0000 0.00475  0.89371  0.23036  Biso   1.000  C
  C604     1.0000 0.70655  0.00606  0.61091  Biso   1.000  C
  C605     1.0000 0.41735  0.20434  0.52018  Biso   1.000  C
  C606     1.0000 0.49950  0.89486  0.29954  Biso   1.000  C
  C607     1.0000 0.29394  0.49326  0.91367  Biso   1.000  C
  C608     1.0000 0.59865  0.71190  0.01525  Biso   1.000  C
  C609     1.0000 0.50652  0.39609  0.23248  Biso   1.000  C
  C610     1.0000 0.79519  0.47748  0.61839  Biso   1.000  C
  C611     1.0000 0.08992  0.70688  0.53133  Biso   1.000  C
  C612     1.0000 0.00237  0.39668  0.30017  Biso   1.000  C
  C613     1.0000 0.79515  0.01107  0.11558  Biso   1.000  C
  C614     1.0000 0.09901  0.78750  0.03610  Biso   1.000  C
  C615     1.0000 0.00248  0.09068  0.80402  Biso   1.000  C
  C616     1.0000 0.29760  0.99818  0.41717  Biso   1.000  C
  C617     1.0000 0.58966  0.78113  0.50946  Biso   1.000  C
  C618     1.0000 0.50475  0.09250  0.72150  Biso   1.000  C
  C619     1.0000 0.70377  0.51004  0.12097  Biso   1.000  C
  C620     1.0000 0.41107  0.28959  0.04281  Biso   1.000  C
  C621     1.0000 0.50434  0.59402  0.80735  Biso   1.000  C
  C622     1.0000 0.20418  0.49278  0.41322  Biso   1.000  C
  C623     1.0000 0.91782  0.27598  0.51124  Biso   1.000  C
  C624     1.0000 0.99786  0.58881  0.72781  Biso   1.000  C
  C625     1.0000 0.02529  0.19871  0.90619  Biso   1.000  C
  C626     1.0000 0.90153  0.98788  0.22386  Biso   1.000  C
  C627     1.0000 0.21130  0.88861  0.00793  Biso   1.000  C
  C628     1.0000 0.51247  0.20260  0.61729  Biso   1.000  C
  C629     1.0000 0.40420  0.00746  0.31093  Biso   1.000  C
  C630     1.0000 0.70331  0.87795  0.52238  Biso   1.000  C
  C631     1.0000 0.49862  0.70564  0.91054  Biso   1.000  C
  C632     1.0000 0.59586  0.49089  0.22406  Biso   1.000  C
  C633     1.0000 0.29983  0.38491  0.01220  Biso   1.000  C
  C634     1.0000 0.00250  0.69982  0.62218  Biso   1.000  C
  C635     1.0000 0.09714  0.50463  0.30704  Biso   1.000  C
  C636     1.0000 0.80550  0.37557  0.50751  Biso   1.000  C
  C637     1.0000 0.97360  0.78939  0.12238  Biso   1.000  C
  C638     1.0000 0.10914  0.99889  0.80703  Biso   1.000  C
  C639     1.0000 0.80009  0.10670  0.01133  Biso   1.000  C
  C640     1.0000 0.48603  0.78858  0.40708  Biso   1.000  C
  C641     1.0000 0.60525  0.98164  0.71897  Biso   1.000  C
  C642     1.0000 0.30398  0.10519  0.53148  Biso   1.000  C
  C643     1.0000 0.51926  0.29045  0.12389  Biso   1.000  C
  C644     1.0000 0.40168  0.50918  0.81122  Biso   1.000  C
  C645     1.0000 0.71277  0.61101  0.01316  Biso   1.000  C
  C646     1.0000 0.02881  0.28998  0.40447  Biso   1.000  C
  C647     1.0000 0.90363  0.49778  0.72007  Biso   1.000  C
  C648     1.0000 0.19706  0.60565  0.50187  Biso   1.000  C
  C649     1.0000 0.98285  0.70674  0.42081  Biso   1.000  C
  C650     1.0000 0.40620  0.01317  0.72238  Biso   1.000  C
  C651     1.0000 0.71248  0.40604  0.01357  Biso   1.000  C
  C652     1.0000 0.49145  0.69878  0.11137  Biso   1.000  C
  C653     1.0000 0.90782  0.99971  0.80420  Biso   1.000  C
  C654     1.0000 0.22173  0.40495  0.51901  Biso   1.000  C
  C655     1.0000 0.52547  0.20369  0.41120  Biso   1.000  C
  C656     1.0000 0.10374  0.49524  0.72230  Biso   1.000  C
  C657     1.0000 0.79453  0.90335  0.03053  Biso   1.000  C
  C658     1.0000 0.00781  0.20321  0.11061  Biso   1.000  C
  C659     1.0000 0.60257  0.47924  0.80866  Biso   1.000  C
  C660     1.0000 0.28853  0.90314  0.52669  Biso   1.000  C
  C661     1.0000 0.01289  0.28058  0.60505  Biso   1.000  C
  C662     1.0000 0.60571  0.00205  0.30824  Biso   1.000  C
  C663     1.0000 0.28898  0.59128  0.02296  Biso   1.000  C
  C664     1.0000 0.51569  0.28490  0.92144  Biso   1.000  C
  C665     1.0000 0.10743  0.99527  0.22319  Biso   1.000  C
  C666     1.0000 0.79065  0.58178  0.51747  Biso   1.000  C
  C667     1.0000 0.49018  0.78307  0.60717  Biso   1.000  C
  C668     1.0000 0.89426  0.49788  0.30811  Biso   1.000  C
  C669     1.0000 0.21993  0.09111  0.02519  Biso   1.000  C
  C670     1.0000 0.00924  0.78572  0.92272  Biso   1.000  C
  C671     1.0000 0.39301  0.48007  0.22443  Biso   1.000  C
  C672     1.0000 0.71616  0.08060  0.49686  Biso   1.000  C
  C673     1.0000 0.20245  0.02038  0.82310  Biso   1.000  C
  C674     1.0000 0.81417  0.19902  0.00768  Biso   1.000  C
  C675     1.0000 0.98189  0.80109  0.21796  Biso   1.000  C
  C676     1.0000 0.70266  0.99408  0.70593  Biso   1.000  C
  C677     1.0000 0.32244  0.19753  0.52490  Biso   1.000  C
  C678     1.0000 0.49515  0.80083  0.31199  Biso   1.000  C
  C679     1.0000 0.30902  0.49748  0.81810  Biso   1.000  C
  C680     1.0000 0.69497  0.70338  0.02053  Biso   1.000  C
  C681     1.0000 0.51583  0.30545  0.21975  Biso   1.000  C
  C682     1.0000 0.81038  0.49414  0.71362  Biso   1.000  C
  C683     1.0000 0.18685  0.69715  0.52062  Biso   1.000  C
  C684     1.0000 0.01620  0.30015  0.31192  Biso   1.000  C
  C685     1.0000 0.80637  0.98969  0.20772  Biso   1.000  C
  C686     1.0000 0.19332  0.79579  0.02273  Biso   1.000  C
  C687     1.0000 0.01605  0.18456  0.81184  Biso   1.000  C
  C688     1.0000 0.31148  0.00628  0.32301  Biso   1.000  C
  C689     1.0000 0.68488  0.78571  0.51821  Biso   1.000  C
  C690     1.0000 0.50675  0.18646  0.71147  Biso   1.000  C
  C691     1.0000 0.68873  0.49309  0.21515  Biso   1.000  C
  C692     1.0000 0.31408  0.29339  0.03123  Biso   1.000  C
  C693     1.0000 0.50932  0.68727  0.81529  Biso   1.000  C
  C694     1.0000 0.19239  0.49681  0.31851  Biso   1.000  C
  C695     1.0000 0.82413  0.28193  0.50874  Biso   1.000  C
  C696     1.0000 0.00110  0.68636  0.71781  Biso   1.000  C
  C697     1.0000 0.69998  0.98877  0.31612  Biso   1.000  C
  C698     1.0000 0.30055  0.68643  0.02350  Biso   1.000  C
  C699     1.0000 0.01406  0.28996  0.70089  Biso   1.000  C
  C700     1.0000 0.20207  0.99611  0.21243  Biso   1.000  C
  C701     1.0000 0.79441  0.67921  0.52146  Biso   1.000  C
  C702     1.0000 0.51239  0.29481  0.82513  Biso   1.000  C
  C703     1.0000 0.80187  0.49526  0.32025  Biso   1.000  C
  C704     1.0000 0.20495  0.18552  0.02329  Biso   1.000  C
  C705     1.0000 0.49614  0.79306  0.70174  Biso   1.000  C
  C706     1.0000 0.29916  0.48923  0.21156  Biso   1.000  C
  C707     1.0000 0.71106  0.17644  0.50823  Biso   1.000  C
  C708     1.0000 0.00616  0.79515  0.82869  Biso   1.000  C
  C709     1.0000 0.30901  0.01918  0.71511  Biso   1.000  C
  C710     1.0000 0.70590  0.30857  0.01035  Biso   1.000  C
  C711     1.0000 0.99071  0.69278  0.32803  Biso   1.000  C
  C712     1.0000 0.81351  0.99928  0.81834  Biso   1.000  C
  C713     1.0000 0.21525  0.30934  0.50770  Biso   1.000  C
  C714     1.0000 0.49922  0.69200  0.20638  Biso   1.000  C
  C715     1.0000 0.19762  0.50748  0.70948  Biso   1.000  C
  C716     1.0000 0.80507  0.80761  0.03134  Biso   1.000  C
  C717     1.0000 0.51026  0.18850  0.31700  Biso   1.000  C
  C718     1.0000 0.69907  0.49148  0.82218  Biso   1.000  C
  C719     1.0000 0.29276  0.80861  0.52427  Biso   1.000  C
  C720     1.0000 0.00938  0.19155  0.20390  Biso   1.000  C
  C721     1.0000 0.51071  0.77405  0.31756  Biso   1.000  C
  C722     1.0000 0.27989  0.50920  0.82508  Biso   1.000  C
  C723     1.0000 0.79688  0.28565  0.52671  Biso   1.000  C
  C724     1.0000 0.96888  0.80650  0.24608  Biso   1.000  C
  C725     1.0000 0.78164  0.50557  0.70888  Biso   1.000  C
  C726     1.0000 0.28522  0.29918  0.04267  Biso   1.000  C
  C727     1.0000 0.00509  0.27094  0.31678  Biso   1.000  C
  C728     1.0000 0.22696  0.04003  0.82912  Biso   1.000  C
  C729     1.0000 0.71082  0.78669  0.53592  Biso   1.000  C
  C730     1.0000 0.49695  0.30684  0.24463  Biso   1.000  C
  C731     1.0000 0.73305  0.98495  0.70026  Biso   1.000  C
  C732     1.0000 0.22136  0.80132  0.03625  Biso   1.000  C
  C733     1.0000 0.48804  0.18462  0.73726  Biso   1.000  C
  C734     1.0000 0.68545  0.50814  0.24239  Biso   1.000  C
  C735     1.0000 0.18233  0.72557  0.50998  Biso   1.000  C
  C736     1.0000 0.00284  0.21250  0.81555  Biso   1.000  C
  C737     1.0000 0.21698  0.47731  0.31994  Biso   1.000  C
  C738     1.0000 0.71747  0.69934  0.04064  Biso   1.000  C
  C739     1.0000 0.01324  0.68170  0.74701  Biso   1.000  C
  C740     1.0000 0.77928  0.97697  0.20161  Biso   1.000  C
  C741     1.0000 0.29536  0.19184  0.50823  Biso   1.000  C
  C742     1.0000 0.52658  0.68419  0.78809  Biso   1.000  C
  C743     1.0000 0.28858  0.98453  0.32294  Biso   1.000  C
  C744     1.0000 0.79004  0.19679  0.02876  Biso   1.000  C
  C745     1.0000 0.00740  0.72038  0.33104  Biso   1.000  C
  C746     1.0000 0.28098  0.03476  0.70883  Biso   1.000  C
  C747     1.0000 0.73240  0.31286  0.99426  Biso   1.000  C
  C748     1.0000 0.51586  0.71765  0.20094  Biso   1.000  C
  C749     1.0000 0.81684  0.98461  0.79184  Biso   1.000  C
  C750     1.0000 0.24138  0.31257  0.52487  Biso   1.000  C
  C751     1.0000 0.52163  0.18535  0.28813  Biso   1.000  C
  C752     1.0000 0.22287  0.49037  0.70535  Biso   1.000  C
  C753     1.0000 0.77761  0.81563  0.01860  Biso   1.000  C
  C754     1.0000 0.99865  0.21998  0.19823  Biso   1.000  C
  C755     1.0000 0.72508  0.47472  0.82508  Biso   1.000  C
  C756     1.0000 0.26694  0.81090  0.50789  Biso   1.000  C
  C757     1.0000 0.99838  0.26270  0.69562  Biso   1.000  C
  C758     1.0000 0.72764  0.99872  0.32154  Biso   1.000  C
  C759     1.0000 0.30407  0.71270  0.04082  Biso   1.000  C
  C760     1.0000 0.52429  0.30026  0.79663  Biso   1.000  C
  C761     1.0000 0.23092  0.01216  0.20664  Biso   1.000  C
  C762     1.0000 0.80044  0.70778  0.50897  Biso   1.000  C
  C763     1.0000 0.48041  0.79398  0.72942  Biso   1.000  C
  C764     1.0000 0.77411  0.50944  0.32406  Biso   1.000  C
  C765     1.0000 0.20011  0.21215  0.04148  Biso   1.000  C
  C766     1.0000 0.98641  0.79757  0.80433  Biso   1.000  C
  C767     1.0000 0.30361  0.50528  0.23834  Biso   1.000  C
  C768     1.0000 0.70838  0.20403  0.49439  Biso   1.000  C
  C769     1.0000 0.49329  0.71378  0.81776  Biso   1.000  C
  C770     1.0000 0.81661  0.48029  0.74054  Biso   1.000  C
  C771     1.0000 0.68203  0.75931  0.49962  Biso   1.000  C
  C772     1.0000 0.98947  0.71537  0.71292  Biso   1.000  C
  C773     1.0000 0.31238  0.48520  0.79007  Biso   1.000  C
  C774     1.0000 0.18780  0.76785  0.00894  Biso   1.000  C
  C775     1.0000 0.02973  0.17917  0.78529  Biso   1.000  C
  C776     1.0000 0.69804  0.00687  0.73551  Biso   1.000  C
  C777     1.0000 0.82694  0.25332  0.49377  Biso   1.000  C
  C778     1.0000 0.52802  0.21085  0.71067  Biso   1.000  C
  C779     1.0000 0.20191  0.00696  0.79369  Biso   1.000  C
  C780     1.0000 0.32143  0.26382  0.02421  Biso   1.000  C
  C781     1.0000 0.53496  0.28070  0.21734  Biso   1.000  C
  C782     1.0000 0.19003  0.51643  0.29401  Biso   1.000  C
  C783     1.0000 0.32512  0.22744  0.53318  Biso   1.000  C
  C784     1.0000 0.02762  0.30723  0.28300  Biso   1.000  C
  C785     1.0000 0.71632  0.47840  0.21049  Biso   1.000  C
  C786     1.0000 0.81652  0.22572  0.99043  Biso   1.000  C
  C787     1.0000 0.99628  0.77334  0.21213  Biso   1.000  C
  C788     1.0000 0.31306  0.02548  0.29757  Biso   1.000  C
  C789     1.0000 0.21602  0.69050  0.53112  Biso   1.000  C
  C790     1.0000 0.48223  0.80387  0.28447  Biso   1.000  C
  C791     1.0000 0.81227  0.00417  0.23539  Biso   1.000  C
  C792     1.0000 0.69539  0.72925  0.00294  Biso   1.000  C
  C793     1.0000 0.49549  0.21489  0.32481  Biso   1.000  C
  C794     1.0000 0.26943  0.47586  0.20739  Biso   1.000  C
  C795     1.0000 0.21390  0.28442  0.48835  Biso   1.000  C
  C796     1.0000 0.02520  0.18688  0.23058  Biso   1.000  C
  C797     1.0000 0.80459  0.48070  0.29377  Biso   1.000  C
  C798     1.0000 0.70475  0.28176  0.02768  Biso   1.000  C
  C799     1.0000 0.97501  0.68856  0.30026  Biso   1.000  C
  C800     1.0000 0.20003  0.98209  0.24147  Biso   1.000  C
  C801     1.0000 0.29522  0.78287  0.54423  Biso   1.000  C
  C802     1.0000 0.48428  0.68792  0.23544  Biso   1.000  C
  C803     1.0000 0.69285  0.97861  0.28713  Biso   1.000  C
  C804     1.0000 0.80947  0.77951  0.04491  Biso   1.000  C
  C805     1.0000 0.51594  0.76900  0.69756  Biso   1.000  C
  C806     1.0000 0.69867  0.50821  0.79576  Biso   1.000  C
  C807     1.0000 0.76580  0.67263  0.53209  Biso   1.000  C
  C808     1.0000 0.02646  0.77114  0.82883  Biso   1.000  C
  C809     1.0000 0.19663  0.52493  0.73752  Biso   1.000  C
  C810     1.0000 0.27368  0.68282  0.00598  Biso   1.000  C
  C811     1.0000 0.02898  0.29384  0.72866  Biso   1.000  C
  C812     1.0000 0.78541  0.01488  0.82129  Biso   1.000  C
  C813     1.0000 0.73887  0.16894  0.52131  Biso   1.000  C
  C814     1.0000 0.49602  0.26834  0.82998  Biso   1.000  C
  C815     1.0000 0.31274  0.00730  0.74541  Biso   1.000  C
  C816     1.0000 0.23336  0.18184  0.00873  Biso   1.000  C
  C817     1.0000 0.00260  0.23360  0.79255  Biso   1.000  C
  C818     1.0000 0.75680  0.97830  0.22230  Biso   1.000  C
  C819     1.0000 0.24201  0.77897  0.03503  Biso   1.000  C
  C820     1.0000 0.48899  0.20469  0.76000  Biso   1.000  C
  C821     1.0000 0.26802  0.98149  0.30159  Biso   1.000  C
  C822     1.0000 0.73137  0.76602  0.53412  Biso   1.000  C
  C823     1.0000 0.52511  0.70452  0.76539  Biso   1.000  C
  C824     1.0000 0.70817  0.51100  0.26088  Biso   1.000  C
  C825     1.0000 0.26430  0.27755  0.04144  Biso   1.000  C
  C826     1.0000 0.01298  0.70257  0.76917  Biso   1.000  C
  C827     1.0000 0.23528  0.47681  0.29675  Biso   1.000  C
  C828     1.0000 0.77555  0.26321  0.52566  Biso   1.000  C
  C829     1.0000 0.97043  0.78508  0.26792  Biso   1.000  C
  C830     1.0000 0.24760  0.04454  0.80757  Biso   1.000  C
  C831     1.0000 0.77263  0.22055  0.03135  Biso   1.000  C
  C832     1.0000 0.51464  0.75341  0.29683  Biso   1.000  C
  C833     1.0000 0.75484  0.98511  0.72187  Biso   1.000  C
  C834     1.0000 0.27519  0.21440  0.50361  Biso   1.000  C
  C835     1.0000 0.49828  0.28584  0.26522  Biso   1.000  C
  C836     1.0000 0.25837  0.50913  0.80418  Biso   1.000  C
  C837     1.0000 0.73874  0.72100  0.04427  Biso   1.000  C
  C838     1.0000 0.00558  0.25011  0.29407  Biso   1.000  C
  C839     1.0000 0.76206  0.50706  0.73181  Biso   1.000  C
  C840     1.0000 0.20368  0.74687  0.51139  Biso   1.000  C
  C841     1.0000 0.22354  0.01211  0.77334  Biso   1.000  C
  C842     1.0000 0.79739  0.24760  0.99249  Biso   1.000  C
  C843     1.0000 0.99751  0.75232  0.23430  Biso   1.000  C
  C844     1.0000 0.72028  0.00685  0.75641  Biso   1.000  C
  C845     1.0000 0.30483  0.24801  0.52611  Biso   1.000  C
  C846     1.0000 0.48457  0.78277  0.26335  Biso   1.000  C
  C847     1.0000 0.29100  0.48837  0.76908  Biso   1.000  C
  C848     1.0000 0.71590  0.75076  0.00780  Biso   1.000  C
  C849     1.0000 0.53366  0.25871  0.23804  Biso   1.000  C
  C850     1.0000 0.79603  0.47995  0.76396  Biso   1.000  C
  C851     1.0000 0.23509  0.71313  0.53280  Biso   1.000  C
  C852     1.0000 0.02628  0.28646  0.26148  Biso   1.000  C
  C853     1.0000 0.79059  0.00535  0.25481  Biso   1.000  C
  C854     1.0000 0.20886  0.74580  0.00811  Biso   1.000  C
  C855     1.0000 0.03072  0.20003  0.76338  Biso   1.000  C
  C856     1.0000 0.29222  0.02175  0.27661  Biso   1.000  C
  C857     1.0000 0.70228  0.73706  0.50114  Biso   1.000  C
  C858     1.0000 0.52596  0.23094  0.73273  Biso   1.000  C
  C859     1.0000 0.73825  0.48160  0.23035  Biso   1.000  C
  C860     1.0000 0.30018  0.24206  0.02297  Biso   1.000  C
  C861     1.0000 0.49739  0.73633  0.79713  Biso   1.000  C
  C862     1.0000 0.20850  0.51455  0.27087  Biso   1.000  C
  C863     1.0000 0.80478  0.23287  0.49415  Biso   1.000  C
  C864     1.0000 0.99372  0.73745  0.73438  Biso   1.000  C
  C865     1.0000 0.74898  0.47532  0.80703  Biso   1.000  C
  C866     1.0000 0.77714  0.72739  0.50731  Biso   1.000  C
  C867     1.0000 0.48440  0.77249  0.74953  Biso   1.000  C
  C868     1.0000 0.24393  0.48893  0.72706  Biso   1.000  C
  C869     1.0000 0.28155  0.73255  0.04123  Biso   1.000  C
  C870     1.0000 0.98528  0.77593  0.78371  Biso   1.000  C
  C871     1.0000 0.79584  0.98271  0.76974  Biso   1.000  C
  C872     1.0000 0.73107  0.22384  0.49539  Biso   1.000  C
  C873     1.0000 0.99718  0.24185  0.71765  Biso   1.000  C
  C874     1.0000 0.26284  0.04086  0.73189  Biso   1.000  C
  C875     1.0000 0.22128  0.23293  0.04277  Biso   1.000  C
  C876     1.0000 0.52195  0.27866  0.77621  Biso   1.000  C
  C877     1.0000 0.28065  0.50945  0.25680  Biso   1.000  C
  C878     1.0000 0.26326  0.29104  0.52341  Biso   1.000  C
  C879     1.0000 0.52357  0.20895  0.26996  Biso   1.000  C
  C880     1.0000 0.75378  0.51031  0.30226  Biso   1.000  C
  C881     1.0000 0.75546  0.29305  0.99541  Biso   1.000  C
  C882     1.0000 0.99998  0.24125  0.21866  Biso   1.000  C
  C883     1.0000 0.25212  0.01280  0.22782  Biso   1.000  C
  C884     1.0000 0.24702  0.78889  0.50788  Biso   1.000  C
  C885     1.0000 0.00461  0.74191  0.30983  Biso   1.000  C
  C886     1.0000 0.74610  0.00172  0.29856  Biso   1.000  C
  C887     1.0000 0.75645  0.79511  0.01912  Biso   1.000  C
  C888     1.0000 0.51641  0.73946  0.22225  Biso   1.000  C
  C889     1.0000 0.71258  0.98113  0.26425  Biso   1.000  C
  C890     1.0000 0.25278  0.70434  0.00657  Biso   1.000  C
  C891     1.0000 0.03009  0.27067  0.74798  Biso   1.000  C
  C892     1.0000 0.22198  0.98498  0.26166  Biso   1.000  C
  C893     1.0000 0.74410  0.69192  0.52799  Biso   1.000  C
  C894     1.0000 0.49374  0.24735  0.80826  Biso   1.000  C
  C895     1.0000 0.78420  0.48274  0.27128  Biso   1.000  C
  C896     1.0000 0.25466  0.20323  0.01210  Biso   1.000  C
  C897     1.0000 0.52079  0.75019  0.72061  Biso   1.000  C
  C898     1.0000 0.24710  0.47993  0.22930  Biso   1.000  C
  C899     1.0000 0.76187  0.18852  0.52141  Biso   1.000  C
  C900     1.0000 0.02405  0.75168  0.80762  Biso   1.000  C
  C901     1.0000 0.29175  0.01188  0.76587  Biso   1.000  C
  C902     1.0000 0.72873  0.26399  0.03101  Biso   1.000  C
  C903     1.0000 0.97533  0.71045  0.28038  Biso   1.000  C
  C904     1.0000 0.76626  0.01623  0.79822  Biso   1.000  C
  C905     1.0000 0.23610  0.26349  0.48793  Biso   1.000  C
  C906     1.0000 0.48511  0.71042  0.25594  Biso   1.000  C
  C907     1.0000 0.21893  0.52255  0.75782  Biso   1.000  C
  C908     1.0000 0.78711  0.75911  0.04394  Biso   1.000  C
  C909     1.0000 0.49678  0.23861  0.30543  Biso   1.000  C
  C910     1.0000 0.72144  0.50845  0.77732  Biso   1.000  C
  C911     1.0000 0.27308  0.76234  0.54426  Biso   1.000  C
  C912     1.0000 0.02749  0.20927  0.25112  Biso   1.000  C
  C913     1.0000 0.76927  0.49432  0.75852  Biso   1.000  C
  C914     1.0000 0.72717  0.74189  0.51767  Biso   1.000  C
  C915     1.0000 0.51030  0.73112  0.77054  Biso   1.000  C
  C916     1.0000 0.26433  0.50143  0.77510  Biso   1.000  C
  C917     1.0000 0.23521  0.75151  0.02172  Biso   1.000  C
  C918     1.0000 0.00533  0.73147  0.76183  Biso   1.000  C
  C919     1.0000 0.74737  0.99647  0.75028  Biso   1.000  C
  C920     1.0000 0.77957  0.23897  0.50955  Biso   1.000  C
  C921     1.0000 0.01535  0.22546  0.76670  Biso   1.000  C
  C922     1.0000 0.24545  0.03089  0.78111  Biso   1.000  C
  C923     1.0000 0.27179  0.25037  0.03100  Biso   1.000  C
  C924     1.0000 0.50689  0.22955  0.75704  Biso   1.000  C
  C925     1.0000 0.23197  0.49702  0.27460  Biso   1.000  C
  C926     1.0000 0.27990  0.24293  0.51079  Biso   1.000  C
  C927     1.0000 0.51501  0.26144  0.26164  Biso   1.000  C
  C928     1.0000 0.73437  0.49669  0.25552  Biso   1.000  C
  C929     1.0000 0.77391  0.24440  0.01211  Biso   1.000  C
  C930     1.0000 0.01630  0.25817  0.26703  Biso   1.000  C
  C931     1.0000 0.27035  0.99953  0.27796  Biso   1.000  C
  C932     1.0000 0.23002  0.74098  0.52198  Biso   1.000  C
  C933     1.0000 0.98420  0.75894  0.26170  Biso   1.000  C
  C934     1.0000 0.76246  0.99240  0.24814  Biso   1.000  C
  C935     1.0000 0.73788  0.74576  0.02715  Biso   1.000  C
  C936     1.0000 0.50176  0.75836  0.26949  Biso   1.000  C
  C937     1.0000 0.75416  0.26975  0.01514  Biso   1.000  C
  C938     1.0000 0.98744  0.73736  0.28522  Biso   1.000  C
  C939     1.0000 0.26916  0.02973  0.75959  Biso   1.000  C
  C940     1.0000 0.26011  0.26647  0.50634  Biso   1.000  C
  C941     1.0000 0.50076  0.73515  0.24882  Biso   1.000  C
  C942     1.0000 0.77093  0.99904  0.77279  Biso   1.000  C
  C943     1.0000 0.76099  0.76640  0.02944  Biso   1.000  C
  C944     1.0000 0.51036  0.23619  0.27908  Biso   1.000  C
  C945     1.0000 0.24152  0.50346  0.75287  Biso   1.000  C
  C946     1.0000 0.25065  0.76533  0.52617  Biso   1.000  C
  C947     1.0000 0.01565  0.23583  0.24379  Biso   1.000  C
  C948     1.0000 0.74582  0.49046  0.78036  Biso   1.000  C
  C949     1.0000 0.25674  0.72890  0.02353  Biso   1.000  C
  C950     1.0000 0.01285  0.24700  0.74339  Biso   1.000  C
  C951     1.0000 0.73846  0.99538  0.27011  Biso   1.000  C
  C952     1.0000 0.74979  0.72018  0.51732  Biso   1.000  C
  C953     1.0000 0.50938  0.25129  0.78134  Biso   1.000  C
  C954     1.0000 0.24834  0.99922  0.25516  Biso   1.000  C
  C955     1.0000 0.24770  0.22930  0.02688  Biso   1.000  C
  C956     1.0000 0.50588  0.75247  0.74684  Biso   1.000  C
  C957     1.0000 0.75903  0.49706  0.27592  Biso   1.000  C
  C958     1.0000 0.75708  0.21690  0.51027  Biso   1.000  C
  C959     1.0000 0.00432  0.75373  0.78436  Biso   1.000  C
  C960     1.0000 0.25338  0.49757  0.25271  Biso   1.000  C
  Cu1      1.0000 0.00345  0.49128  0.66453  Biso   1.000  Cu
  Cu2      1.0000 0.65594  0.98259  0.51195  Biso   1.000  Cu
  Cu3      1.0000 0.49939  0.64786  0.00959  Biso   1.000  Cu
  Cu4      1.0000 0.50110  0.49407  0.86634  Biso   1.000  Cu
  Cu5      1.0000 0.16371  0.99179  0.01692  Biso   1.000  Cu
  Cu6      1.0000 0.98882  0.64717  0.52101  Biso   1.000  Cu
  Cu7      1.0000 0.50419  0.99142  0.66604  Biso   1.000  Cu
  Cu8      1.0000 0.85126  0.48336  0.51710  Biso   1.000  Cu
  Cu9      1.0000 0.00938  0.14795  0.00730  Biso   1.000  Cu
  Cu10     1.0000 0.00670  0.99015  0.86321  Biso   1.000  Cu
  Cu11     1.0000 0.34623  0.48787  0.01492  Biso   1.000  Cu
  Cu12     1.0000 0.51790  0.14807  0.51206  Biso   1.000  Cu
  Cu13     1.0000 0.99536  0.49229  0.36187  Biso   1.000  Cu
  Cu14     1.0000 0.35061  0.00239  0.52066  Biso   1.000  Cu
  Cu15     1.0000 0.51145  0.34014  0.02086  Biso   1.000  Cu
  Cu16     1.0000 0.49535  0.49573  0.17071  Biso   1.000  Cu
  Cu17     1.0000 0.85074  0.00172  0.01545  Biso   1.000  Cu
  Cu18     1.0000 0.01368  0.33854  0.50769  Biso   1.000  Cu
  Cu19     1.0000 0.50287  0.99584  0.36432  Biso   1.000  Cu
  Cu20     1.0000 0.15535  0.49683  0.51815  Biso   1.000  Cu
  Cu21     1.0000 0.99983  0.84317  0.02242  Biso   1.000  Cu
  Cu22     1.0000 0.00590  0.99431  0.17163  Biso   1.000  Cu
  Cu23     1.0000 0.65489  0.50763  0.01673  Biso   1.000  Cu
  Cu24     1.0000 0.48886  0.84064  0.50847  Biso   1.000  Cu
  Cu25     1.0000 0.21783  0.98735  0.01351  Biso   1.000  Cu
  Cu26     1.0000 0.01117  0.20105  0.00727  Biso   1.000  Cu
  Cu27     1.0000 0.00642  0.99674  0.22576  Biso   1.000  Cu
  Cu28     1.0000 0.70937  0.98025  0.51302  Biso   1.000  Cu
  Cu29     1.0000 0.51733  0.20272  0.51264  Biso   1.000  Cu
  Cu30     1.0000 0.50320  0.99590  0.30671  Biso   1.000  Cu
  Cu31     1.0000 0.29323  0.48845  0.01315  Biso   1.000  Cu
  Cu32     1.0000 0.49890  0.70229  0.01298  Biso   1.000  Cu
  Cu33     1.0000 0.49578  0.49762  0.22489  Biso   1.000  Cu
  Cu34     1.0000 0.79802  0.47822  0.51857  Biso   1.000  Cu
  Cu35     1.0000 0.98799  0.70152  0.52207  Biso   1.000  Cu
  Cu36     1.0000 0.99377  0.49998  0.30846  Biso   1.000  Cu
  Cu37     1.0000 0.79678  0.00152  0.01287  Biso   1.000  Cu
  Cu38     1.0000 0.99726  0.79046  0.02413  Biso   1.000  Cu
  Cu39     1.0000 0.00844  0.98860  0.80810  Biso   1.000  Cu
  Cu40     1.0000 0.29612  0.00447  0.51713  Biso   1.000  Cu
  Cu41     1.0000 0.48668  0.78686  0.50583  Biso   1.000  Cu
  Cu42     1.0000 0.50391  0.98894  0.72029  Biso   1.000  Cu
  Cu43     1.0000 0.70976  0.50731  0.01926  Biso   1.000  Cu
  Cu44     1.0000 0.51019  0.28710  0.02271  Biso   1.000  Cu
  Cu45     1.0000 0.50135  0.49203  0.81168  Biso   1.000  Cu
  Cu46     1.0000 0.20800  0.50707  0.51459  Biso   1.000  Cu
  Cu47     1.0000 0.01995  0.28311  0.50708  Biso   1.000  Cu
  Cu48     1.0000 0.00411  0.48581  0.71885  Biso   1.000  Cu
  H1       1.0000 0.22713  0.79309  0.49501  Biso   1.000  H
  H2       1.0000 0.52872  0.28341  0.75381  Biso   1.000  H
  H3       1.0000 0.73518  0.52317  0.30864  Biso   1.000  H
  H4       1.0000 0.73541  0.79966  0.01335  Biso   1.000  H
  H5       1.0000 0.98234  0.22397  0.71714  Biso   1.000  H
  H6       1.0000 0.28501  0.52105  0.27619  Biso   1.000  H
  H7       1.0000 0.28118  0.29275  0.53689  Biso   1.000  H
  H8       1.0000 0.96767  0.78074  0.76760  Biso   1.000  H
  H9       1.0000 0.76699  0.01062  0.30374  Biso   1.000  H
  H10      1.0000 0.77413  0.29641  0.98147  Biso   1.000  H
  H11      1.0000 0.46885  0.77510  0.76835  Biso   1.000  H
  H12      1.0000 0.27076  0.02539  0.22060  Biso   1.000  H
  H13      1.0000 0.72486  0.24515  0.48622  Biso   1.000  H
  H14      1.0000 0.52888  0.75792  0.21627  Biso   1.000  H
  H15      1.0000 0.26381  0.47517  0.72220  Biso   1.000  H
  H16      1.0000 0.21548  0.25044  0.05615  Biso   1.000  H
  H17      1.0000 0.01468  0.76266  0.31439  Biso   1.000  H
  H18      1.0000 0.76869  0.46419  0.81384  Biso   1.000  H
  H19      1.0000 0.78054  0.74887  0.50022  Biso   1.000  H
  H20      1.0000 0.98919  0.26327  0.21249  Biso   1.000  H
  H21      1.0000 0.24317  0.05320  0.73110  Biso   1.000  H
  H22      1.0000 0.28425  0.75085  0.05594  Biso   1.000  H
  H23      1.0000 0.53263  0.20833  0.24759  Biso   1.000  H
  H24      1.0000 0.80000  0.96851  0.75178  Biso   1.000  H
  H25      1.0000 0.26515  0.05972  0.81307  Biso   1.000  H
  H26      1.0000 0.75629  0.21966  0.04919  Biso   1.000  H
  H27      1.0000 0.96211  0.78606  0.29017  Biso   1.000  H
  H28      1.0000 0.77593  0.97743  0.71307  Biso   1.000  H
  H29      1.0000 0.25468  0.20656  0.49540  Biso   1.000  H
  H30      1.0000 0.52579  0.73409  0.30109  Biso   1.000  H
  H31      1.0000 0.23709  0.51706  0.81342  Biso   1.000  H
  H32      1.0000 0.75409  0.71896  0.06272  Biso   1.000  H
  H33      1.0000 0.48322  0.28593  0.28270  Biso   1.000  H
  H34      1.0000 0.74305  0.51893  0.72982  Biso   1.000  H
  H35      1.0000 0.19875  0.76928  0.50665  Biso   1.000  H
  H36      1.0000 0.99499  0.22867  0.29432  Biso   1.000  H
  H37      1.0000 0.73604  0.97060  0.21389  Biso   1.000  H
  H38      1.0000 0.26398  0.78391  0.04186  Biso   1.000  H
  H39      1.0000 0.98909  0.25239  0.79356  Biso   1.000  H
  H40      1.0000 0.25181  0.96520  0.30540  Biso   1.000  H
  H41      1.0000 0.75233  0.77108  0.54587  Biso   1.000  H
  H42      1.0000 0.47449  0.20100  0.77889  Biso   1.000  H
  H43      1.0000 0.70567  0.52434  0.28021  Biso   1.000  H
  H44      1.0000 0.24325  0.28389  0.05010  Biso   1.000  H
  H45      1.0000 0.53459  0.69906  0.74498  Biso   1.000  H
  H46      1.0000 0.25407  0.46360  0.29713  Biso   1.000  H
  H47      1.0000 0.75641  0.26583  0.53739  Biso   1.000  H
  H48      1.0000 0.01961  0.69527  0.78952  Biso   1.000  H
  H49      1.0000 0.20378  0.52784  0.25186  Biso   1.000  H
  H50      1.0000 0.31159  0.27038  0.52972  Biso   1.000  H
  H51      1.0000 0.54823  0.23984  0.23325  Biso   1.000  H
  H52      1.0000 0.75808  0.47121  0.22662  Biso   1.000  H
  H53      1.0000 0.80244  0.26626  0.97904  Biso   1.000  H
  H54      1.0000 0.03204  0.29390  0.23896  Biso   1.000  H
  H55      1.0000 0.29487  0.03608  0.25862  Biso   1.000  H
  H56      1.0000 0.25723  0.70644  0.54104  Biso   1.000  H
  H57      1.0000 0.00923  0.73155  0.23054  Biso   1.000  H
  H58      1.0000 0.79222  0.02035  0.27394  Biso   1.000  H
  H59      1.0000 0.71442  0.76930  0.99482  Biso   1.000  H
  H60      1.0000 0.47225  0.78399  0.24399  Biso   1.000  H
  H61      1.0000 0.79807  0.46781  0.78455  Biso   1.000  H
  H62      1.0000 0.69909  0.71770  0.48754  Biso   1.000  H
  H63      1.0000 0.48637  0.75606  0.80176  Biso   1.000  H
  H64      1.0000 0.29491  0.48130  0.74698  Biso   1.000  H
  H65      1.0000 0.20308  0.72490  0.99626  Biso   1.000  H
  H66      1.0000 0.98549  0.75883  0.72841  Biso   1.000  H
  H67      1.0000 0.71423  0.01187  0.77884  Biso   1.000  H
  H68      1.0000 0.80693  0.21305  0.47996  Biso   1.000  H
  H69      1.0000 0.04004  0.19553  0.74207  Biso   1.000  H
  H70      1.0000 0.22671  0.00122  0.75285  Biso   1.000  H
  H71      1.0000 0.30818  0.22253  0.01095  Biso   1.000  H
  H72      1.0000 0.54175  0.25028  0.73140  Biso   1.000  H
  H73      1.0000 0.71925  0.52508  0.76032  Biso   1.000  H
  H74      1.0000 0.72274  0.68296  0.53295  Biso   1.000  H
  H75      1.0000 0.53556  0.73201  0.71630  Biso   1.000  H
  H76      1.0000 0.21697  0.53552  0.77785  Biso   1.000  H
  H77      1.0000 0.23287  0.70055  0.99455  Biso   1.000  H
  H78      1.0000 0.03909  0.73227  0.80986  Biso   1.000  H
  H79      1.0000 0.74837  0.03077  0.79879  Biso   1.000  H
  H80      1.0000 0.78268  0.18286  0.53063  Biso   1.000  H
  H81      1.0000 0.04414  0.27134  0.76703  Biso   1.000  H
  H82      1.0000 0.29221  0.00209  0.78683  Biso   1.000  H
  H83      1.0000 0.27699  0.19864  0.00477  Biso   1.000  H
  H84      1.0000 0.48162  0.22913  0.81079  Biso   1.000  H
  H85      1.0000 0.22483  0.47280  0.22529  Biso   1.000  H
  H86      1.0000 0.23326  0.24540  0.47158  Biso   1.000  H
  H87      1.0000 0.48845  0.25848  0.31313  Biso   1.000  H
  H88      1.0000 0.79037  0.47278  0.25016  Biso   1.000  H
  H89      1.0000 0.72749  0.24727  0.04831  Biso   1.000  H
  H90      1.0000 0.03924  0.20571  0.27074  Biso   1.000  H
  H91      1.0000 0.21868  0.97664  0.28339  Biso   1.000  H
  H92      1.0000 0.27344  0.74349  0.55847  Biso   1.000  H
  H93      1.0000 0.96203  0.70572  0.26070  Biso   1.000  H
  H94      1.0000 0.70631  0.97055  0.24418  Biso   1.000  H
  H95      1.0000 0.78906  0.73817  0.05307  Biso   1.000  H
  H96      1.0000 0.47457  0.70895  0.27715  Biso   1.000  H
  H97      1.0000 0.87326  0.99687  0.92806  Biso   1.000  H
  H98      1.0000 0.90859  0.86544  0.00694  Biso   1.000  H
  H99      1.0000 0.01493  0.90175  0.88411  Biso   1.000  H
  H100     1.0000 0.36522  0.01379  0.60723  Biso   1.000  H
  H101     1.0000 0.39919  0.86453  0.51101  Biso   1.000  H
  H102     1.0000 0.48380  0.89964  0.64486  Biso   1.000  H
  H103     1.0000 0.63131  0.50062  0.92454  Biso   1.000  H
  H104     1.0000 0.59422  0.35978  0.00821  Biso   1.000  H
  H105     1.0000 0.50804  0.39991  0.88728  Biso   1.000  H
  H106     1.0000 0.13518  0.50404  0.60594  Biso   1.000  H
  H107     1.0000 0.10783  0.36413  0.52064  Biso   1.000  H
  H108     1.0000 0.99202  0.39757  0.64013  Biso   1.000  H
  H109     1.0000 0.14223  0.99364  0.10611  Biso   1.000  H
  H110     1.0000 0.09924  0.12341  0.01025  Biso   1.000  H
  H111     1.0000 0.00289  0.08335  0.14524  Biso   1.000  H
  H112     1.0000 0.63577  0.96891  0.42120  Biso   1.000  H
  H113     1.0000 0.59984  0.12507  0.50480  Biso   1.000  H
  H114     1.0000 0.51182  0.08668  0.38216  Biso   1.000  H
  H115     1.0000 0.36233  0.48814  0.10667  Biso   1.000  H
  H116     1.0000 0.40645  0.62515  0.00861  Biso   1.000  H
  H117     1.0000 0.49510  0.58492  0.15036  Biso   1.000  H
  H118     1.0000 0.86371  0.49335  0.42773  Biso   1.000  H
  H119     1.0000 0.89895  0.62233  0.53161  Biso   1.000  H
  H120     1.0000 0.98262  0.58421  0.38962  Biso   1.000  H
  H121     1.0000 0.09786  0.99176  0.88270  Biso   1.000  H
  H122     1.0000 0.87437  0.09274  0.00695  Biso   1.000  H
  H123     1.0000 0.99735  0.86256  0.11270  Biso   1.000  H
  H124     1.0000 0.59665  0.98382  0.64480  Biso   1.000  H
  H125     1.0000 0.37959  0.08939  0.52831  Biso   1.000  H
  H126     1.0000 0.48935  0.86496  0.41776  Biso   1.000  H
  H127     1.0000 0.40824  0.50598  0.88803  Biso   1.000  H
  H128     1.0000 0.63425  0.60169  0.01068  Biso   1.000  H
  H129     1.0000 0.52191  0.36505  0.11271  Biso   1.000  H
  H130     1.0000 0.91155  0.48247  0.64795  Biso   1.000  H
  H131     1.0000 0.12302  0.59130  0.51387  Biso   1.000  H
  H132     1.0000 0.02242  0.36428  0.41832  Biso   1.000  H
  H133     1.0000 0.91200  0.00009  0.15049  Biso   1.000  H
  H134     1.0000 0.13725  0.90454  0.01274  Biso   1.000  H
  H135     1.0000 0.01833  0.12543  0.91870  Biso   1.000  H
  H136     1.0000 0.41493  0.00968  0.38702  Biso   1.000  H
  H137     1.0000 0.62719  0.89141  0.52164  Biso   1.000  H
  H138     1.0000 0.51132  0.12705  0.60252  Biso   1.000  H
  H139     1.0000 0.58872  0.49345  0.14830  Biso   1.000  H
  H140     1.0000 0.37444  0.39815  0.02487  Biso   1.000  H
  H141     1.0000 0.50468  0.62921  0.92132  Biso   1.000  H
  H142     1.0000 0.08382  0.50595  0.38009  Biso   1.000  H
  H143     1.0000 0.87792  0.38976  0.51412  Biso   1.000  H
  H144     1.0000 0.99359  0.62629  0.60768  Biso   1.000  H
  H145     1.0000 0.59147  0.49692  0.88193  Biso   1.000  H
  H146     1.0000 0.86437  0.57771  0.52650  Biso   1.000  H
  H147     1.0000 0.49141  0.85940  0.59728  Biso   1.000  H
  H148     1.0000 0.09289  0.49512  0.64893  Biso   1.000  H
  H149     1.0000 0.36542  0.58308  0.01062  Biso   1.000  H
  H150     1.0000 0.01384  0.85865  0.93320  Biso   1.000  H
  H151     1.0000 0.91893  0.98960  0.87891  Biso   1.000  H
  H152     1.0000 0.64098  0.07403  0.49753  Biso   1.000  H
  H153     1.0000 0.00612  0.35507  0.59561  Biso   1.000  H
  H154     1.0000 0.40873  0.00201  0.64831  Biso   1.000  H
  H155     1.0000 0.14616  0.07958  0.01859  Biso   1.000  H
  H156     1.0000 0.51147  0.36306  0.92580  Biso   1.000  H
  H157     1.0000 0.40356  0.49183  0.15035  Biso   1.000  H
  H158     1.0000 0.14416  0.40649  0.52296  Biso   1.000  H
  H159     1.0000 0.51822  0.12724  0.42166  Biso   1.000  H
  H160     1.0000 0.90428  0.49789  0.38408  Biso   1.000  H
  H161     1.0000 0.63648  0.40995  0.01274  Biso   1.000  H
  H162     1.0000 0.00053  0.12702  0.10072  Biso   1.000  H
  H163     1.0000 0.09951  0.99207  0.14876  Biso   1.000  H
  H164     1.0000 0.36503  0.90845  0.50980  Biso   1.000  H
  H165     1.0000 0.98230  0.63262  0.43310  Biso   1.000  H
  H166     1.0000 0.59428  0.98702  0.38198  Biso   1.000  H
  H167     1.0000 0.86947  0.91085  0.01574  Biso   1.000  H
  H168     1.0000 0.49333  0.62462  0.10616  Biso   1.000  H
  H169     1.0000 0.00747  0.08034  0.87772  Biso   1.000  H
  H170     1.0000 0.86911  0.00836  0.10273  Biso   1.000  H
  H171     1.0000 0.09346  0.86319  0.02459  Biso   1.000  H
  H172     1.0000 0.51029  0.08242  0.64587  Biso   1.000  H
  H173     1.0000 0.37068  0.00203  0.42797  Biso   1.000  H
  H174     1.0000 0.58425  0.85622  0.51626  Biso   1.000  H
  H175     1.0000 0.50450  0.58640  0.88438  Biso   1.000  H
  H176     1.0000 0.62929  0.50104  0.10691  Biso   1.000  H
  H177     1.0000 0.41748  0.36332  0.02530  Biso   1.000  H
  H178     1.0000 0.99512  0.58521  0.64969  Biso   1.000  H
  H179     1.0000 0.12973  0.49749  0.42597  Biso   1.000  H
  H180     1.0000 0.92195  0.35258  0.50982  Biso   1.000  H
  H181     1.0000 0.00739  0.90236  0.15588  Biso   1.000  H
  H182     1.0000 0.13744  0.00116  0.92771  Biso   1.000  H
  H183     1.0000 0.91410  0.13058  0.00580  Biso   1.000  H
  H184     1.0000 0.48877  0.90622  0.37501  Biso   1.000  H
  H185     1.0000 0.63449  0.98638  0.60498  Biso   1.000  H
  H186     1.0000 0.42305  0.13003  0.53158  Biso   1.000  H
  H187     1.0000 0.50485  0.40805  0.15670  Biso   1.000  H
  H188     1.0000 0.36842  0.49355  0.92486  Biso   1.000  H
  H189     1.0000 0.59527  0.63671  0.00835  Biso   1.000  H
  H190     1.0000 0.00604  0.40379  0.37547  Biso   1.000  H
  H191     1.0000 0.87138  0.48146  0.60847  Biso   1.000  H
  H192     1.0000 0.08125  0.63345  0.51183  Biso   1.000  H
  H193     1.0000 0.26466  0.86173  0.52825  Biso   1.000  H
  H194     1.0000 0.52013  0.26271  0.87966  Biso   1.000  H
  H195     1.0000 0.85582  0.49952  0.28520  Biso   1.000  H
  H196     1.0000 0.77632  0.86163  0.04498  Biso   1.000  H
  H197     1.0000 0.01987  0.25981  0.64667  Biso   1.000  H
  H198     1.0000 0.34904  0.47834  0.24508  Biso   1.000  H
  H199     1.0000 0.24430  0.36336  0.50969  Biso   1.000  H
  H200     1.0000 0.00348  0.76359  0.88072  Biso   1.000  H
  H201     1.0000 0.64642  0.00205  0.28426  Biso   1.000  H
  H202     1.0000 0.73685  0.36567  0.00788  Biso   1.000  H
  H203     1.0000 0.49082  0.76165  0.65019  Biso   1.000  H
  H204     1.0000 0.15079  0.00164  0.24466  Biso   1.000  H
  H205     1.0000 0.73993  0.12368  0.49910  Biso   1.000  H
  H206     1.0000 0.49457  0.72437  0.14875  Biso   1.000  H
  H207     1.0000 0.14538  0.50033  0.74495  Biso   1.000  H
  H208     1.0000 0.24016  0.13371  0.02771  Biso   1.000  H
  H209     1.0000 0.99165  0.72593  0.37942  Biso   1.000  H
  H210     1.0000 0.64561  0.47195  0.79010  Biso   1.000  H
  H211     1.0000 0.76533  0.61874  0.51550  Biso   1.000  H
  H212     1.0000 0.01619  0.22484  0.15062  Biso   1.000  H
  H213     1.0000 0.36740  0.02159  0.74761  Biso   1.000  H
  H214     1.0000 0.26621  0.63407  0.02764  Biso   1.000  H
  H215     1.0000 0.52888  0.22138  0.36744  Biso   1.000  H
  H216     1.0000 0.86582  0.00498  0.78352  Biso   1.000  H
  H217     1.0000 0.22328  0.49426  0.36920  Biso   1.000  H
  H218     1.0000 0.37443  0.22690  0.52064  Biso   1.000  H
  H219     1.0000 0.51244  0.35203  0.24934  Biso   1.000  H
  H220     1.0000 0.72429  0.50624  0.16262  Biso   1.000  H
  H221     1.0000 0.86889  0.23106  0.00697  Biso   1.000  H
  H222     1.0000 0.00635  0.35759  0.27651  Biso   1.000  H
  H223     1.0000 0.27502  0.99918  0.37459  Biso   1.000  H
  H224     1.0000 0.13400  0.72796  0.53543  Biso   1.000  H
  H225     1.0000 0.99551  0.85408  0.25338  Biso   1.000  H
  H226     1.0000 0.77468  0.00871  0.16029  Biso   1.000  H
  H227     1.0000 0.63999  0.73625  0.01496  Biso   1.000  H
  H228     1.0000 0.50210  0.85400  0.27829  Biso   1.000  H
  H229     1.0000 0.77336  0.48834  0.65857  Biso   1.000  H
  H230     1.0000 0.62907  0.75661  0.51533  Biso   1.000  H
  H231     1.0000 0.49776  0.63632  0.78419  Biso   1.000  H
  H232     1.0000 0.27437  0.48660  0.87008  Biso   1.000  H
  H233     1.0000 0.14244  0.76509  0.03124  Biso   1.000  H
  H234     1.0000 0.99905  0.62927  0.75031  Biso   1.000  H
  H235     1.0000 0.73150  0.01258  0.65285  Biso   1.000  H
  H236     1.0000 0.87589  0.25209  0.51386  Biso   1.000  H
  H237     1.0000 0.00305  0.13430  0.78121  Biso   1.000  H
  H238     1.0000 0.23549  0.01694  0.87679  Biso   1.000  H
  H239     1.0000 0.36999  0.26530  0.04468  Biso   1.000  H
  H240     1.0000 0.50292  0.13254  0.74549  Biso   1.000  H
  H241     1.0000 0.72820  0.50525  0.87151  Biso   1.000  H
  H242     1.0000 0.84186  0.71439  0.53171  Biso   1.000  H
  H243     1.0000 0.49380  0.84095  0.73718  Biso   1.000  H
  H244     1.0000 0.23138  0.51754  0.65651  Biso   1.000  H
  H245     1.0000 0.35136  0.71935  0.01963  Biso   1.000  H
  H246     1.0000 0.01043  0.84212  0.79129  Biso   1.000  H
  H247     1.0000 0.78044  0.99261  0.86890  Biso   1.000  H
  H248     1.0000 0.66318  0.21415  0.52282  Biso   1.000  H
  H249     1.0000 0.00938  0.34280  0.73673  Biso   1.000  H
  H250     1.0000 0.27670  0.99860  0.66710  Biso   1.000  H
  H251     1.0000 0.15426  0.21884  0.01611  Biso   1.000  H
  H252     1.0000 0.50456  0.34754  0.79035  Biso   1.000  H
  H253     1.0000 0.26554  0.49382  0.15605  Biso   1.000  H
  H254     1.0000 0.16594  0.27219  0.50476  Biso   1.000  H
  H255     1.0000 0.49732  0.13897  0.28421  Biso   1.000  H
  H256     1.0000 0.76980  0.48585  0.37296  Biso   1.000  H
  H257     1.0000 0.66021  0.26831  0.00703  Biso   1.000  H
  H258     1.0000 0.99284  0.14223  0.23826  Biso   1.000  H
  H259     1.0000 0.23595  0.98419  0.16052  Biso   1.000  H
  H260     1.0000 0.34095  0.77237  0.51957  Biso   1.000  H
  H261     1.0000 0.99977  0.64187  0.29668  Biso   1.000  H
  H262     1.0000 0.73342  0.96875  0.36812  Biso   1.000  H
  H263     1.0000 0.85274  0.77324  0.02173  Biso   1.000  H
  H264     1.0000 0.51146  0.64622  0.24320  Biso   1.000  H
  H265     1.0000 0.02833  0.21758  0.86169  Biso   1.000  H
  H266     1.0000 0.85719  0.97927  0.24179  Biso   1.000  H
  H267     1.0000 0.22881  0.84415  0.01089  Biso   1.000  H
  H268     1.0000 0.51577  0.22091  0.66136  Biso   1.000  H
  H269     1.0000 0.36209  0.00446  0.28812  Biso   1.000  H
  H270     1.0000 0.72193  0.83802  0.51887  Biso   1.000  H
  H271     1.0000 0.50487  0.72492  0.86708  Biso   1.000  H
  H272     1.0000 0.63770  0.49219  0.24735  Biso   1.000  H
  H273     1.0000 0.28140  0.34214  0.01421  Biso   1.000  H
  H274     1.0000 0.00874  0.71782  0.66503  Biso   1.000  H
  H275     1.0000 0.13902  0.50579  0.28372  Biso   1.000  H
  H276     1.0000 0.78692  0.33142  0.50923  Biso   1.000  H
  H277     1.0000 0.96782  0.76962  0.16735  Biso   1.000  H
  H278     1.0000 0.14774  0.01231  0.78625  Biso   1.000  H
  H279     1.0000 0.77954  0.14933  0.00727  Biso   1.000  H
  H280     1.0000 0.48826  0.76536  0.36459  Biso   1.000  H
  H281     1.0000 0.64879  0.98442  0.73956  Biso   1.000  H
  H282     1.0000 0.28481  0.14786  0.53598  Biso   1.000  H
  H283     1.0000 0.51644  0.26732  0.16430  Biso   1.000  H
  H284     1.0000 0.36129  0.50464  0.78712  Biso   1.000  H
  H285     1.0000 0.73287  0.65324  0.01760  Biso   1.000  H
  H286     1.0000 0.03079  0.26904  0.36238  Biso   1.000  H
  H287     1.0000 0.86224  0.50302  0.74287  Biso   1.000  H
  H288     1.0000 0.21580  0.64899  0.49773  Biso   1.000  H
  H289     1.0000 0.10204  0.21877  0.01466  Biso   1.000  H
  H290     1.0000 0.99004  0.08678  0.23961  Biso   1.000  H
  H291     1.0000 0.23855  0.98406  0.10556  Biso   1.000  H
  H292     1.0000 0.61006  0.21668  0.52140  Biso   1.000  H
  H293     1.0000 0.49959  0.08726  0.28541  Biso   1.000  H
  H294     1.0000 0.73226  0.96058  0.42274  Biso   1.000  H
  H295     1.0000 0.40373  0.71855  0.02796  Biso   1.000  H
  H296     1.0000 0.50747  0.58710  0.24245  Biso   1.000  H
  H297     1.0000 0.26839  0.49193  0.10517  Biso   1.000  H
  H298     1.0000 0.89618  0.71852  0.53473  Biso   1.000  H
  H299     1.0000 0.00234  0.58818  0.29552  Biso   1.000  H
  H300     1.0000 0.76730  0.48872  0.42722  Biso   1.000  H
  H301     1.0000 0.90967  0.77306  0.01498  Biso   1.000  H
  H302     1.0000 0.01650  0.89654  0.78737  Biso   1.000  H
  H303     1.0000 0.78102  0.99206  0.92325  Biso   1.000  H
  H304     1.0000 0.39330  0.76913  0.51145  Biso   1.000  H
  H305     1.0000 0.49973  0.89689  0.73959  Biso   1.000  H
  H306     1.0000 0.27242  0.99841  0.61063  Biso   1.000  H
  H307     1.0000 0.60692  0.26374  0.00655  Biso   1.000  H
  H308     1.0000 0.50103  0.40031  0.79189  Biso   1.000  H
  H309     1.0000 0.72762  0.50519  0.92752  Biso   1.000  H
  H310     1.0000 0.11014  0.26898  0.51130  Biso   1.000  H
  H311     1.0000 0.01219  0.39576  0.73289  Biso   1.000  H
  H312     1.0000 0.23363  0.51612  0.60417  Biso   1.000  H
  H313     1.0000 0.23532  0.01559  0.92896  Biso   1.000  H
  H314     1.0000 0.92203  0.23016  0.00191  Biso   1.000  H
  H315     1.0000 0.01025  0.90544  0.24981  Biso   1.000  H
  H316     1.0000 0.72419  0.01414  0.59763  Biso   1.000  H
  H317     1.0000 0.43009  0.22420  0.51562  Biso   1.000  H
  H318     1.0000 0.50072  0.90848  0.28128  Biso   1.000  H
  H319     1.0000 0.27441  0.49224  0.92619  Biso   1.000  H
  H320     1.0000 0.58461  0.73085  0.01792  Biso   1.000  H
  H321     1.0000 0.50644  0.40980  0.25257  Biso   1.000  H
  H322     1.0000 0.77568  0.47277  0.60605  Biso   1.000  H
  H323     1.0000 0.07858  0.72657  0.53944  Biso   1.000  H
  H324     1.0000 0.00137  0.41040  0.28163  Biso   1.000  H
  H325     1.0000 0.77587  0.01573  0.10207  Biso   1.000  H
  H326     1.0000 0.08343  0.76871  0.04268  Biso   1.000  H
  H327     1.0000 0.99886  0.07978  0.78317  Biso   1.000  H
  H328     1.0000 0.27814  0.99558  0.43107  Biso   1.000  H
  H329     1.0000 0.57735  0.76172  0.50569  Biso   1.000  H
  H330     1.0000 0.50505  0.07914  0.74114  Biso   1.000  H
  H331     1.0000 0.72318  0.51457  0.10811  Biso   1.000  H
  H332     1.0000 0.42367  0.27139  0.04799  Biso   1.000  H
  H333     1.0000 0.50311  0.58102  0.78707  Biso   1.000  H
  H334     1.0000 0.22325  0.49016  0.42584  Biso   1.000  H
  H335     1.0000 0.93023  0.25733  0.51138  Biso   1.000  H
  H336     1.0000 0.00180  0.57550  0.74672  Biso   1.000  H
  H337     1.0000 0.02588  0.21856  0.91816  Biso   1.000  H
  H338     1.0000 0.91075  0.98503  0.24528  Biso   1.000  H
  H339     1.0000 0.23270  0.90037  0.00498  Biso   1.000  H
  H340     1.0000 0.51352  0.22486  0.60952  Biso   1.000  H
  H341     1.0000 0.41618  0.00985  0.29058  Biso   1.000  H
  H342     1.0000 0.72477  0.88905  0.52278  Biso   1.000  H
  H343     1.0000 0.49575  0.72494  0.92332  Biso   1.000  H
  H344     1.0000 0.58478  0.49254  0.24427  Biso   1.000  H
  H345     1.0000 0.27967  0.39281  0.00538  Biso   1.000  H
  H346     1.0000 0.00857  0.71995  0.61057  Biso   1.000  H
  H347     1.0000 0.08370  0.50893  0.28856  Biso   1.000  H
  H348     1.0000 0.78367  0.38546  0.50735  Biso   1.000  H
  H349     1.0000 0.96644  0.76819  0.11256  Biso   1.000  H
  H350     1.0000 0.10134  0.99961  0.78469  Biso   1.000  H
  H351     1.0000 0.77798  0.09920  0.01652  Biso   1.000  H
  H352     1.0000 0.48332  0.76889  0.42033  Biso   1.000  H
  H353     1.0000 0.59161  0.97987  0.73878  Biso   1.000  H
  H354     1.0000 0.28391  0.09312  0.53345  Biso   1.000  H
  H355     1.0000 0.52194  0.27064  0.11155  Biso   1.000  H
  H356     1.0000 0.41456  0.51619  0.79277  Biso   1.000  H
  H357     1.0000 0.73299  0.60174  0.01380  Biso   1.000  H
  H358     1.0000 0.03194  0.27111  0.41562  Biso   1.000  H
  H359     1.0000 0.91339  0.50249  0.74109  Biso   1.000  H
  H360     1.0000 0.21795  0.59698  0.49732  Biso   1.000  H
  H361     1.0000 0.98328  0.72871  0.43151  Biso   1.000  H
  H362     1.0000 0.42004  0.01468  0.74101  Biso   1.000  H
  H363     1.0000 0.73127  0.41982  0.01544  Biso   1.000  H
  H364     1.0000 0.48809  0.71930  0.09950  Biso   1.000  H
  H365     1.0000 0.91875  0.00123  0.78379  Biso   1.000  H
  H366     1.0000 0.24167  0.41960  0.51713  Biso   1.000  H
  H367     1.0000 0.53146  0.22285  0.42320  Biso   1.000  H
  H368     1.0000 0.09059  0.49633  0.74114  Biso   1.000  H
  H369     1.0000 0.77614  0.91620  0.03473  Biso   1.000  H
  H370     1.0000 0.01132  0.22305  0.09926  Biso   1.000  H
  H371     1.0000 0.59078  0.47585  0.78899  Biso   1.000  H
  H372     1.0000 0.27035  0.91809  0.52902  Biso   1.000  H
  H373     1.0000 0.01127  0.26109  0.58974  Biso   1.000  H
  H374     1.0000 0.59266  0.01017  0.29184  Biso   1.000  H
  H375     1.0000 0.26950  0.58006  0.02716  Biso   1.000  H
  H376     1.0000 0.51470  0.26499  0.93510  Biso   1.000  H
  H377     1.0000 0.09550  0.99559  0.24382  Biso   1.000  H
  H378     1.0000 0.76938  0.57066  0.51646  Biso   1.000  H
  H379     1.0000 0.48872  0.76381  0.59298  Biso   1.000  H
  H380     1.0000 0.90633  0.49814  0.28741  Biso   1.000  H
  H381     1.0000 0.23999  0.07982  0.02650  Biso   1.000  H
  H382     1.0000 0.01039  0.76584  0.93523  Biso   1.000  H
  H383     1.0000 0.40444  0.47487  0.24480  Biso   1.000  H
  H384     1.0000 0.73694  0.07075  0.48945  Biso   1.000  H
  H385     1.0000 0.22023  0.46368  0.33805  Biso   1.000  H
  H386     1.0000 0.28864  0.17120  0.49923  Biso   1.000  H
  H387     1.0000 0.48032  0.32382  0.24806  Biso   1.000  H
  H388     1.0000 0.66504  0.51965  0.24725  Biso   1.000  H
  H389     1.0000 0.78760  0.17908  0.04425  Biso   1.000  H
  H390     1.0000 0.99507  0.26382  0.33849  Biso   1.000  H
  H391     1.0000 0.28459  0.96833  0.34029  Biso   1.000  H
  H392     1.0000 0.16144  0.72722  0.49869  Biso   1.000  H
  H393     1.0000 0.95781  0.82697  0.25221  Biso   1.000  H
  H394     1.0000 0.77624  0.96921  0.18093  Biso   1.000  H
  H395     1.0000 0.71773  0.68039  0.05458  Biso   1.000  H
  H396     1.0000 0.52312  0.77028  0.33659  Biso   1.000  H
  H397     1.0000 0.77535  0.51753  0.68874  Biso   1.000  H
  H398     1.0000 0.71314  0.80524  0.54947  Biso   1.000  H
  H399     1.0000 0.54040  0.66462  0.78656  Biso   1.000  H
  H400     1.0000 0.27184  0.51902  0.84567  Biso   1.000  H
  H401     1.0000 0.22674  0.82076  0.04836  Biso   1.000  H
  H402     1.0000 0.02374  0.66100  0.75262  Biso   1.000  H
  H403     1.0000 0.74094  0.97727  0.67911  Biso   1.000  H
  H404     1.0000 0.79430  0.30298  0.54205  Biso   1.000  H
  H405     1.0000 0.99094  0.21810  0.83508  Biso   1.000  H
  H406     1.0000 0.22681  0.05272  0.84968  Biso   1.000  H
  H407     1.0000 0.27815  0.31996  0.05118  Biso   1.000  H
  H408     1.0000 0.46963  0.16858  0.73945  Biso   1.000  H
  H409     1.0000 0.26236  0.46028  0.19069  Biso   1.000  H
  H410     1.0000 0.19774  0.28620  0.47054  Biso   1.000  H
  H411     1.0000 0.48424  0.21426  0.34453  Biso   1.000  H
  H412     1.0000 0.82541  0.47094  0.28858  Biso   1.000  H
  H413     1.0000 0.68549  0.27585  0.03982  Biso   1.000  H
  H414     1.0000 0.03330  0.16535  0.23778  Biso   1.000  H
  H415     1.0000 0.18289  0.96715  0.24783  Biso   1.000  H
  H416     1.0000 0.31360  0.78092  0.55873  Biso   1.000  H
  H417     1.0000 0.96195  0.66918  0.29541  Biso   1.000  H
  H418     1.0000 0.67358  0.96644  0.28184  Biso   1.000  H
  H419     1.0000 0.82857  0.77385  0.05687  Biso   1.000  H
  H420     1.0000 0.47260  0.66845  0.23758  Biso   1.000  H
  H421     1.0000 0.68092  0.52347  0.79186  Biso   1.000  H
  H422     1.0000 0.75864  0.65341  0.54355  Biso   1.000  H
  H423     1.0000 0.52904  0.76555  0.67723  Biso   1.000  H
  H424     1.0000 0.17791  0.53715  0.74028  Biso   1.000  H
  H425     1.0000 0.27155  0.66448  0.99215  Biso   1.000  H
  H426     1.0000 0.04168  0.76717  0.84676  Biso   1.000  H
  H427     1.0000 0.78189  0.02834  0.84110  Biso   1.000  H
  H428     1.0000 0.74124  0.14927  0.53365  Biso   1.000  H
  H429     1.0000 0.04137  0.31379  0.73389  Biso   1.000  H
  H430     1.0000 0.33076  0.99638  0.75410  Biso   1.000  H
  H431     1.0000 0.24088  0.16503  0.99276  Biso   1.000  H
  H432     1.0000 0.48452  0.26525  0.85032  Biso   1.000  H
  H433     1.0000 0.27705  0.04347  0.68789  Biso   1.000  H
  H434     1.0000 0.73526  0.33126  0.98020  Biso   1.000  H
  H435     1.0000 0.02071  0.72559  0.35010  Biso   1.000  H
  H436     1.0000 0.83794  0.97656  0.78636  Biso   1.000  H
  H437     1.0000 0.24240  0.33122  0.53757  Biso   1.000  H
  H438     1.0000 0.52858  0.71800  0.18088  Biso   1.000  H
  H439     1.0000 0.22249  0.47866  0.68488  Biso   1.000  H
  H440     1.0000 0.77148  0.83604  0.00708  Biso   1.000  H
  H441     1.0000 0.53130  0.16434  0.28344  Biso   1.000  H
  H442     1.0000 0.72642  0.46024  0.84347  Biso   1.000  H
  H443     1.0000 0.26211  0.82758  0.49130  Biso   1.000  H
  H444     1.0000 0.98624  0.22303  0.17820  Biso   1.000  H
  H445     1.0000 0.73303  0.00806  0.34202  Biso   1.000  H
  H446     1.0000 0.32279  0.71631  0.05354  Biso   1.000  H
  H447     1.0000 0.98730  0.25882  0.67405  Biso   1.000  H
  H448     1.0000 0.23464  0.02502  0.18776  Biso   1.000  H
  H449     1.0000 0.81911  0.71264  0.49670  Biso   1.000  H
  H450     1.0000 0.53259  0.32158  0.79450  Biso   1.000  H
  H451     1.0000 0.76702  0.51759  0.34485  Biso   1.000  H
  H452     1.0000 0.18021  0.21460  0.05253  Biso   1.000  H
  H453     1.0000 0.46377  0.80884  0.73267  Biso   1.000  H
  H454     1.0000 0.32490  0.51394  0.24384  Biso   1.000  H
  H455     1.0000 0.68928  0.20885  0.48154  Biso   1.000  H
  H456     1.0000 0.97239  0.81703  0.79828  Biso   1.000  H
  H457     1.0000 0.66419  0.75534  0.48393  Biso   1.000  H
  H458     1.0000 0.47819  0.71573  0.83571  Biso   1.000  H
  H459     1.0000 0.83630  0.46884  0.74362  Biso   1.000  H
  H460     1.0000 0.16690  0.76346  0.99759  Biso   1.000  H
  H461     1.0000 0.97681  0.71978  0.69416  Biso   1.000  H
  H462     1.0000 0.33097  0.47215  0.78492  Biso   1.000  H
  H463     1.0000 0.84583  0.25069  0.47933  Biso   1.000  H
  H464     1.0000 0.04044  0.15852  0.78243  Biso   1.000  H
  H465     1.0000 0.67657  0.01292  0.74342  Biso   1.000  H
  H466     1.0000 0.34266  0.25845  0.01659  Biso   1.000  H
  H467     1.0000 0.54533  0.21292  0.69377  Biso   1.000  H
  H468     1.0000 0.18592  0.99017  0.78710  Biso   1.000  H
  H469     1.0000 0.34362  0.23226  0.54647  Biso   1.000  H
  H470     1.0000 0.54994  0.28126  0.19870  Biso   1.000  H
  H471     1.0000 0.17386  0.53343  0.29381  Biso   1.000  H
  H472     1.0000 0.83439  0.22721  0.97548  Biso   1.000  H
  H473     1.0000 0.03797  0.32764  0.27833  Biso   1.000  H
  H474     1.0000 0.72008  0.46404  0.19222  Biso   1.000  H
  H475     1.0000 0.22225  0.66993  0.53996  Biso   1.000  H
  H476     1.0000 0.00691  0.77067  0.19173  Biso   1.000  H
  H477     1.0000 0.32895  0.04392  0.29210  Biso   1.000  H
  H478     1.0000 0.67969  0.73173  0.98631  Biso   1.000  H
  H479     1.0000 0.46806  0.82254  0.28063  Biso   1.000  H
  H480     1.0000 0.83207  0.01894  0.24006  Biso   1.000  H
  N1       1.0000 0.69098  0.15838  0.50812  Biso   1.000  N
  N2       1.0000 0.49961  0.67173  0.18820  Biso   1.000  N
  N3       1.0000 0.17853  0.50597  0.69047  Biso   1.000  N
  N4       1.0000 0.18639  0.16596  0.02029  Biso   1.000  N
  N5       1.0000 0.99073  0.67288  0.34745  Biso   1.000  N
  N6       1.0000 0.67789  0.48997  0.84107  Biso   1.000  N
  N7       1.0000 0.81426  0.66080  0.52468  Biso   1.000  N
  N8       1.0000 0.00654  0.17172  0.18559  Biso   1.000  N
  N9       1.0000 0.32843  0.01558  0.69519  Biso   1.000  N
  N10      1.0000 0.32050  0.66641  0.02015  Biso   1.000  N
  N11      1.0000 0.51148  0.16980  0.33706  Biso   1.000  N
  N12      1.0000 0.83309  0.99932  0.83780  Biso   1.000  N
  N13      1.0000 0.31371  0.82735  0.52136  Biso   1.000  N
  N14      1.0000 0.51261  0.31448  0.84542  Biso   1.000  N
  N15      1.0000 0.82079  0.49546  0.34067  Biso   1.000  N
  N16      1.0000 0.82360  0.82721  0.02830  Biso   1.000  N
  N17      1.0000 0.01100  0.31105  0.68190  Biso   1.000  N
  N18      1.0000 0.31898  0.48763  0.19247  Biso   1.000  N
  N19      1.0000 0.19413  0.32717  0.50977  Biso   1.000  N
  N20      1.0000 0.00739  0.81515  0.84786  Biso   1.000  N
  N21      1.0000 0.68100  0.98464  0.33650  Biso   1.000  N
  N22      1.0000 0.68524  0.32723  0.01032  Biso   1.000  N
  N23      1.0000 0.49261  0.81366  0.68337  Biso   1.000  N
  N24      1.0000 0.18367  0.99749  0.19179  Biso   1.000  N
  N25      1.0000 0.82792  0.49450  0.69219  Biso   1.000  N
  N26      1.0000 0.66641  0.80622  0.51772  Biso   1.000  N
  N27      1.0000 0.50774  0.66999  0.83649  Biso   1.000  N
  N28      1.0000 0.32750  0.49699  0.83782  Biso   1.000  N
  N29      1.0000 0.17503  0.81681  0.02225  Biso   1.000  N
  N30      1.0000 0.99938  0.66751  0.69756  Biso   1.000  N
  N31      1.0000 0.68155  0.99160  0.68754  Biso   1.000  N
  N32      1.0000 0.84194  0.30236  0.50833  Biso   1.000  N
  N33      1.0000 0.01471  0.16550  0.83238  Biso   1.000  N
  N34      1.0000 0.18269  0.01496  0.84295  Biso   1.000  N
  N35      1.0000 0.33271  0.31415  0.03032  Biso   1.000  N
  N36      1.0000 0.50751  0.16749  0.69139  Biso   1.000  N
  N37      1.0000 0.17227  0.49746  0.33791  Biso   1.000  N
  N38      1.0000 0.34032  0.17695  0.52796  Biso   1.000  N
  N39      1.0000 0.51575  0.32350  0.19874  Biso   1.000  N
  N40      1.0000 0.67085  0.49354  0.19392  Biso   1.000  N
  N41      1.0000 0.83384  0.18024  0.00542  Biso   1.000  N
  N42      1.0000 0.01556  0.32120  0.33063  Biso   1.000  N
  N43      1.0000 0.33041  0.00526  0.34234  Biso   1.000  N
  N44      1.0000 0.16660  0.67861  0.51754  Biso   1.000  N
  N45      1.0000 0.98442  0.81987  0.19807  Biso   1.000  N
  N46      1.0000 0.82620  0.99179  0.18889  Biso   1.000  N
  N47      1.0000 0.67554  0.68413  0.01823  Biso   1.000  N
  N48      1.0000 0.49540  0.81932  0.33139  Biso   1.000  N
  O1       1.0000 0.34176  0.53237  0.01909  Biso   1.000  O
  O2       1.0000 0.00485  0.33190  0.54606  Biso   1.000  O
  O3       1.0000 0.54631  0.99573  0.36031  Biso   1.000  O
  O4       1.0000 0.84480  0.52417  0.52245  Biso   1.000  O
  O5       1.0000 0.50416  0.33802  0.97950  Biso   1.000  O
  O6       1.0000 0.04616  0.99441  0.17238  Biso   1.000  O
  O7       1.0000 0.16888  0.03226  0.01909  Biso   1.000  O
  O8       1.0000 0.48595  0.83758  0.55208  Biso   1.000  O
  O9       1.0000 0.95368  0.48868  0.35852  Biso   1.000  O
  O10      1.0000 0.66009  0.02560  0.50546  Biso   1.000  O
  O11      1.0000 0.00640  0.83967  0.98179  Biso   1.000  O
  O12      1.0000 0.45425  0.49141  0.17371  Biso   1.000  O
  O13      1.0000 0.65606  0.46377  0.01381  Biso   1.000  O
  O14      1.0000 0.98932  0.65188  0.47945  Biso   1.000  O
  O15      1.0000 0.46083  0.99264  0.66928  Biso   1.000  O
  O16      1.0000 0.16215  0.45648  0.52022  Biso   1.000  O
  O17      1.0000 0.50418  0.64911  0.05108  Biso   1.000  O
  O18      1.0000 0.96315  0.98698  0.85860  Biso   1.000  O
  O19      1.0000 0.84588  0.96074  0.01662  Biso   1.000  O
  O20      1.0000 0.52274  0.15276  0.47145  Biso   1.000  O
  O21      1.0000 0.04754  0.49127  0.66972  Biso   1.000  O
  O22      1.0000 0.34533  0.96079  0.52098  Biso   1.000  O
  O23      1.0000 0.00619  0.15248  0.04937  Biso   1.000  O
  O24      1.0000 0.54386  0.48743  0.85996  Biso   1.000  O
  O25      1.0000 0.96272  0.99179  0.17204  Biso   1.000  O
  O26      1.0000 0.16259  0.95229  0.00750  Biso   1.000  O
  O27      1.0000 0.01178  0.14966  0.96647  Biso   1.000  O
  O28      1.0000 0.46094  0.99554  0.36489  Biso   1.000  O
  O29      1.0000 0.66029  0.94281  0.52297  Biso   1.000  O
  O30      1.0000 0.51577  0.15061  0.55485  Biso   1.000  O
  O31      1.0000 0.53827  0.49962  0.17103  Biso   1.000  O
  O32      1.0000 0.34484  0.44812  0.01971  Biso   1.000  O
  O33      1.0000 0.49489  0.65273  0.97029  Biso   1.000  O
  O34      1.0000 0.03703  0.49935  0.35875  Biso   1.000  O
  O35      1.0000 0.85126  0.44078  0.51304  Biso   1.000  O
  O36      1.0000 0.98986  0.64975  0.56239  Biso   1.000  O
  O37      1.0000 0.04927  0.99283  0.85746  Biso   1.000  O
  O38      1.0000 0.84675  0.04303  0.01439  Biso   1.000  O
  O39      1.0000 0.99198  0.84009  0.06247  Biso   1.000  O
  O40      1.0000 0.54569  0.99300  0.66803  Biso   1.000  O
  O41      1.0000 0.35110  0.04481  0.52369  Biso   1.000  O
  O42      1.0000 0.49039  0.84022  0.46512  Biso   1.000  O
  O43      1.0000 0.45884  0.49872  0.86457  Biso   1.000  O
  O44      1.0000 0.65882  0.55010  0.01671  Biso   1.000  O
  O45      1.0000 0.51522  0.33914  0.06224  Biso   1.000  O
  O46      1.0000 0.96243  0.48639  0.66834  Biso   1.000  O
  O47      1.0000 0.15282  0.54018  0.51541  Biso   1.000  O
  O48      1.0000 0.02278  0.33807  0.46786  Biso   1.000  O
  O49      1.0000 0.00794  0.95304  0.17801  Biso   1.000  O
  O50      1.0000 0.16281  0.99756  0.97559  Biso   1.000  O
  O51      1.0000 0.96871  0.15548  0.00379  Biso   1.000  O
  O52      1.0000 0.50345  0.95188  0.35597  Biso   1.000  O
  O53      1.0000 0.65632  0.99019  0.55365  Biso   1.000  O
  O54      1.0000 0.47541  0.15377  0.51009  Biso   1.000  O
  O55      1.0000 0.49886  0.45504  0.17730  Biso   1.000  O
  O56      1.0000 0.34594  0.48596  0.97315  Biso   1.000  O
  O57      1.0000 0.54274  0.65531  0.00827  Biso   1.000  O
  O58      1.0000 0.00130  0.45271  0.35695  Biso   1.000  O
  O59      1.0000 0.84867  0.48398  0.55999  Biso   1.000  O
  O60      1.0000 0.03200  0.65359  0.51775  Biso   1.000  O
  O61      1.0000 0.00377  0.03028  0.85762  Biso   1.000  O
  O62      1.0000 0.84772  0.00332  0.05640  Biso   1.000  O
  O63      1.0000 0.04165  0.84239  0.02551  Biso   1.000  O
  O64      1.0000 0.50448  0.03424  0.66603  Biso   1.000  O
  O65      1.0000 0.34823  0.00299  0.47939  Biso   1.000  O
  O66      1.0000 0.53278  0.83618  0.50821  Biso   1.000  O
  O67      1.0000 0.50636  0.53503  0.86126  Biso   1.000  O
  O68      1.0000 0.65574  0.50013  0.05771  Biso   1.000  O
  O69      1.0000 0.46857  0.34126  0.02580  Biso   1.000  O
  O70      1.0000 0.99841  0.53391  0.67034  Biso   1.000  O
  O71      1.0000 0.15496  0.49442  0.47560  Biso   1.000  O
  O72      1.0000 0.97246  0.33188  0.50271  Biso   1.000  O
  O73      1.0000 0.00370  0.44895  0.66399  Biso   1.000  O
  O74      1.0000 0.66024  0.97256  0.47163  Biso   1.000  O
  O75      1.0000 0.45699  0.64830  0.01318  Biso   1.000  O
  O76      1.0000 0.49882  0.45089  0.86581  Biso   1.000  O
  O77      1.0000 0.16646  0.98520  0.05661  Biso   1.000  O
  O78      1.0000 0.94765  0.64974  0.51927  Biso   1.000  O
  O79      1.0000 0.50278  0.94790  0.66768  Biso   1.000  O
  O80      1.0000 0.84178  0.48776  0.47735  Biso   1.000  O
  O81      1.0000 0.05084  0.14748  0.01382  Biso   1.000  O
  O82      1.0000 0.01100  0.94710  0.85880  Biso   1.000  O
  O83      1.0000 0.33976  0.48687  0.05723  Biso   1.000  O
  O84      1.0000 0.55791  0.15022  0.51288  Biso   1.000  O
  O85      1.0000 0.99264  0.53610  0.36508  Biso   1.000  O
  O86      1.0000 0.34436  0.00653  0.56333  Biso   1.000  O
  O87      1.0000 0.55407  0.33470  0.01734  Biso   1.000  O
  O88      1.0000 0.49149  0.53963  0.17411  Biso   1.000  O
  O89      1.0000 0.84775  0.00078  0.97416  Biso   1.000  O
  O90      1.0000 0.05541  0.33523  0.51752  Biso   1.000  O
  O91      1.0000 0.50040  0.03720  0.35863  Biso   1.000  O
  O92      1.0000 0.15995  0.50298  0.55932  Biso   1.000  O
  O93      1.0000 0.95832  0.84412  0.01321  Biso   1.000  O
  O94      1.0000 0.00224  0.03636  0.17260  Biso   1.000  O
  O95      1.0000 0.65612  0.50589  0.97660  Biso   1.000  O
  O96      1.0000 0.44677  0.83930  0.50472  Biso   1.000  O
  O97      1.0000 0.47360  0.20225  0.51132  Biso   1.000  O
  O98      1.0000 0.49702  0.45503  0.22663  Biso   1.000  O
  O99      1.0000 0.20391  0.49956  0.47339  Biso   1.000  O
  O100     1.0000 0.97001  0.20239  0.00159  Biso   1.000  O
  O101     1.0000 0.00053  0.45994  0.30969  Biso   1.000  O
  O102     1.0000 0.70285  0.50818  0.06070  Biso   1.000  O
  O103     1.0000 0.02995  0.70183  0.51309  Biso   1.000  O
  O104     1.0000 0.00721  0.95508  0.22565  Biso   1.000  O
  O105     1.0000 0.29923  0.00279  0.47693  Biso   1.000  O
  O106     1.0000 0.54034  0.70267  0.01297  Biso   1.000  O
  O107     1.0000 0.49576  0.95690  0.30779  Biso   1.000  O
  O108     1.0000 0.79805  0.00393  0.05560  Biso   1.000  O
  O109     1.0000 0.52908  0.78869  0.50369  Biso   1.000  O
  O110     1.0000 0.50488  0.53267  0.81197  Biso   1.000  O
  O111     1.0000 0.80125  0.46964  0.55944  Biso   1.000  O
  O112     1.0000 0.03920  0.79361  0.03180  Biso   1.000  O
  O113     1.0000 0.00125  0.53032  0.71861  Biso   1.000  O
  O114     1.0000 0.29838  0.49513  0.97431  Biso   1.000  O
  O115     1.0000 0.97721  0.28308  0.50398  Biso   1.000  O
  O116     1.0000 0.00625  0.03137  0.80795  Biso   1.000  O
  O117     1.0000 0.70406  0.99438  0.55208  Biso   1.000  O
  O118     1.0000 0.46682  0.29182  0.02924  Biso   1.000  O
  O119     1.0000 0.50623  0.03243  0.71609  Biso   1.000  O
  O120     1.0000 0.21158  0.00088  0.97592  Biso   1.000  O
  O121     1.0000 0.04374  0.49248  0.71852  Biso   1.000  O
  O122     1.0000 0.70757  0.02072  0.50199  Biso   1.000  O
  O123     1.0000 0.49586  0.69477  0.05451  Biso   1.000  O
  O124     1.0000 0.54226  0.48659  0.81128  Biso   1.000  O
  O125     1.0000 0.21643  0.02919  0.02065  Biso   1.000  O
  O126     1.0000 0.98228  0.70067  0.48038  Biso   1.000  O
  O127     1.0000 0.46170  0.99536  0.71720  Biso   1.000  O
  O128     1.0000 0.79722  0.52284  0.52333  Biso   1.000  O
  O129     1.0000 0.00706  0.20058  0.05063  Biso   1.000  O
  O130     1.0000 0.96753  0.98496  0.81094  Biso   1.000  O
  O131     1.0000 0.29335  0.52981  0.01772  Biso   1.000  O
  O132     1.0000 0.51539  0.20151  0.47054  Biso   1.000  O
  O133     1.0000 0.95201  0.49540  0.30959  Biso   1.000  O
  O134     1.0000 0.29588  0.96227  0.51840  Biso   1.000  O
  O135     1.0000 0.49817  0.29035  0.98102  Biso   1.000  O
  O136     1.0000 0.45407  0.49706  0.22210  Biso   1.000  O
  O137     1.0000 0.79645  0.95998  0.01878  Biso   1.000  O
  O138     1.0000 0.01255  0.28545  0.54770  Biso   1.000  O
  O139     1.0000 0.54456  0.99451  0.31066  Biso   1.000  O
  O140     1.0000 0.20973  0.46493  0.51873  Biso   1.000  O
  O141     1.0000 0.00242  0.79164  0.98248  Biso   1.000  O
  O142     1.0000 0.04900  0.99740  0.22199  Biso   1.000  O
  O143     1.0000 0.70470  0.46554  0.01906  Biso   1.000  O
  O144     1.0000 0.48790  0.78816  0.54705  Biso   1.000  O
  O145     1.0000 0.53823  0.49776  0.22003  Biso   1.000  O
  O146     1.0000 0.20238  0.54767  0.51108  Biso   1.000  O
  O147     1.0000 0.51639  0.19886  0.55484  Biso   1.000  O
  O148     1.0000 0.03714  0.50343  0.31037  Biso   1.000  O
  O149     1.0000 0.70805  0.54934  0.01931  Biso   1.000  O
  O150     1.0000 0.01286  0.19709  0.96655  Biso   1.000  O
  O151     1.0000 0.96237  0.99535  0.22085  Biso   1.000  O
  O152     1.0000 0.30232  0.04695  0.52148  Biso   1.000  O
  O153     1.0000 0.99562  0.69817  0.56257  Biso   1.000  O
  O154     1.0000 0.46271  0.00271  0.31675  Biso   1.000  O
  O155     1.0000 0.79994  0.04445  0.00777  Biso   1.000  O
  O156     1.0000 0.49723  0.70119  0.97045  Biso   1.000  O
  O157     1.0000 0.46004  0.49907  0.81481  Biso   1.000  O
  O158     1.0000 0.80382  0.43644  0.51341  Biso   1.000  O
  O159     1.0000 0.48447  0.79114  0.46549  Biso   1.000  O
  O160     1.0000 0.96323  0.48151  0.71601  Biso   1.000  O
  O161     1.0000 0.29734  0.44665  0.01126  Biso   1.000  O
  O162     1.0000 0.99109  0.79050  0.06454  Biso   1.000  O
  O163     1.0000 0.05031  0.99133  0.80896  Biso   1.000  O
  O164     1.0000 0.70849  0.93768  0.52353  Biso   1.000  O
  O165     1.0000 0.02023  0.28888  0.46502  Biso   1.000  O
  O166     1.0000 0.54651  0.98785  0.71636  Biso   1.000  O
  O167     1.0000 0.21188  0.94791  0.00730  Biso   1.000  O
  O168     1.0000 0.51778  0.29076  0.06494  Biso   1.000  O
  O169     1.0000 0.00290  0.03847  0.22064  Biso   1.000  O
  O170     1.0000 0.21507  0.97897  0.05744  Biso   1.000  O
  O171     1.0000 0.05318  0.19718  0.01543  Biso   1.000  O
  O172     1.0000 0.50829  0.03632  0.30922  Biso   1.000  O
  O173     1.0000 0.70903  0.96681  0.47325  Biso   1.000  O
  O174     1.0000 0.55880  0.19746  0.51611  Biso   1.000  O
  O175     1.0000 0.49500  0.53925  0.22257  Biso   1.000  O
  O176     1.0000 0.29174  0.48551  0.05684  Biso   1.000  O
  O177     1.0000 0.45675  0.69704  0.01723  Biso   1.000  O
  O178     1.0000 0.98435  0.54094  0.31719  Biso   1.000  O
  O179     1.0000 0.79310  0.48006  0.47680  Biso   1.000  O
  O180     1.0000 0.94620  0.69711  0.53126  Biso   1.000  O
  O181     1.0000 0.01180  0.94786  0.80979  Biso   1.000  O
  O182     1.0000 0.80010  0.99671  0.97060  Biso   1.000  O
  O183     1.0000 0.95670  0.79600  0.01760  Biso   1.000  O
  O184     1.0000 0.49985  0.94697  0.71639  Biso   1.000  O
  O185     1.0000 0.29451  0.00472  0.56189  Biso   1.000  O
  O186     1.0000 0.44686  0.78955  0.50329  Biso   1.000  O
  O187     1.0000 0.49523  0.45152  0.81734  Biso   1.000  O
  O188     1.0000 0.70440  0.50848  0.97587  Biso   1.000  O
  O189     1.0000 0.55268  0.28590  0.01465  Biso   1.000  O
  O190     1.0000 0.00803  0.44521  0.71203  Biso   1.000  O
  O191     1.0000 0.20766  0.51245  0.55628  Biso   1.000  O
  O192     1.0000 0.06171  0.28710  0.50858  Biso   1.000  O
