data_image0
_cell_length_a       46.5441
_cell_length_b       46.7184
_cell_length_c       46.6295
_cell_angle_alpha    90
_cell_angle_beta     90
_cell_angle_gamma    90

_symmetry_space_group_name_H-M    "P 1"
_symmetry_int_tables_number       1

loop_
  _symmetry_equiv_pos_as_xyz
  'x, y, z'

loop_
  _atom_site_label
  _atom_site_occupancy
  _atom_site_fract_x
  _atom_site_fract_y
  _atom_site_fract_z
  _atom_site_thermal_displace_type
  _atom_site_B_iso_or_equiv
  _atom_site_type_symbol
  C1       1.0000 0.56482  0.96109  0.34041  Biso   1.000  C
  C2       1.0000 0.33002  0.50342  0.01470  Biso   1.000  C
  C3       1.0000 0.02594  0.28822  0.59032  Biso   1.000  C
  C4       1.0000 0.06648  0.96446  0.20478  Biso   1.000  C
  C5       1.0000 0.83829  0.52497  0.55366  Biso   1.000  C
  C6       1.0000 0.52945  0.28987  0.97017  Biso   1.000  C
  C7       1.0000 0.95497  0.45883  0.35273  Biso   1.000  C
  C8       1.0000 0.19776  0.00111  0.01878  Biso   1.000  C
  C9       1.0000 0.52264  0.79385  0.58896  Biso   1.000  C
  C10      1.0000 0.45410  0.45070  0.20380  Biso   1.000  C
  C11      1.0000 0.69089  0.02710  0.51473  Biso   1.000  C
  C12      1.0000 0.99132  0.79294  0.96969  Biso   1.000  C
  C13      1.0000 0.46374  0.97191  0.71219  Biso   1.000  C
  C14      1.0000 0.69952  0.42610  0.04263  Biso   1.000  C
  C15      1.0000 0.01652  0.64655  0.47097  Biso   1.000  C
  C16      1.0000 0.96390  0.96537  0.84525  Biso   1.000  C
  C17      1.0000 0.19667  0.40589  0.52885  Biso   1.000  C
  C18      1.0000 0.49863  0.63710  0.08946  Biso   1.000  C
  C19      1.0000 0.08188  0.47810  0.71088  Biso   1.000  C
  C20      1.0000 0.82702  0.92586  0.02277  Biso   1.000  C
  C21      1.0000 0.52074  0.14126  0.46809  Biso   1.000  C
  C22      1.0000 0.57878  0.48269  0.84950  Biso   1.000  C
  C23      1.0000 0.33636  0.89832  0.53305  Biso   1.000  C
  C24      1.0000 0.02739  0.14737  0.08419  Biso   1.000  C
  C25      1.0000 0.33254  0.00590  0.53283  Biso   1.000  C
  C26      1.0000 0.52523  0.27994  0.07704  Biso   1.000  C
  C27      1.0000 0.06359  0.46184  0.33983  Biso   1.000  C
  C28      1.0000 0.83936  0.03274  0.02298  Biso   1.000  C
  C29      1.0000 0.00457  0.28117  0.48213  Biso   1.000  C
  C30      1.0000 0.56222  0.45312  0.21517  Biso   1.000  C
  C31      1.0000 0.20630  0.51125  0.50704  Biso   1.000  C
  C32      1.0000 0.99954  0.78516  0.07771  Biso   1.000  C
  C33      1.0000 0.45596  0.94922  0.34811  Biso   1.000  C
  C34      1.0000 0.69304  0.53336  0.03835  Biso   1.000  C
  C35      1.0000 0.52716  0.79079  0.48005  Biso   1.000  C
  C36      1.0000 0.95771  0.96041  0.20393  Biso   1.000  C
  C37      1.0000 0.70113  0.91764  0.53558  Biso   1.000  C
  C38      1.0000 0.50176  0.64572  0.97995  Biso   1.000  C
  C39      1.0000 0.97412  0.47089  0.71514  Biso   1.000  C
  C40      1.0000 0.19184  0.89259  0.03703  Biso   1.000  C
  C41      1.0000 0.03745  0.64973  0.57981  Biso   1.000  C
  C42      1.0000 0.46964  0.46748  0.84639  Biso   1.000  C
  C43      1.0000 0.83362  0.41959  0.54415  Biso   1.000  C
  C44      1.0000 0.02472  0.14659  0.97601  Biso   1.000  C
  C45      1.0000 0.57448  0.97982  0.70472  Biso   1.000  C
  C46      1.0000 0.33750  0.39738  0.02377  Biso   1.000  C
  C47      1.0000 0.50203  0.15131  0.57461  Biso   1.000  C
  C48      1.0000 0.07044  0.98074  0.85213  Biso   1.000  C
  C49      1.0000 0.00908  0.02524  0.84533  Biso   1.000  C
  C50      1.0000 0.83541  0.97950  0.07330  Biso   1.000  C
  C51      1.0000 0.05005  0.78184  0.01788  Biso   1.000  C
  C52      1.0000 0.51092  0.03187  0.70544  Biso   1.000  C
  C53      1.0000 0.33325  0.95058  0.47970  Biso   1.000  C
  C54      1.0000 0.58068  0.79353  0.53881  Biso   1.000  C
  C55      1.0000 0.51529  0.52757  0.84681  Biso   1.000  C
  C56      1.0000 0.69363  0.47801  0.09972  Biso   1.000  C
  C57      1.0000 0.47511  0.28304  0.02221  Biso   1.000  C
  C58      1.0000 0.02790  0.52806  0.71187  Biso   1.000  C
  C59      1.0000 0.19709  0.44882  0.46380  Biso   1.000  C
  C60      1.0000 0.95846  0.28723  0.54956  Biso   1.000  C
  C61      1.0000 0.01818  0.91116  0.20566  Biso   1.000  C
  C62      1.0000 0.19570  0.94157  0.97629  Biso   1.000  C
  C63      1.0000 0.97204  0.15357  0.03352  Biso   1.000  C
  C64      1.0000 0.51609  0.90213  0.34475  Biso   1.000  C
  C65      1.0000 0.69595  0.98346  0.57644  Biso   1.000  C
  C66      1.0000 0.45762  0.13825  0.51440  Biso   1.000  C
  C67      1.0000 0.50462  0.40043  0.20901  Biso   1.000  C
  C68      1.0000 0.33747  0.44559  0.96546  Biso   1.000  C
  C69      1.0000 0.55084  0.64455  0.03492  Biso   1.000  C
  C70      1.0000 0.01126  0.40342  0.35036  Biso   1.000  C
  C71      1.0000 0.83690  0.46767  0.59989  Biso   1.000  C
  C72      1.0000 0.08104  0.64268  0.51681  Biso   1.000  C
  C73      1.0000 0.00910  0.51414  0.34567  Biso   1.000  C
  C74      1.0000 0.33338  0.95464  0.58797  Biso   1.000  C
  C75      1.0000 0.58173  0.29051  0.02904  Biso   1.000  C
  C76      1.0000 0.50854  0.50732  0.20926  Biso   1.000  C
  C77      1.0000 0.82853  0.97961  0.96553  Biso   1.000  C
  C78      1.0000 0.06654  0.28239  0.52379  Biso   1.000  C
  C79      1.0000 0.50365  0.01008  0.34667  Biso   1.000  C
  C80      1.0000 0.20592  0.47093  0.56956  Biso   1.000  C
  C81      1.0000 0.94316  0.79463  0.02447  Biso   1.000  C
  C82      1.0000 0.00949  0.01931  0.20578  Biso   1.000  C
  C83      1.0000 0.69943  0.47541  0.98908  Biso   1.000  C
  C84      1.0000 0.46945  0.78465  0.53237  Biso   1.000  C
  C85      1.0000 0.03475  0.41871  0.71346  Biso   1.000  C
  C86      1.0000 0.69303  0.96505  0.46904  Biso   1.000  C
  C87      1.0000 0.44374  0.63947  0.03717  Biso   1.000  C
  C88      1.0000 0.53171  0.42132  0.84733  Biso   1.000  C
  C89      1.0000 0.20163  0.95486  0.08396  Biso   1.000  C
  C90      1.0000 0.97164  0.64674  0.53508  Biso   1.000  C
  C91      1.0000 0.52255  0.92324  0.71188  Biso   1.000  C
  C92      1.0000 0.83371  0.47394  0.49109  Biso   1.000  C
  C93      1.0000 0.08124  0.13685  0.02904  Biso   1.000  C
  C94      1.0000 0.02664  0.91838  0.84976  Biso   1.000  C
  C95      1.0000 0.32927  0.45534  0.07209  Biso   1.000  C
  C96      1.0000 0.56634  0.15139  0.52980  Biso   1.000  C
  C97      1.0000 0.68884  0.05815  0.51708  Biso   1.000  C
  C98      1.0000 0.49913  0.63815  0.12168  Biso   1.000  C
  C99      1.0000 0.11404  0.48367  0.70529  Biso   1.000  C
  C100     1.0000 0.19991  0.03276  0.01840  Biso   1.000  C
  C101     1.0000 0.01744  0.64521  0.43923  Biso   1.000  C
  C102     1.0000 0.61030  0.47996  0.85382  Biso   1.000  C
  C103     1.0000 0.84066  0.55673  0.55784  Biso   1.000  C
  C104     1.0000 0.02662  0.14818  0.11558  Biso   1.000  C
  C105     1.0000 0.43020  0.97027  0.71260  Biso   1.000  C
  C106     1.0000 0.32657  0.53437  0.02146  Biso   1.000  C
  C107     1.0000 0.52950  0.13749  0.43705  Biso   1.000  C
  C108     1.0000 0.93186  0.96779  0.84172  Biso   1.000  C
  C109     1.0000 0.33693  0.86757  0.53936  Biso   1.000  C
  C110     1.0000 0.52943  0.28946  0.93722  Biso   1.000  C
  C111     1.0000 0.92267  0.45861  0.35735  Biso   1.000  C
  C112     1.0000 0.82317  0.89434  0.02377  Biso   1.000  C
  C113     1.0000 0.02656  0.29053  0.62181  Biso   1.000  C
  C114     1.0000 0.42120  0.44994  0.20311  Biso   1.000  C
  C115     1.0000 0.19637  0.37432  0.52779  Biso   1.000  C
  C116     1.0000 0.99195  0.79353  0.93717  Biso   1.000  C
  C117     1.0000 0.59781  0.96337  0.34144  Biso   1.000  C
  C118     1.0000 0.70312  0.39655  0.03253  Biso   1.000  C
  C119     1.0000 0.51784  0.79656  0.62191  Biso   1.000  C
  C120     1.0000 0.09780  0.95610  0.20633  Biso   1.000  C
  C121     1.0000 0.83641  0.98162  0.10434  Biso   1.000  C
  C122     1.0000 0.08206  0.77866  0.02171  Biso   1.000  C
  C123     1.0000 0.01029  0.05736  0.84519  Biso   1.000  C
  C124     1.0000 0.33177  0.94657  0.44802  Biso   1.000  C
  C125     1.0000 0.61247  0.79092  0.54532  Biso   1.000  C
  C126     1.0000 0.51244  0.06416  0.70634  Biso   1.000  C
  C127     1.0000 0.69531  0.47623  0.13135  Biso   1.000  C
  C128     1.0000 0.44323  0.28008  0.02464  Biso   1.000  C
  C129     1.0000 0.51646  0.55938  0.84857  Biso   1.000  C
  C130     1.0000 0.19662  0.45299  0.43261  Biso   1.000  C
  C131     1.0000 0.92685  0.28827  0.55209  Biso   1.000  C
  C132     1.0000 0.02666  0.56059  0.71092  Biso   1.000  C
  C133     1.0000 0.19610  0.94457  0.94332  Biso   1.000  C
  C134     1.0000 0.93985  0.15568  0.03952  Biso   1.000  C
  C135     1.0000 0.02231  0.88019  0.20521  Biso   1.000  C
  C136     1.0000 0.69782  0.98596  0.60825  Biso   1.000  C
  C137     1.0000 0.42525  0.13595  0.51280  Biso   1.000  C
  C138     1.0000 0.51993  0.87012  0.34603  Biso   1.000  C
  C139     1.0000 0.33822  0.44952  0.93268  Biso   1.000  C
  C140     1.0000 0.58411  0.64936  0.03483  Biso   1.000  C
  C141     1.0000 0.50524  0.36840  0.20631  Biso   1.000  C
  C142     1.0000 0.83719  0.46659  0.63216  Biso   1.000  C
  C143     1.0000 0.11164  0.64028  0.51293  Biso   1.000  C
  C144     1.0000 0.01279  0.37088  0.35197  Biso   1.000  C
  C145     1.0000 0.32994  0.45626  0.10473  Biso   1.000  C
  C146     1.0000 0.09889  0.28145  0.52505  Biso   1.000  C
  C147     1.0000 0.50146  0.04205  0.34432  Biso   1.000  C
  C148     1.0000 0.83275  0.48018  0.45990  Biso   1.000  C
  C149     1.0000 0.61411  0.29297  0.03169  Biso   1.000  C
  C150     1.0000 0.00755  0.05257  0.20606  Biso   1.000  C
  C151     1.0000 0.19839  0.95358  0.11538  Biso   1.000  C
  C152     1.0000 0.43820  0.78313  0.52586  Biso   1.000  C
  C153     1.0000 0.00911  0.54673  0.34625  Biso   1.000  C
  C154     1.0000 0.69302  0.96321  0.43639  Biso   1.000  C
  C155     1.0000 0.91165  0.79683  0.01757  Biso   1.000  C
  C156     1.0000 0.51487  0.53957  0.21093  Biso   1.000  C
  C157     1.0000 0.70029  0.47571  0.95723  Biso   1.000  C
  C158     1.0000 0.93875  0.64752  0.54169  Biso   1.000  C
  C159     1.0000 0.52380  0.89134  0.71375  Biso   1.000  C
  C160     1.0000 0.20564  0.47410  0.60149  Biso   1.000  C
  C161     1.0000 0.41075  0.63578  0.03688  Biso   1.000  C
  C162     1.0000 0.02426  0.88712  0.84917  Biso   1.000  C
  C163     1.0000 0.83158  0.98530  0.93410  Biso   1.000  C
  C164     1.0000 0.59852  0.14986  0.53589  Biso   1.000  C
  C165     1.0000 0.03426  0.38732  0.71485  Biso   1.000  C
  C166     1.0000 0.33360  0.95803  0.62089  Biso   1.000  C
  C167     1.0000 0.11278  0.13354  0.03045  Biso   1.000  C
  C168     1.0000 0.53077  0.38810  0.84545  Biso   1.000  C
  C169     1.0000 0.00102  0.78619  0.10911  Biso   1.000  C
  C170     1.0000 0.10170  0.97779  0.85392  Biso   1.000  C
  C171     1.0000 0.84135  0.06504  0.02558  Biso   1.000  C
  C172     1.0000 0.52763  0.78611  0.44735  Biso   1.000  C
  C173     1.0000 0.60704  0.98171  0.70433  Biso   1.000  C
  C174     1.0000 0.33233  0.03812  0.53027  Biso   1.000  C
  C175     1.0000 0.51815  0.27731  0.10750  Biso   1.000  C
  C176     1.0000 0.43550  0.46846  0.84378  Biso   1.000  C
  C177     1.0000 0.68880  0.56492  0.03969  Biso   1.000  C
  C178     1.0000 0.00841  0.27811  0.44966  Biso   1.000  C
  C179     1.0000 0.94139  0.47480  0.71808  Biso   1.000  C
  C180     1.0000 0.20906  0.54268  0.50381  Biso   1.000  C
  C181     1.0000 0.02182  0.14687  0.94421  Biso   1.000  C
  C182     1.0000 0.92577  0.95882  0.20310  Biso   1.000  C
  C183     1.0000 0.18780  0.85965  0.03405  Biso   1.000  C
  C184     1.0000 0.49765  0.15417  0.60662  Biso   1.000  C
  C185     1.0000 0.42310  0.94640  0.35102  Biso   1.000  C
  C186     1.0000 0.70538  0.88557  0.54144  Biso   1.000  C
  C187     1.0000 0.50666  0.64698  0.94840  Biso   1.000  C
  C188     1.0000 0.59446  0.45039  0.21774  Biso   1.000  C
  C189     1.0000 0.33962  0.36568  0.02623  Biso   1.000  C
  C190     1.0000 0.04111  0.65103  0.61218  Biso   1.000  C
  C191     1.0000 0.09538  0.46360  0.34013  Biso   1.000  C
  C192     1.0000 0.83294  0.38728  0.54425  Biso   1.000  C
  C193     1.0000 0.85985  0.98039  0.91874  Biso   1.000  C
  C194     1.0000 0.89707  0.82470  0.01696  Biso   1.000  C
  C195     1.0000 0.01955  0.87114  0.87546  Biso   1.000  C
  C196     1.0000 0.36229  0.96452  0.63476  Biso   1.000  C
  C197     1.0000 0.42028  0.80777  0.52929  Biso   1.000  C
  C198     1.0000 0.51981  0.87535  0.68708  Biso   1.000  C
  C199     1.0000 0.67366  0.47588  0.93894  Biso   1.000  C
  C200     1.0000 0.62826  0.32186  0.03263  Biso   1.000  C
  C201     1.0000 0.53023  0.37047  0.87265  Biso   1.000  C
  C202     1.0000 0.17866  0.47519  0.61824  Biso   1.000  C
  C203     1.0000 0.11654  0.30779  0.52696  Biso   1.000  C
  C204     1.0000 0.03635  0.37020  0.68812  Biso   1.000  C
  C205     1.0000 0.17005  0.95456  0.13240  Biso   1.000  C
  C206     1.0000 0.12816  0.10423  0.02716  Biso   1.000  C
  C207     1.0000 0.01075  0.06909  0.17981  Biso   1.000  C
  C208     1.0000 0.66716  0.96330  0.41819  Biso   1.000  C
  C209     1.0000 0.61399  0.12225  0.53255  Biso   1.000  C
  C210     1.0000 0.50696  0.05820  0.37089  Biso   1.000  C
  C211     1.0000 0.35635  0.45626  0.12188  Biso   1.000  C
  C212     1.0000 0.39804  0.60770  0.03301  Biso   1.000  C
  C213     1.0000 0.51229  0.55715  0.18526  Biso   1.000  C
  C214     1.0000 0.85953  0.47673  0.44244  Biso   1.000  C
  C215     1.0000 0.92260  0.62117  0.54349  Biso   1.000  C
  C216     1.0000 0.00816  0.56424  0.37273  Biso   1.000  C
  C217     1.0000 0.11861  0.97139  0.88161  Biso   1.000  C
  C218     1.0000 0.86892  0.08031  0.02672  Biso   1.000  C
  C219     1.0000 0.00462  0.81291  0.12583  Biso   1.000  C
  C220     1.0000 0.62103  0.98561  0.67734  Biso   1.000  C
  C221     1.0000 0.35833  0.05439  0.52164  Biso   1.000  C
  C222     1.0000 0.52739  0.81050  0.42831  Biso   1.000  C
  C223     1.0000 0.41833  0.46101  0.86962  Biso   1.000  C
  C224     1.0000 0.66058  0.57811  0.03773  Biso   1.000  C
  C225     1.0000 0.51120  0.30350  0.12486  Biso   1.000  C
  C226     1.0000 0.92212  0.47466  0.69254  Biso   1.000  C
  C227     1.0000 0.18078  0.55852  0.50476  Biso   1.000  C
  C228     1.0000 0.01065  0.30378  0.43348  Biso   1.000  C
  C229     1.0000 0.91185  0.96233  0.17474  Biso   1.000  C
  C230     1.0000 0.15806  0.84641  0.03014  Biso   1.000  C
  C231     1.0000 0.02131  0.12119  0.92655  Biso   1.000  C
  C232     1.0000 0.40837  0.94905  0.37801  Biso   1.000  C
  C233     1.0000 0.67910  0.86739  0.54271  Biso   1.000  C
  C234     1.0000 0.49907  0.12820  0.62562  Biso   1.000  C
  C235     1.0000 0.61225  0.45717  0.19122  Biso   1.000  C
  C236     1.0000 0.36669  0.35330  0.02311  Biso   1.000  C
  C237     1.0000 0.50866  0.62060  0.93100  Biso   1.000  C
  C238     1.0000 0.11445  0.46103  0.36660  Biso   1.000  C
  C239     1.0000 0.86002  0.36970  0.54718  Biso   1.000  C
  C240     1.0000 0.03800  0.62528  0.62916  Biso   1.000  C
  C241     1.0000 0.62353  0.47872  0.88227  Biso   1.000  C
  C242     1.0000 0.86833  0.57274  0.55418  Biso   1.000  C
  C243     1.0000 0.52002  0.82302  0.63801  Biso   1.000  C
  C244     1.0000 0.12799  0.47903  0.67695  Biso   1.000  C
  C245     1.0000 0.35209  0.55266  0.02680  Biso   1.000  C
  C246     1.0000 0.00312  0.81925  0.92323  Biso   1.000  C
  C247     1.0000 0.91534  0.97337  0.86781  Biso   1.000  C
  C248     1.0000 0.66275  0.07249  0.52426  Biso   1.000  C
  C249     1.0000 0.03007  0.31810  0.63748  Biso   1.000  C
  C250     1.0000 0.41445  0.96880  0.68505  Biso   1.000  C
  C251     1.0000 0.17554  0.04960  0.02588  Biso   1.000  C
  C252     1.0000 0.53003  0.31675  0.92169  Biso   1.000  C
  C253     1.0000 0.40616  0.45544  0.17673  Biso   1.000  C
  C254     1.0000 0.16952  0.35686  0.52631  Biso   1.000  C
  C255     1.0000 0.52381  0.11017  0.42215  Biso   1.000  C
  C256     1.0000 0.91058  0.46639  0.38507  Biso   1.000  C
  C257     1.0000 0.67739  0.37934  0.03073  Biso   1.000  C
  C258     1.0000 0.02115  0.12114  0.13024  Biso   1.000  C
  C259     1.0000 0.11687  0.95705  0.18114  Biso   1.000  C
  C260     1.0000 0.36556  0.85428  0.54075  Biso   1.000  C
  C261     1.0000 0.01350  0.61844  0.42401  Biso   1.000  C
  C262     1.0000 0.61491  0.96421  0.36850  Biso   1.000  C
  C263     1.0000 0.84806  0.87610  0.02056  Biso   1.000  C
  C264     1.0000 0.50539  0.61052  0.13665  Biso   1.000  C
  C265     1.0000 0.01205  0.07198  0.87290  Biso   1.000  C
  C266     1.0000 0.86282  0.97542  0.12066  Biso   1.000  C
  C267     1.0000 0.10128  0.80339  0.02365  Biso   1.000  C
  C268     1.0000 0.50869  0.08050  0.67973  Biso   1.000  C
  C269     1.0000 0.35866  0.94793  0.43081  Biso   1.000  C
  C270     1.0000 0.62980  0.81653  0.54487  Biso   1.000  C
  C271     1.0000 0.51548  0.57363  0.87611  Biso   1.000  C
  C272     1.0000 0.66774  0.47062  0.14560  Biso   1.000  C
  C273     1.0000 0.42488  0.30579  0.02386  Biso   1.000  C
  C274     1.0000 0.02964  0.57519  0.68246  Biso   1.000  C
  C275     1.0000 0.16854  0.45580  0.41698  Biso   1.000  C
  C276     1.0000 0.91116  0.31656  0.55265  Biso   1.000  C
  C277     1.0000 0.01753  0.86323  0.17817  Biso   1.000  C
  C278     1.0000 0.16965  0.95080  0.92909  Biso   1.000  C
  C279     1.0000 0.92360  0.12897  0.03522  Biso   1.000  C
  C280     1.0000 0.52390  0.85672  0.37418  Biso   1.000  C
  C281     1.0000 0.67104  0.98492  0.62536  Biso   1.000  C
  C282     1.0000 0.40987  0.10888  0.51740  Biso   1.000  C
  C283     1.0000 0.50531  0.35265  0.17735  Biso   1.000  C
  C284     1.0000 0.36599  0.45396  0.91817  Biso   1.000  C
  C285     1.0000 0.60430  0.62510  0.03515  Biso   1.000  C
  C286     1.0000 0.01134  0.35541  0.38101  Biso   1.000  C
  C287     1.0000 0.86582  0.46839  0.64578  Biso   1.000  C
  C288     1.0000 0.12692  0.61184  0.50971  Biso   1.000  C
  C289     1.0000 0.36627  0.82376  0.53520  Biso   1.000  C
  C290     1.0000 0.53043  0.31690  0.89079  Biso   1.000  C
  C291     1.0000 0.87896  0.46735  0.38725  Biso   1.000  C
  C292     1.0000 0.84351  0.84524  0.01577  Biso   1.000  C
  C293     1.0000 0.02745  0.31853  0.66965  Biso   1.000  C
  C294     1.0000 0.37498  0.45219  0.17656  Biso   1.000  C
  C295     1.0000 0.16938  0.32670  0.52791  Biso   1.000  C
  C296     1.0000 0.00716  0.81842  0.89264  Biso   1.000  C
  C297     1.0000 0.64626  0.96308  0.36649  Biso   1.000  C
  C298     1.0000 0.67941  0.34747  0.02986  Biso   1.000  C
  C299     1.0000 0.51924  0.82199  0.66923  Biso   1.000  C
  C300     1.0000 0.14739  0.95379  0.18431  Biso   1.000  C
  C301     1.0000 0.66678  0.10343  0.52812  Biso   1.000  C
  C302     1.0000 0.51044  0.61165  0.16782  Biso   1.000  C
  C303     1.0000 0.15874  0.48150  0.67269  Biso   1.000  C
  C304     1.0000 0.17921  0.08230  0.02344  Biso   1.000  C
  C305     1.0000 0.01319  0.61776  0.39167  Biso   1.000  C
  C306     1.0000 0.65546  0.47628  0.88420  Biso   1.000  C
  C307     1.0000 0.86889  0.60487  0.55623  Biso   1.000  C
  C308     1.0000 0.01577  0.12295  0.16133  Biso   1.000  C
  C309     1.0000 0.38374  0.96681  0.68689  Biso   1.000  C
  C310     1.0000 0.34730  0.58252  0.03258  Biso   1.000  C
  C311     1.0000 0.51723  0.11094  0.39105  Biso   1.000  C
  C312     1.0000 0.88468  0.98206  0.86657  Biso   1.000  C
  C313     1.0000 0.16862  0.45457  0.38623  Biso   1.000  C
  C314     1.0000 0.37891  0.10812  0.51840  Biso   1.000  C
  C315     1.0000 0.50466  0.32168  0.17844  Biso   1.000  C
  C316     1.0000 0.66732  0.46536  0.17533  Biso   1.000  C
  C317     1.0000 0.89234  0.13149  0.03277  Biso   1.000  C
  C318     1.0000 0.00803  0.32426  0.38063  Biso   1.000  C
  C319     1.0000 0.35565  0.94331  0.40050  Biso   1.000  C
  C320     1.0000 0.15909  0.61042  0.50997  Biso   1.000  C
  C321     1.0000 0.01577  0.83180  0.17870  Biso   1.000  C
  C322     1.0000 0.86038  0.97052  0.15056  Biso   1.000  C
  C323     1.0000 0.63576  0.62880  0.03497  Biso   1.000  C
  C324     1.0000 0.52646  0.82612  0.37491  Biso   1.000  C
  C325     1.0000 0.86735  0.47213  0.67713  Biso   1.000  C
  C326     1.0000 0.66045  0.81548  0.54705  Biso   1.000  C
  C327     1.0000 0.51814  0.60474  0.87766  Biso   1.000  C
  C328     1.0000 0.36610  0.46109  0.88714  Biso   1.000  C
  C329     1.0000 0.13264  0.79691  0.02497  Biso   1.000  C
  C330     1.0000 0.03027  0.60712  0.68231  Biso   1.000  C
  C331     1.0000 0.67249  0.99014  0.65574  Biso   1.000  C
  C332     1.0000 0.87993  0.31606  0.55026  Biso   1.000  C
  C333     1.0000 0.01321  0.10460  0.87265  Biso   1.000  C
  C334     1.0000 0.17052  0.95622  0.89753  Biso   1.000  C
  C335     1.0000 0.39324  0.30295  0.02532  Biso   1.000  C
  C336     1.0000 0.50871  0.11204  0.67882  Biso   1.000  C
  C337     1.0000 0.67601  0.47553  0.90707  Biso   1.000  C
  C338     1.0000 0.89167  0.62442  0.55151  Biso   1.000  C
  C339     1.0000 0.51930  0.84376  0.68958  Biso   1.000  C
  C340     1.0000 0.17966  0.47953  0.64954  Biso   1.000  C
  C341     1.0000 0.36683  0.60631  0.03414  Biso   1.000  C
  C342     1.0000 0.01274  0.83992  0.87187  Biso   1.000  C
  C343     1.0000 0.86124  0.98461  0.88751  Biso   1.000  C
  C344     1.0000 0.64563  0.12422  0.53340  Biso   1.000  C
  C345     1.0000 0.03038  0.33911  0.69159  Biso   1.000  C
  C346     1.0000 0.36108  0.96450  0.66633  Biso   1.000  C
  C347     1.0000 0.15921  0.10389  0.02566  Biso   1.000  C
  C348     1.0000 0.52978  0.33828  0.87044  Biso   1.000  C
  C349     1.0000 0.35376  0.45166  0.15406  Biso   1.000  C
  C350     1.0000 0.14799  0.30558  0.52730  Biso   1.000  C
  C351     1.0000 0.50974  0.08948  0.37112  Biso   1.000  C
  C352     1.0000 0.85791  0.47264  0.41079  Biso   1.000  C
  C353     1.0000 0.66028  0.32421  0.03054  Biso   1.000  C
  C354     1.0000 0.01047  0.10072  0.18220  Biso   1.000  C
  C355     1.0000 0.16987  0.95341  0.16387  Biso   1.000  C
  C356     1.0000 0.38908  0.80297  0.53026  Biso   1.000  C
  C357     1.0000 0.01058  0.59606  0.37039  Biso   1.000  C
  C358     1.0000 0.66756  0.96401  0.38743  Biso   1.000  C
  C359     1.0000 0.86475  0.82320  0.01513  Biso   1.000  C
  C360     1.0000 0.51370  0.58923  0.18732  Biso   1.000  C
  C361     1.0000 0.01587  0.12468  0.89571  Biso   1.000  C
  C362     1.0000 0.88049  0.96418  0.17238  Biso   1.000  C
  C363     1.0000 0.15575  0.81519  0.02747  Biso   1.000  C
  C364     1.0000 0.50455  0.13174  0.65626  Biso   1.000  C
  C365     1.0000 0.37724  0.94409  0.37898  Biso   1.000  C
  C366     1.0000 0.68065  0.83742  0.54591  Biso   1.000  C
  C367     1.0000 0.51362  0.62492  0.89939  Biso   1.000  C
  C368     1.0000 0.64401  0.45923  0.19459  Biso   1.000  C
  C369     1.0000 0.36906  0.32150  0.02443  Biso   1.000  C
  C370     1.0000 0.03434  0.62869  0.66040  Biso   1.000  C
  C371     1.0000 0.14582  0.45626  0.36610  Biso   1.000  C
  C372     1.0000 0.85776  0.33853  0.54801  Biso   1.000  C
  C373     1.0000 0.00946  0.81024  0.15770  Biso   1.000  C
  C374     1.0000 0.14887  0.96458  0.87755  Biso   1.000  C
  C375     1.0000 0.87123  0.11102  0.02930  Biso   1.000  C
  C376     1.0000 0.52702  0.80622  0.39754  Biso   1.000  C
  C377     1.0000 0.65164  0.98980  0.67770  Biso   1.000  C
  C378     1.0000 0.35688  0.08513  0.52072  Biso   1.000  C
  C379     1.0000 0.50736  0.30147  0.15605  Biso   1.000  C
  C380     1.0000 0.38776  0.46710  0.86702  Biso   1.000  C
  C381     1.0000 0.65863  0.60898  0.03517  Biso   1.000  C
  C382     1.0000 0.00769  0.30305  0.40279  Biso   1.000  C
  C383     1.0000 0.89050  0.47273  0.69673  Biso   1.000  C
  C384     1.0000 0.18018  0.58960  0.50804  Biso   1.000  C
  C385     1.0000 0.20684  0.09659  0.02045  Biso   1.000  C
  C386     1.0000 0.01592  0.15031  0.17751  Biso   1.000  C
  C387     1.0000 0.16074  0.94816  0.21177  Biso   1.000  C
  C388     1.0000 0.69437  0.11928  0.52711  Biso   1.000  C
  C389     1.0000 0.51675  0.13810  0.37566  Biso   1.000  C
  C390     1.0000 0.66143  0.96233  0.34022  Biso   1.000  C
  C391     1.0000 0.31909  0.59518  0.03408  Biso   1.000  C
  C392     1.0000 0.50965  0.63821  0.18424  Biso   1.000  C
  C393     1.0000 0.35893  0.44466  0.20315  Biso   1.000  C
  C394     1.0000 0.84261  0.62114  0.56148  Biso   1.000  C
  C395     1.0000 0.01734  0.64442  0.37487  Biso   1.000  C
  C396     1.0000 0.86106  0.46486  0.36240  Biso   1.000  C
  C397     1.0000 0.81565  0.83084  0.01754  Biso   1.000  C
  C398     1.0000 0.00170  0.79292  0.87471  Biso   1.000  C
  C399     1.0000 0.87072  0.98605  0.83954  Biso   1.000  C
  C400     1.0000 0.34004  0.80551  0.53514  Biso   1.000  C
  C401     1.0000 0.51750  0.79531  0.68598  Biso   1.000  C
  C402     1.0000 0.36783  0.96672  0.71442  Biso   1.000  C
  C403     1.0000 0.70793  0.33395  0.02881  Biso   1.000  C
  C404     1.0000 0.52932  0.29057  0.87496  Biso   1.000  C
  C405     1.0000 0.67345  0.48024  0.85889  Biso   1.000  C
  C406     1.0000 0.19680  0.31077  0.52572  Biso   1.000  C
  C407     1.0000 0.02285  0.29238  0.68565  Biso   1.000  C
  C408     1.0000 0.17621  0.48379  0.69869  Biso   1.000  C
  C409     1.0000 0.16303  0.96269  0.84931  Biso   1.000  C
  C410     1.0000 0.84442  0.12717  0.03246  Biso   1.000  C
  C411     1.0000 0.01053  0.78350  0.17271  Biso   1.000  C
  C412     1.0000 0.66863  0.99496  0.70403  Biso   1.000  C
  C413     1.0000 0.32951  0.10034  0.52486  Biso   1.000  C
  C414     1.0000 0.52577  0.77761  0.38411  Biso   1.000  C
  C415     1.0000 0.37318  0.47572  0.84125  Biso   1.000  C
  C416     1.0000 0.68384  0.62617  0.03251  Biso   1.000  C
  C417     1.0000 0.50749  0.27336  0.17062  Biso   1.000  C
  C418     1.0000 0.87826  0.47282  0.72542  Biso   1.000  C
  C419     1.0000 0.20637  0.60534  0.51414  Biso   1.000  C
  C420     1.0000 0.00982  0.27624  0.38780  Biso   1.000  C
  C421     1.0000 0.86356  0.96380  0.19864  Biso   1.000  C
  C422     1.0000 0.18164  0.79697  0.02824  Biso   1.000  C
  C423     1.0000 0.01433  0.15153  0.88014  Biso   1.000  C
  C424     1.0000 0.36079  0.93995  0.35352  Biso   1.000  C
  C425     1.0000 0.70786  0.82369  0.55280  Biso   1.000  C
  C426     1.0000 0.50310  0.16054  0.67048  Biso   1.000  C
  C427     1.0000 0.65780  0.45648  0.22113  Biso   1.000  C
  C428     1.0000 0.34328  0.30313  0.02612  Biso   1.000  C
  C429     1.0000 0.51790  0.65163  0.88582  Biso   1.000  C
  C430     1.0000 0.15906  0.45207  0.33762  Biso   1.000  C
  C431     1.0000 0.82897  0.32308  0.54621  Biso   1.000  C
  C432     1.0000 0.03380  0.65584  0.67575  Biso   1.000  C
  C433     1.0000 0.01075  0.12018  0.84623  Biso   1.000  C
  C434     1.0000 0.83205  0.97175  0.16609  Biso   1.000  C
  C435     1.0000 0.14541  0.76818  0.02493  Biso   1.000  C
  C436     1.0000 0.50939  0.12897  0.70451  Biso   1.000  C
  C437     1.0000 0.32823  0.93792  0.38564  Biso   1.000  C
  C438     1.0000 0.67606  0.78986  0.55227  Biso   1.000  C
  C439     1.0000 0.52296  0.62185  0.85130  Biso   1.000  C
  C440     1.0000 0.69340  0.46660  0.19257  Biso   1.000  C
  C441     1.0000 0.37901  0.27414  0.02712  Biso   1.000  C
  C442     1.0000 0.02892  0.62408  0.70909  Biso   1.000  C
  C443     1.0000 0.19424  0.44719  0.36876  Biso   1.000  C
  C444     1.0000 0.86350  0.29023  0.54837  Biso   1.000  C
  C445     1.0000 0.01983  0.81549  0.20505  Biso   1.000  C
  C446     1.0000 0.19564  0.95128  0.88066  Biso   1.000  C
  C447     1.0000 0.87759  0.15682  0.03885  Biso   1.000  C
  C448     1.0000 0.52782  0.80858  0.35023  Biso   1.000  C
  C449     1.0000 0.69977  0.99540  0.67085  Biso   1.000  C
  C450     1.0000 0.36224  0.13371  0.51765  Biso   1.000  C
  C451     1.0000 0.50146  0.30464  0.20435  Biso   1.000  C
  C452     1.0000 0.33846  0.46590  0.87217  Biso   1.000  C
  C453     1.0000 0.64833  0.65709  0.03237  Biso   1.000  C
  C454     1.0000 0.00668  0.30913  0.35447  Biso   1.000  C
  C455     1.0000 0.84369  0.47043  0.69576  Biso   1.000  C
  C456     1.0000 0.17527  0.63717  0.51370  Biso   1.000  C
  C457     1.0000 0.01127  0.61200  0.34292  Biso   1.000  C
  C458     1.0000 0.33441  0.96404  0.68257  Biso   1.000  C
  C459     1.0000 0.67838  0.29806  0.02789  Biso   1.000  C
  C460     1.0000 0.51575  0.60384  0.21509  Biso   1.000  C
  C461     1.0000 0.83566  0.99210  0.87227  Biso   1.000  C
  C462     1.0000 0.16317  0.27866  0.52473  Biso   1.000  C
  C463     1.0000 0.50490  0.10423  0.34459  Biso   1.000  C
  C464     1.0000 0.20766  0.48184  0.66453  Biso   1.000  C
  C465     1.0000 0.84783  0.79743  0.01520  Biso   1.000  C
  C466     1.0000 0.00932  0.11515  0.20917  Biso   1.000  C
  C467     1.0000 0.70398  0.47648  0.89290  Biso   1.000  C
  C468     1.0000 0.37455  0.77591  0.52787  Biso   1.000  C
  C469     1.0000 0.02724  0.32460  0.71813  Biso   1.000  C
  C470     1.0000 0.69512  0.96325  0.37181  Biso   1.000  C
  C471     1.0000 0.34830  0.63157  0.03831  Biso   1.000  C
  C472     1.0000 0.52901  0.32509  0.84316  Biso   1.000  C
  C473     1.0000 0.19547  0.94740  0.18038  Biso   1.000  C
  C474     1.0000 0.87786  0.65236  0.55755  Biso   1.000  C
  C475     1.0000 0.52014  0.82887  0.71744  Biso   1.000  C
  C476     1.0000 0.82994  0.47380  0.39722  Biso   1.000  C
  C477     1.0000 0.17570  0.13041  0.02557  Biso   1.000  C
  C478     1.0000 0.01184  0.82555  0.84546  Biso   1.000  C
  C479     1.0000 0.32604  0.44614  0.16842  Biso   1.000  C
  C480     1.0000 0.66160  0.15044  0.53424  Biso   1.000  C
  C481     1.0000 0.39220  0.75012  0.52362  Biso   1.000  C
  C482     1.0000 0.52932  0.34200  0.81607  Biso   1.000  C
  C483     1.0000 0.80434  0.48267  0.41411  Biso   1.000  C
  C484     1.0000 0.86380  0.77120  0.01251  Biso   1.000  C
  C485     1.0000 0.02658  0.34091  0.74451  Biso   1.000  C
  C486     1.0000 0.29944  0.44697  0.14947  Biso   1.000  C
  C487     1.0000 0.14515  0.25190  0.52575  Biso   1.000  C
  C488     1.0000 0.02140  0.84073  0.81945  Biso   1.000  C
  C489     1.0000 0.72081  0.96563  0.39027  Biso   1.000  C
  C490     1.0000 0.66325  0.26944  0.02808  Biso   1.000  C
  C491     1.0000 0.52340  0.84531  0.74308  Biso   1.000  C
  C492     1.0000 0.22403  0.94754  0.16446  Biso   1.000  C
  C493     1.0000 0.64480  0.17847  0.53485  Biso   1.000  C
  C494     1.0000 0.52187  0.58534  0.24048  Biso   1.000  C
  C495     1.0000 0.23454  0.48091  0.64847  Biso   1.000  C
  C496     1.0000 0.16144  0.15798  0.02876  Biso   1.000  C
  C497     1.0000 0.01182  0.59350  0.31628  Biso   1.000  C
  C498     1.0000 0.73041  0.47978  0.91062  Biso   1.000  C
  C499     1.0000 0.89619  0.67782  0.55723  Biso   1.000  C
  C500     1.0000 0.00334  0.09882  0.23565  Biso   1.000  C
  C501     1.0000 0.30662  0.95765  0.66826  Biso   1.000  C
  C502     1.0000 0.36288  0.65949  0.04166  Biso   1.000  C
  C503     1.0000 0.49781  0.08911  0.31684  Biso   1.000  C
  C504     1.0000 0.80767  0.99663  0.88683  Biso   1.000  C
  C505     1.0000 0.65841  0.48228  0.82990  Biso   1.000  C
  C506     1.0000 0.81406  0.60655  0.56324  Biso   1.000  C
  C507     1.0000 0.51338  0.76893  0.66963  Biso   1.000  C
  C508     1.0000 0.16290  0.48741  0.72749  Biso   1.000  C
  C509     1.0000 0.29366  0.57770  0.02975  Biso   1.000  C
  C510     1.0000 0.98843  0.76877  0.88954  Biso   1.000  C
  C511     1.0000 0.88831  0.98323  0.81245  Biso   1.000  C
  C512     1.0000 0.72033  0.10290  0.52266  Biso   1.000  C
  C513     1.0000 0.01869  0.26462  0.67007  Biso   1.000  C
  C514     1.0000 0.38297  0.97040  0.74183  Biso   1.000  C
  C515     1.0000 0.23096  0.07851  0.01426  Biso   1.000  C
  C516     1.0000 0.52952  0.26302  0.89021  Biso   1.000  C
  C517     1.0000 0.37446  0.44048  0.23060  Biso   1.000  C
  C518     1.0000 0.22535  0.32619  0.52504  Biso   1.000  C
  C519     1.0000 0.52728  0.16450  0.39040  Biso   1.000  C
  C520     1.0000 0.87427  0.45720  0.33464  Biso   1.000  C
  C521     1.0000 0.73366  0.35111  0.02523  Biso   1.000  C
  C522     1.0000 0.02308  0.17696  0.16225  Biso   1.000  C
  C523     1.0000 0.14340  0.94489  0.23693  Biso   1.000  C
  C524     1.0000 0.31114  0.81906  0.53982  Biso   1.000  C
  C525     1.0000 0.02194  0.67151  0.39062  Biso   1.000  C
  C526     1.0000 0.64476  0.96306  0.31310  Biso   1.000  C
  C527     1.0000 0.78989  0.84972  0.02139  Biso   1.000  C
  C528     1.0000 0.50364  0.66521  0.16915  Biso   1.000  C
  C529     1.0000 0.81604  0.11240  0.03253  Biso   1.000  C
  C530     1.0000 0.00668  0.75801  0.15607  Biso   1.000  C
  C531     1.0000 0.14695  0.97052  0.82283  Biso   1.000  C
  C532     1.0000 0.30238  0.08542  0.53259  Biso   1.000  C
  C533     1.0000 0.52827  0.75297  0.40472  Biso   1.000  C
  C534     1.0000 0.65359  0.99443  0.73171  Biso   1.000  C
  C535     1.0000 0.71227  0.61347  0.03403  Biso   1.000  C
  C536     1.0000 0.51060  0.24649  0.15181  Biso   1.000  C
  C537     1.0000 0.39060  0.48566  0.81723  Biso   1.000  C
  C538     1.0000 0.23404  0.58949  0.51482  Biso   1.000  C
  C539     1.0000 0.00899  0.24907  0.40373  Biso   1.000  C
  C540     1.0000 0.89772  0.47375  0.75021  Biso   1.000  C
  C541     1.0000 0.20908  0.81005  0.03294  Biso   1.000  C
  C542     1.0000 0.01449  0.17729  0.89831  Biso   1.000  C
  C543     1.0000 0.87699  0.96044  0.22684  Biso   1.000  C
  C544     1.0000 0.73424  0.84127  0.55350  Biso   1.000  C
  C545     1.0000 0.49931  0.18573  0.65105  Biso   1.000  C
  C546     1.0000 0.37531  0.93586  0.32525  Biso   1.000  C
  C547     1.0000 0.31433  0.31584  0.02434  Biso   1.000  C
  C548     1.0000 0.51607  0.67741  0.90315  Biso   1.000  C
  C549     1.0000 0.63920  0.44818  0.24580  Biso   1.000  C
  C550     1.0000 0.80207  0.34016  0.54384  Biso   1.000  C
  C551     1.0000 0.03936  0.68291  0.66005  Biso   1.000  C
  C552     1.0000 0.14099  0.45471  0.31046  Biso   1.000  C
  C553     1.0000 0.00911  0.10589  0.81783  Biso   1.000  C
  C554     1.0000 0.80587  0.97888  0.15013  Biso   1.000  C
  C555     1.0000 0.12479  0.74417  0.02294  Biso   1.000  C
  C556     1.0000 0.51277  0.11283  0.73229  Biso   1.000  C
  C557     1.0000 0.30233  0.93818  0.40392  Biso   1.000  C
  C558     1.0000 0.65858  0.76366  0.55629  Biso   1.000  C
  C559     1.0000 0.52367  0.60831  0.82327  Biso   1.000  C
  C560     1.0000 0.72170  0.47034  0.17891  Biso   1.000  C
  C561     1.0000 0.39869  0.24912  0.02555  Biso   1.000  C
  C562     1.0000 0.02298  0.60875  0.73550  Biso   1.000  C
  C563     1.0000 0.22122  0.44625  0.38533  Biso   1.000  C
  C564     1.0000 0.87749  0.26155  0.54977  Biso   1.000  C
  C565     1.0000 0.02262  0.83287  0.23151  Biso   1.000  C
  C566     1.0000 0.22213  0.94176  0.89412  Biso   1.000  C
  C567     1.0000 0.89449  0.18400  0.04433  Biso   1.000  C
  C568     1.0000 0.52435  0.82162  0.32077  Biso   1.000  C
  C569     1.0000 0.72730  0.99865  0.65201  Biso   1.000  C
  C570     1.0000 0.37651  0.16075  0.50855  Biso   1.000  C
  C571     1.0000 0.50046  0.31979  0.23266  Biso   1.000  C
  C572     1.0000 0.31045  0.46185  0.88710  Biso   1.000  C
  C573     1.0000 0.62845  0.68200  0.03181  Biso   1.000  C
  C574     1.0000 0.00940  0.32370  0.32685  Biso   1.000  C
  C575     1.0000 0.81521  0.46659  0.68222  Biso   1.000  C
  C576     1.0000 0.16081  0.66551  0.51617  Biso   1.000  C
  C577     1.0000 0.30055  0.45120  0.11895  Biso   1.000  C
  C578     1.0000 0.11358  0.25363  0.52385  Biso   1.000  C
  C579     1.0000 0.49684  0.05586  0.31673  Biso   1.000  C
  C580     1.0000 0.80483  0.48571  0.44514  Biso   1.000  C
  C581     1.0000 0.63226  0.26689  0.03048  Biso   1.000  C
  C582     1.0000 0.00043  0.06697  0.23253  Biso   1.000  C
  C583     1.0000 0.22533  0.95192  0.13243  Biso   1.000  C
  C584     1.0000 0.42457  0.75557  0.51834  Biso   1.000  C
  C585     1.0000 0.00964  0.56206  0.31786  Biso   1.000  C
  C586     1.0000 0.71964  0.96565  0.42229  Biso   1.000  C
  C587     1.0000 0.89457  0.77079  0.01208  Biso   1.000  C
  C588     1.0000 0.52042  0.55407  0.23760  Biso   1.000  C
  C589     1.0000 0.72769  0.47790  0.94177  Biso   1.000  C
  C590     1.0000 0.92631  0.67503  0.54797  Biso   1.000  C
  C591     1.0000 0.52534  0.87626  0.74154  Biso   1.000  C
  C592     1.0000 0.23330  0.47700  0.61678  Biso   1.000  C
  C593     1.0000 0.39363  0.66121  0.04158  Biso   1.000  C
  C594     1.0000 0.02728  0.87178  0.82190  Biso   1.000  C
  C595     1.0000 0.80503  0.99341  0.91804  Biso   1.000  C
  C596     1.0000 0.61393  0.17816  0.53477  Biso   1.000  C
  C597     1.0000 0.02919  0.37326  0.74354  Biso   1.000  C
  C598     1.0000 0.30718  0.95361  0.63713  Biso   1.000  C
  C599     1.0000 0.13065  0.15906  0.03166  Biso   1.000  C
  C600     1.0000 0.52955  0.37320  0.81753  Biso   1.000  C
  C601     1.0000 0.22266  0.94084  0.92667  Biso   1.000  C
  C602     1.0000 0.92526  0.18330  0.04480  Biso   1.000  C
  C603     1.0000 0.02381  0.86412  0.23197  Biso   1.000  C
  C604     1.0000 0.72578  0.99557  0.62132  Biso   1.000  C
  C605     1.0000 0.40709  0.16130  0.50492  Biso   1.000  C
  C606     1.0000 0.51882  0.85344  0.31924  Biso   1.000  C
  C607     1.0000 0.31081  0.45272  0.91687  Biso   1.000  C
  C608     1.0000 0.59616  0.67875  0.03285  Biso   1.000  C
  C609     1.0000 0.50427  0.35088  0.23377  Biso   1.000  C
  C610     1.0000 0.81167  0.46675  0.65049  Biso   1.000  C
  C611     1.0000 0.12965  0.66661  0.51682  Biso   1.000  C
  C612     1.0000 0.01181  0.35459  0.32534  Biso   1.000  C
  C613     1.0000 0.80873  0.98282  0.11891  Biso   1.000  C
  C614     1.0000 0.09511  0.75024  0.02225  Biso   1.000  C
  C615     1.0000 0.00849  0.07470  0.81814  Biso   1.000  C
  C616     1.0000 0.30447  0.94196  0.43415  Biso   1.000  C
  C617     1.0000 0.62693  0.76413  0.55180  Biso   1.000  C
  C618     1.0000 0.51350  0.08126  0.73260  Biso   1.000  C
  C619     1.0000 0.72263  0.47590  0.14747  Biso   1.000  C
  C620     1.0000 0.43140  0.25138  0.02537  Biso   1.000  C
  C621     1.0000 0.51906  0.57630  0.82151  Biso   1.000  C
  C622     1.0000 0.22325  0.44985  0.41641  Biso   1.000  C
  C623     1.0000 0.90872  0.26142  0.55082  Biso   1.000  C
  C624     1.0000 0.02110  0.57759  0.73622  Biso   1.000  C
  C625     1.0000 0.01674  0.17486  0.92984  Biso   1.000  C
  C626     1.0000 0.90873  0.95885  0.22942  Biso   1.000  C
  C627     1.0000 0.21292  0.84148  0.03564  Biso   1.000  C
  C628     1.0000 0.49632  0.18337  0.61935  Biso   1.000  C
  C629     1.0000 0.40676  0.94028  0.32497  Biso   1.000  C
  C630     1.0000 0.73353  0.87203  0.54800  Biso   1.000  C
  C631     1.0000 0.51144  0.67538  0.93429  Biso   1.000  C
  C632     1.0000 0.60723  0.44423  0.24434  Biso   1.000  C
  C633     1.0000 0.31247  0.34785  0.02614  Biso   1.000  C
  C634     1.0000 0.04236  0.67946  0.62765  Biso   1.000  C
  C635     1.0000 0.11104  0.46138  0.31246  Biso   1.000  C
  C636     1.0000 0.80438  0.37081  0.54453  Biso   1.000  C
  C637     1.0000 0.00171  0.75908  0.12485  Biso   1.000  C
  C638     1.0000 0.11687  0.98070  0.82575  Biso   1.000  C
  C639     1.0000 0.81447  0.08158  0.02838  Biso   1.000  C
  C640     1.0000 0.52930  0.75641  0.43592  Biso   1.000  C
  C641     1.0000 0.62326  0.98598  0.73244  Biso   1.000  C
  C642     1.0000 0.30471  0.05345  0.53571  Biso   1.000  C
  C643     1.0000 0.51677  0.24903  0.12126  Biso   1.000  C
  C644     1.0000 0.42149  0.48063  0.81910  Biso   1.000  C
  C645     1.0000 0.71521  0.58235  0.03663  Biso   1.000  C
  C646     1.0000 0.00709  0.24905  0.43714  Biso   1.000  C
  C647     1.0000 0.92883  0.47541  0.74753  Biso   1.000  C
  C648     1.0000 0.23507  0.55934  0.51002  Biso   1.000  C
  C649     1.0000 0.02463  0.67205  0.42220  Biso   1.000  C
  C650     1.0000 0.41528  0.97149  0.74071  Biso   1.000  C
  C651     1.0000 0.73202  0.38224  0.02861  Biso   1.000  C
  C652     1.0000 0.49752  0.66482  0.13809  Biso   1.000  C
  C653     1.0000 0.91786  0.97284  0.81404  Biso   1.000  C
  C654     1.0000 0.22415  0.35720  0.52716  Biso   1.000  C
  C655     1.0000 0.53554  0.16345  0.42089  Biso   1.000  C
  C656     1.0000 0.13222  0.48844  0.73127  Biso   1.000  C
  C657     1.0000 0.79323  0.88108  0.02491  Biso   1.000  C
  C658     1.0000 0.02823  0.17586  0.13130  Biso   1.000  C
  C659     1.0000 0.62680  0.48059  0.82763  Biso   1.000  C
  C660     1.0000 0.31029  0.85008  0.54101  Biso   1.000  C
  C661     1.0000 0.02177  0.26406  0.63975  Biso   1.000  C
  C662     1.0000 0.61248  0.96287  0.31392  Biso   1.000  C
  C663     1.0000 0.29707  0.54731  0.02123  Biso   1.000  C
  C664     1.0000 0.52685  0.26304  0.92098  Biso   1.000  C
  C665     1.0000 0.11139  0.94929  0.23354  Biso   1.000  C
  C666     1.0000 0.81239  0.57293  0.56101  Biso   1.000  C
  C667     1.0000 0.51138  0.76941  0.63740  Biso   1.000  C
  C668     1.0000 0.90481  0.45285  0.33276  Biso   1.000  C
  C669     1.0000 0.22760  0.04645  0.01185  Biso   1.000  C
  C670     1.0000 0.98355  0.76793  0.92056  Biso   1.000  C
  C671     1.0000 0.40573  0.44474  0.22996  Biso   1.000  C
  C672     1.0000 0.71720  0.07231  0.51611  Biso   1.000  C
  C673     1.0000 0.20821  0.95495  0.83307  Biso   1.000  C
  C674     1.0000 0.83042  0.17316  0.03754  Biso   1.000  C
  C675     1.0000 0.01582  0.76910  0.22086  Biso   1.000  C
  C676     1.0000 0.71696  0.99924  0.71494  Biso   1.000  C
  C677     1.0000 0.31605  0.14882  0.52536  Biso   1.000  C
  C678     1.0000 0.52546  0.75793  0.34088  Biso   1.000  C
  C679     1.0000 0.32538  0.47865  0.82674  Biso   1.000  C
  C680     1.0000 0.69382  0.67530  0.03074  Biso   1.000  C
  C681     1.0000 0.50310  0.25679  0.21782  Biso   1.000  C
  C682     1.0000 0.83444  0.47609  0.74406  Biso   1.000  C
  C683     1.0000 0.22319  0.65109  0.51759  Biso   1.000  C
  C684     1.0000 0.00893  0.26217  0.34000  Biso   1.000  C
  C685     1.0000 0.81384  0.96849  0.21225  Biso   1.000  C
  C686     1.0000 0.18979  0.74908  0.02873  Biso   1.000  C
  C687     1.0000 0.00876  0.16647  0.83335  Biso   1.000  C
  C688     1.0000 0.31511  0.93609  0.33858  Biso   1.000  C
  C689     1.0000 0.72116  0.77786  0.56098  Biso   1.000  C
  C690     1.0000 0.50659  0.17572  0.71630  Biso   1.000  C
  C691     1.0000 0.70253  0.46260  0.24100  Biso   1.000  C
  C692     1.0000 0.33455  0.25513  0.02504  Biso   1.000  C
  C693     1.0000 0.52597  0.66858  0.84030  Biso   1.000  C
  C694     1.0000 0.20504  0.44274  0.32283  Biso   1.000  C
  C695     1.0000 0.81638  0.27738  0.54332  Biso   1.000  C
  C696     1.0000 0.02721  0.67008  0.72174  Biso   1.000  C
  C697     1.0000 0.70867  0.96149  0.32555  Biso   1.000  C
  C698     1.0000 0.29992  0.64107  0.03741  Biso   1.000  C
  C699     1.0000 0.01569  0.27949  0.73330  Biso   1.000  C
  C700     1.0000 0.20694  0.94233  0.22829  Biso   1.000  C
  C701     1.0000 0.83200  0.66834  0.56506  Biso   1.000  C
  C702     1.0000 0.52543  0.27871  0.82805  Biso   1.000  C
  C703     1.0000 0.81350  0.46868  0.35175  Biso   1.000  C
  C704     1.0000 0.22559  0.14083  0.01870  Biso   1.000  C
  C705     1.0000 0.52179  0.78382  0.73413  Biso   1.000  C
  C706     1.0000 0.31138  0.43928  0.21495  Biso   1.000  C
  C707     1.0000 0.71015  0.16477  0.53118  Biso   1.000  C
  C708     1.0000 0.00299  0.78105  0.82785  Biso   1.000  C
  C709     1.0000 0.32138  0.96517  0.72904  Biso   1.000  C
  C710     1.0000 0.72816  0.28791  0.02747  Biso   1.000  C
  C711     1.0000 0.01755  0.65571  0.32542  Biso   1.000  C
  C712     1.0000 0.82569  0.99615  0.82354  Biso   1.000  C
  C713     1.0000 0.20821  0.26191  0.52231  Biso   1.000  C
  C714     1.0000 0.51514  0.64934  0.23131  Biso   1.000  C
  C715     1.0000 0.22378  0.48257  0.71206  Biso   1.000  C
  C716     1.0000 0.80158  0.78379  0.01832  Biso   1.000  C
  C717     1.0000 0.50756  0.15090  0.33021  Biso   1.000  C
  C718     1.0000 0.72293  0.48206  0.84788  Biso   1.000  C
  C719     1.0000 0.32988  0.75816  0.52961  Biso   1.000  C
  C720     1.0000 0.01512  0.16340  0.22391  Biso   1.000  C
  C721     1.0000 0.54356  0.75821  0.31446  Biso   1.000  C
  C722     1.0000 0.32557  0.50294  0.80445  Biso   1.000  C
  C723     1.0000 0.78827  0.27765  0.55795  Biso   1.000  C
  C724     1.0000 0.99628  0.74377  0.21783  Biso   1.000  C
  C725     1.0000 0.81075  0.49783  0.73942  Biso   1.000  C
  C726     1.0000 0.30997  0.25484  0.00582  Biso   1.000  C
  C727     1.0000 0.99070  0.26529  0.31482  Biso   1.000  C
  C728     1.0000 0.23761  0.96325  0.83901  Biso   1.000  C
  C729     1.0000 0.74719  0.78398  0.57819  Biso   1.000  C
  C730     1.0000 0.48330  0.25863  0.24287  Biso   1.000  C
  C731     1.0000 0.74448  0.98579  0.70887  Biso   1.000  C
  C732     1.0000 0.21942  0.75129  0.01727  Biso   1.000  C
  C733     1.0000 0.49071  0.17151  0.74399  Biso   1.000  C
  C734     1.0000 0.70176  0.44200  0.26554  Biso   1.000  C
  C735     1.0000 0.22008  0.67514  0.53851  Biso   1.000  C
  C736     1.0000 0.98943  0.19013  0.83861  Biso   1.000  C
  C737     1.0000 0.22926  0.42381  0.32810  Biso   1.000  C
  C738     1.0000 0.68831  0.70392  0.04357  Biso   1.000  C
  C739     1.0000 0.03888  0.66851  0.75027  Biso   1.000  C
  C740     1.0000 0.78558  0.95578  0.20839  Biso   1.000  C
  C741     1.0000 0.28748  0.14546  0.51312  Biso   1.000  C
  C742     1.0000 0.54562  0.66849  0.81498  Biso   1.000  C
  C743     1.0000 0.28845  0.91958  0.34269  Biso   1.000  C
  C744     1.0000 0.83387  0.19872  0.05364  Biso   1.000  C
  C745     1.0000 0.03838  0.67941  0.32804  Biso   1.000  C
  C746     1.0000 0.29190  0.97631  0.72512  Biso   1.000  C
  C747     1.0000 0.75603  0.29241  0.04283  Biso   1.000  C
  C748     1.0000 0.52757  0.67891  0.22568  Biso   1.000  C
  C749     1.0000 0.82850  0.97751  0.79906  Biso   1.000  C
  C750     1.0000 0.23314  0.26268  0.54199  Biso   1.000  C
  C751     1.0000 0.51979  0.14488  0.30254  Biso   1.000  C
  C752     1.0000 0.21672  0.46798  0.73948  Biso   1.000  C
  C753     1.0000 0.77254  0.78877  0.00786  Biso   1.000  C
  C754     1.0000 0.02763  0.15636  0.25373  Biso   1.000  C
  C755     1.0000 0.72154  0.49961  0.82236  Biso   1.000  C
  C756     1.0000 0.30290  0.76372  0.51459  Biso   1.000  C
  C757     1.0000 0.99637  0.25493  0.72769  Biso   1.000  C
  C758     1.0000 0.70691  0.94208  0.29958  Biso   1.000  C
  C759     1.0000 0.27019  0.63505  0.05153  Biso   1.000  C
  C760     1.0000 0.53857  0.24996  0.82982  Biso   1.000  C
  C761     1.0000 0.23297  0.92316  0.22405  Biso   1.000  C
  C762     1.0000 0.83435  0.69624  0.54840  Biso   1.000  C
  C763     1.0000 0.51336  0.78911  0.76452  Biso   1.000  C
  C764     1.0000 0.78536  0.45605  0.35803  Biso   1.000  C
  C765     1.0000 0.25514  0.13504  0.02889  Biso   1.000  C
  C766     1.0000 0.99536  0.78601  0.79618  Biso   1.000  C
  C767     1.0000 0.31477  0.45342  0.24261  Biso   1.000  C
  C768     1.0000 0.70561  0.19285  0.51628  Biso   1.000  C
  C769     1.0000 0.50682  0.69402  0.84295  Biso   1.000  C
  C770     1.0000 0.83691  0.46126  0.77188  Biso   1.000  C
  C771     1.0000 0.72143  0.74813  0.54877  Biso   1.000  C
  C772     1.0000 0.00896  0.69557  0.71465  Biso   1.000  C
  C773     1.0000 0.30133  0.45886  0.82594  Biso   1.000  C
  C774     1.0000 0.18255  0.72310  0.04476  Biso   1.000  C
  C775     1.0000 0.02388  0.16557  0.80566  Biso   1.000  C
  C776     1.0000 0.71505  0.01793  0.73967  Biso   1.000  C
  C777     1.0000 0.82393  0.25073  0.52598  Biso   1.000  C
  C778     1.0000 0.52286  0.20400  0.71447  Biso   1.000  C
  C779     1.0000 0.20207  0.94561  0.80358  Biso   1.000  C
  C780     1.0000 0.33845  0.22690  0.04058  Biso   1.000  C
  C781     1.0000 0.52168  0.23152  0.21582  Biso   1.000  C
  C782     1.0000 0.20288  0.45666  0.29403  Biso   1.000  C
  C783     1.0000 0.32281  0.17863  0.53503  Biso   1.000  C
  C784     1.0000 0.02860  0.23678  0.34157  Biso   1.000  C
  C785     1.0000 0.72485  0.48516  0.24254  Biso   1.000  C
  C786     1.0000 0.80251  0.17163  0.02159  Biso   1.000  C
  C787     1.0000 0.03460  0.77089  0.24644  Biso   1.000  C
  C788     1.0000 0.31725  0.95071  0.31019  Biso   1.000  C
  C789     1.0000 0.24955  0.64824  0.50183  Biso   1.000  C
  C790     1.0000 0.50677  0.73300  0.34642  Biso   1.000  C
  C791     1.0000 0.81908  0.98363  0.23939  Biso   1.000  C
  C792     1.0000 0.71977  0.67158  0.01301  Biso   1.000  C
  C793     1.0000 0.49882  0.18172  0.33563  Biso   1.000  C
  C794     1.0000 0.28469  0.42131  0.20993  Biso   1.000  C
  C795     1.0000 0.20508  0.23677  0.50341  Biso   1.000  C
  C796     1.0000 0.00390  0.19209  0.22009  Biso   1.000  C
  C797     1.0000 0.81496  0.48167  0.32157  Biso   1.000  C
  C798     1.0000 0.72729  0.26238  0.00966  Biso   1.000  C
  C799     1.0000 0.99900  0.65262  0.30008  Biso   1.000  C
  C800     1.0000 0.20353  0.95563  0.25733  Biso   1.000  C
  C801     1.0000 0.33515  0.73003  0.54246  Biso   1.000  C
  C802     1.0000 0.50189  0.64318  0.26069  Biso   1.000  C
  C803     1.0000 0.73326  0.98077  0.32757  Biso   1.000  C
  C804     1.0000 0.80584  0.75779  0.03651  Biso   1.000  C
  C805     1.0000 0.53801  0.75584  0.72929  Biso   1.000  C
  C806     1.0000 0.74925  0.46531  0.85166  Biso   1.000  C
  C807     1.0000 0.80654  0.66582  0.58384  Biso   1.000  C
  C808     1.0000 0.01249  0.75175  0.83350  Biso   1.000  C
  C809     1.0000 0.25362  0.49529  0.70999  Biso   1.000  C
  C810     1.0000 0.30361  0.66953  0.02495  Biso   1.000  C
  C811     1.0000 0.03077  0.27922  0.76023  Biso   1.000  C
  C812     1.0000 0.80162  0.01835  0.82406  Biso   1.000  C
  C813     1.0000 0.73829  0.15940  0.54625  Biso   1.000  C
  C814     1.0000 0.50636  0.28501  0.80250  Biso   1.000  C
  C815     1.0000 0.32494  0.94867  0.75619  Biso   1.000  C
  C816     1.0000 0.22111  0.16963  0.00731  Biso   1.000  C
  C817     1.0000 0.98895  0.21346  0.82108  Biso   1.000  C
  C818     1.0000 0.76483  0.95677  0.22993  Biso   1.000  C
  C819     1.0000 0.23872  0.72722  0.01997  Biso   1.000  C
  C820     1.0000 0.49417  0.19075  0.76650  Biso   1.000  C
  C821     1.0000 0.26744  0.91668  0.32129  Biso   1.000  C
  C822     1.0000 0.77056  0.76410  0.57789  Biso   1.000  C
  C823     1.0000 0.54699  0.69209  0.79675  Biso   1.000  C
  C824     1.0000 0.71940  0.44473  0.28893  Biso   1.000  C
  C825     1.0000 0.28997  0.23142  0.00580  Biso   1.000  C
  C826     1.0000 0.03324  0.69110  0.76966  Biso   1.000  C
  C827     1.0000 0.25084  0.42152  0.30684  Biso   1.000  C
  C828     1.0000 0.76735  0.25579  0.55458  Biso   1.000  C
  C829     1.0000 0.99489  0.72303  0.24017  Biso   1.000  C
  C830     1.0000 0.25945  0.96442  0.81804  Biso   1.000  C
  C831     1.0000 0.81535  0.22248  0.05280  Biso   1.000  C
  C832     1.0000 0.54138  0.73739  0.29414  Biso   1.000  C
  C833     1.0000 0.76768  0.98820  0.72885  Biso   1.000  C
  C834     1.0000 0.26560  0.16670  0.51358  Biso   1.000  C
  C835     1.0000 0.48705  0.23906  0.26555  Biso   1.000  C
  C836     1.0000 0.30432  0.50342  0.78426  Biso   1.000  C
  C837     1.0000 0.70895  0.72510  0.04034  Biso   1.000  C
  C838     1.0000 0.99170  0.24549  0.29230  Biso   1.000  C
  C839     1.0000 0.79098  0.49970  0.76100  Biso   1.000  C
  C840     1.0000 0.24243  0.69583  0.54138  Biso   1.000  C
  C841     1.0000 0.22419  0.94448  0.78397  Biso   1.000  C
  C842     1.0000 0.78435  0.19459  0.02044  Biso   1.000  C
  C843     1.0000 0.03543  0.74765  0.26519  Biso   1.000  C
  C844     1.0000 0.73950  0.02061  0.75713  Biso   1.000  C
  C845     1.0000 0.30035  0.19973  0.53382  Biso   1.000  C
  C846     1.0000 0.50217  0.71340  0.32441  Biso   1.000  C
  C847     1.0000 0.28051  0.46174  0.80509  Biso   1.000  C
  C848     1.0000 0.74131  0.69270  0.01168  Biso   1.000  C
  C849     1.0000 0.52314  0.21141  0.23683  Biso   1.000  C
  C850     1.0000 0.81622  0.46621  0.79177  Biso   1.000  C
  C851     1.0000 0.27125  0.66815  0.50456  Biso   1.000  C
  C852     1.0000 0.02860  0.21790  0.31830  Biso   1.000  C
  C853     1.0000 0.79866  0.98265  0.26044  Biso   1.000  C
  C854     1.0000 0.20429  0.70222  0.04894  Biso   1.000  C
  C855     1.0000 0.01849  0.18706  0.78605  Biso   1.000  C
  C856     1.0000 0.29578  0.94632  0.29006  Biso   1.000  C
  C857     1.0000 0.74312  0.72861  0.55350  Biso   1.000  C
  C858     1.0000 0.52510  0.22308  0.73817  Biso   1.000  C
  C859     1.0000 0.74400  0.48457  0.26414  Biso   1.000  C
  C860     1.0000 0.32067  0.20383  0.03586  Biso   1.000  C
  C861     1.0000 0.51108  0.71783  0.82359  Biso   1.000  C
  C862     1.0000 0.22354  0.45222  0.27261  Biso   1.000  C
  C863     1.0000 0.80278  0.22895  0.52335  Biso   1.000  C
  C864     1.0000 0.00184  0.71500  0.73465  Biso   1.000  C
  C865     1.0000 0.74393  0.50215  0.80333  Biso   1.000  C
  C866     1.0000 0.81393  0.71721  0.55049  Biso   1.000  C
  C867     1.0000 0.51813  0.76749  0.78541  Biso   1.000  C
  C868     1.0000 0.23369  0.47051  0.76295  Biso   1.000  C
  C869     1.0000 0.24971  0.65554  0.05316  Biso   1.000  C
  C870     1.0000 0.99602  0.76246  0.77627  Biso   1.000  C
  C871     1.0000 0.81044  0.98230  0.77453  Biso   1.000  C
  C872     1.0000 0.72763  0.21497  0.51825  Biso   1.000  C
  C873     1.0000 0.98962  0.23484  0.74847  Biso   1.000  C
  C874     1.0000 0.26910  0.97273  0.74406  Biso   1.000  C
  C875     1.0000 0.27690  0.15533  0.03035  Biso   1.000  C
  C876     1.0000 0.53153  0.22894  0.80878  Biso   1.000  C
  C877     1.0000 0.29498  0.44939  0.26530  Biso   1.000  C
  C878     1.0000 0.25514  0.24088  0.54195  Biso   1.000  C
  C879     1.0000 0.51977  0.16624  0.28160  Biso   1.000  C
  C880     1.0000 0.76383  0.45394  0.33739  Biso   1.000  C
  C881     1.0000 0.77656  0.27104  0.04523  Biso   1.000  C
  C882     1.0000 0.02368  0.17577  0.27591  Biso   1.000  C
  C883     1.0000 0.25316  0.91858  0.24579  Biso   1.000  C
  C884     1.0000 0.28187  0.74123  0.51237  Biso   1.000  C
  C885     1.0000 0.03714  0.70186  0.30767  Biso   1.000  C
  C886     1.0000 0.72785  0.94437  0.27900  Biso   1.000  C
  C887     1.0000 0.75164  0.76821  0.01071  Biso   1.000  C
  C888     1.0000 0.52558  0.69868  0.24798  Biso   1.000  C
  C889     1.0000 0.75325  0.98087  0.30574  Biso   1.000  C
  C890     1.0000 0.28110  0.68905  0.02684  Biso   1.000  C
  C891     1.0000 0.02573  0.25699  0.78058  Biso   1.000  C
  C892     1.0000 0.22577  0.94938  0.27845  Biso   1.000  C
  C893     1.0000 0.78751  0.68838  0.58546  Biso   1.000  C
  C894     1.0000 0.50099  0.26377  0.78251  Biso   1.000  C
  C895     1.0000 0.79211  0.48062  0.30103  Biso   1.000  C
  C896     1.0000 0.24485  0.18829  0.00681  Biso   1.000  C
  C897     1.0000 0.54356  0.73703  0.75171  Biso   1.000  C
  C898     1.0000 0.26393  0.42090  0.23159  Biso   1.000  C
  C899     1.0000 0.75897  0.18240  0.54543  Biso   1.000  C
  C900     1.0000 0.01406  0.72914  0.81356  Biso   1.000  C
  C901     1.0000 0.30079  0.94540  0.77478  Biso   1.000  C
  C902     1.0000 0.74976  0.24254  0.01221  Biso   1.000  C
  C903     1.0000 0.99980  0.67501  0.28055  Biso   1.000  C
  C904     1.0000 0.78408  0.02154  0.80049  Biso   1.000  C
  C905     1.0000 0.22759  0.21632  0.50517  Biso   1.000  C
  C906     1.0000 0.50337  0.66540  0.28191  Biso   1.000  C
  C907     1.0000 0.27111  0.49473  0.73375  Biso   1.000  C
  C908     1.0000 0.78381  0.73757  0.03863  Biso   1.000  C
  C909     1.0000 0.49994  0.20212  0.31283  Biso   1.000  C
  C910     1.0000 0.77179  0.46729  0.83145  Biso   1.000  C
  C911     1.0000 0.31454  0.70854  0.54096  Biso   1.000  C
  C912     1.0000 0.00473  0.21202  0.24205  Biso   1.000  C
  C913     1.0000 0.79253  0.48295  0.78604  Biso   1.000  C
  C914     1.0000 0.76749  0.73618  0.56885  Biso   1.000  C
  C915     1.0000 0.53155  0.71828  0.80115  Biso   1.000  C
  C916     1.0000 0.28214  0.48344  0.78395  Biso   1.000  C
  C917     1.0000 0.23194  0.70506  0.03893  Biso   1.000  C
  C918     1.0000 0.01440  0.71384  0.76219  Biso   1.000  C
  C919     1.0000 0.76498  0.00342  0.75433  Biso   1.000  C
  C920     1.0000 0.77458  0.23317  0.53649  Biso   1.000  C
  C921     1.0000 0.00377  0.21120  0.79436  Biso   1.000  C
  C922     1.0000 0.25213  0.95480  0.79138  Biso   1.000  C
  C923     1.0000 0.29526  0.20563  0.01983  Biso   1.000  C
  C924     1.0000 0.50978  0.21605  0.76259  Biso   1.000  C
  C925     1.0000 0.24662  0.43310  0.27859  Biso   1.000  C
  C926     1.0000 0.27253  0.19398  0.52438  Biso   1.000  C
  C927     1.0000 0.50780  0.21585  0.26224  Biso   1.000  C
  C928     1.0000 0.74266  0.46435  0.28743  Biso   1.000  C
  C929     1.0000 0.79163  0.21922  0.03483  Biso   1.000  C
  C930     1.0000 0.01090  0.22260  0.29531  Biso   1.000  C
  C931     1.0000 0.27142  0.92970  0.29538  Biso   1.000  C
  C932     1.0000 0.26726  0.69200  0.52416  Biso   1.000  C
  C933     1.0000 0.01405  0.72575  0.26429  Biso   1.000  C
  C934     1.0000 0.77071  0.96789  0.25632  Biso   1.000  C
  C935     1.0000 0.73562  0.71928  0.02500  Biso   1.000  C
  C936     1.0000 0.51953  0.71502  0.29923  Biso   1.000  C
  C937     1.0000 0.77173  0.24415  0.03147  Biso   1.000  C
  C938     1.0000 0.01814  0.70038  0.28410  Biso   1.000  C
  C939     1.0000 0.27297  0.95428  0.76849  Biso   1.000  C
  C940     1.0000 0.25141  0.21720  0.52382  Biso   1.000  C
  C941     1.0000 0.51548  0.69251  0.27610  Biso   1.000  C
  C942     1.0000 0.78830  0.00324  0.77655  Biso   1.000  C
  C943     1.0000 0.75795  0.74333  0.02598  Biso   1.000  C
  C944     1.0000 0.50837  0.19394  0.28527  Biso   1.000  C
  C945     1.0000 0.26206  0.48224  0.75929  Biso   1.000  C
  C946     1.0000 0.28857  0.71528  0.52619  Biso   1.000  C
  C947     1.0000 0.01385  0.20408  0.27013  Biso   1.000  C
  C948     1.0000 0.76901  0.48336  0.80694  Biso   1.000  C
  C949     1.0000 0.25434  0.68196  0.03933  Biso   1.000  C
  C950     1.0000 0.00408  0.23608  0.77472  Biso   1.000  C
  C951     1.0000 0.75068  0.96465  0.28073  Biso   1.000  C
  C952     1.0000 0.79031  0.71434  0.56934  Biso   1.000  C
  C953     1.0000 0.51315  0.23734  0.78647  Biso   1.000  C
  C954     1.0000 0.24929  0.93110  0.27304  Biso   1.000  C
  C955     1.0000 0.27216  0.18341  0.01912  Biso   1.000  C
  C956     1.0000 0.53076  0.74060  0.77837  Biso   1.000  C
  C957     1.0000 0.76641  0.46652  0.30958  Biso   1.000  C
  C958     1.0000 0.75415  0.20885  0.53148  Biso   1.000  C
  C959     1.0000 0.00752  0.73571  0.78446  Biso   1.000  C
  C960     1.0000 0.27043  0.43326  0.25856  Biso   1.000  C
  Cu1      1.0000 0.02593  0.47155  0.68439  Biso   1.000  Cu
  Cu2      1.0000 0.66692  0.97042  0.52319  Biso   1.000  Cu
  Cu3      1.0000 0.49848  0.61185  0.03657  Biso   1.000  Cu
  Cu4      1.0000 0.52276  0.47490  0.87468  Biso   1.000  Cu
  Cu5      1.0000 0.16879  0.94836  0.02864  Biso   1.000  Cu
  Cu6      1.0000 0.02547  0.61894  0.52557  Biso   1.000  Cu
  Cu7      1.0000 0.51773  0.97527  0.68163  Biso   1.000  Cu
  Cu8      1.0000 0.86104  0.47026  0.54489  Biso   1.000  Cu
  Cu9      1.0000 0.02423  0.12086  0.02923  Biso   1.000  Cu
  Cu10     1.0000 0.01516  0.97238  0.87554  Biso   1.000  Cu
  Cu11     1.0000 0.36091  0.45347  0.01946  Biso   1.000  Cu
  Cu12     1.0000 0.51269  0.11928  0.52405  Biso   1.000  Cu
  Cu13     1.0000 0.01139  0.45841  0.37348  Biso   1.000  Cu
  Cu14     1.0000 0.36119  0.95088  0.53414  Biso   1.000  Cu
  Cu15     1.0000 0.52682  0.31389  0.02326  Biso   1.000  Cu
  Cu16     1.0000 0.50913  0.45387  0.18280  Biso   1.000  Cu
  Cu17     1.0000 0.85902  0.97666  0.02046  Biso   1.000  Cu
  Cu18     1.0000 0.01377  0.31254  0.53379  Biso   1.000  Cu
  Cu19     1.0000 0.51185  0.95635  0.37146  Biso   1.000  Cu
  Cu20     1.0000 0.17358  0.45767  0.51878  Biso   1.000  Cu
  Cu21     1.0000 0.99953  0.81526  0.02399  Biso   1.000  Cu
  Cu22     1.0000 0.01352  0.96550  0.17772  Biso   1.000  Cu
  Cu23     1.0000 0.66846  0.47500  0.04180  Biso   1.000  Cu
  Cu24     1.0000 0.52204  0.81777  0.53527  Biso   1.000  Cu
  Cu25     1.0000 0.22293  0.94723  0.02976  Biso   1.000  Cu
  Cu26     1.0000 0.03111  0.17365  0.02850  Biso   1.000  Cu
  Cu27     1.0000 0.01140  0.96417  0.23143  Biso   1.000  Cu
  Cu28     1.0000 0.72133  0.97379  0.52256  Biso   1.000  Cu
  Cu29     1.0000 0.50952  0.17298  0.51705  Biso   1.000  Cu
  Cu30     1.0000 0.50835  0.95429  0.31867  Biso   1.000  Cu
  Cu31     1.0000 0.30657  0.44969  0.01701  Biso   1.000  Cu
  Cu32     1.0000 0.49358  0.66732  0.03550  Biso   1.000  Cu
  Cu33     1.0000 0.50459  0.45346  0.23537  Biso   1.000  Cu
  Cu34     1.0000 0.80792  0.47380  0.54648  Biso   1.000  Cu
  Cu35     1.0000 0.02858  0.67385  0.52582  Biso   1.000  Cu
  Cu36     1.0000 0.00767  0.45658  0.32046  Biso   1.000  Cu
  Cu37     1.0000 0.80603  0.98104  0.02138  Biso   1.000  Cu
  Cu38     1.0000 0.99463  0.76078  0.02202  Biso   1.000  Cu
  Cu39     1.0000 0.01932  0.97170  0.82215  Biso   1.000  Cu
  Cu40     1.0000 0.30736  0.95165  0.53341  Biso   1.000  Cu
  Cu41     1.0000 0.52582  0.76355  0.53594  Biso   1.000  Cu
  Cu42     1.0000 0.51851  0.97853  0.73506  Biso   1.000  Cu
  Cu43     1.0000 0.72408  0.48005  0.04328  Biso   1.000  Cu
  Cu44     1.0000 0.53037  0.26086  0.02370  Biso   1.000  Cu
  Cu45     1.0000 0.52560  0.47397  0.82029  Biso   1.000  Cu
  Cu46     1.0000 0.22743  0.45586  0.51646  Biso   1.000  Cu
  Cu47     1.0000 0.01379  0.25947  0.53992  Biso   1.000  Cu
  Cu48     1.0000 0.03064  0.47483  0.74014  Biso   1.000  Cu
  H1       1.0000 0.26012  0.74527  0.50273  Biso   1.000  H
  H2       1.0000 0.53903  0.20770  0.80933  Biso   1.000  H
  H3       1.0000 0.74440  0.44083  0.34482  Biso   1.000  H
  H4       1.0000 0.73060  0.77272  0.00463  Biso   1.000  H
  H5       1.0000 0.97444  0.21806  0.74362  Biso   1.000  H
  H6       1.0000 0.29883  0.45586  0.28658  Biso   1.000  H
  H7       1.0000 0.27314  0.24226  0.55656  Biso   1.000  H
  H8       1.0000 0.98726  0.76417  0.75529  Biso   1.000  H
  H9       1.0000 0.72844  0.92826  0.26239  Biso   1.000  H
  H10      1.0000 0.79538  0.27514  0.05863  Biso   1.000  H
  H11      1.0000 0.51175  0.77541  0.80724  Biso   1.000  H
  H12      1.0000 0.27283  0.90573  0.24078  Biso   1.000  H
  H13      1.0000 0.72291  0.23507  0.50977  Biso   1.000  H
  H14      1.0000 0.53252  0.71987  0.24313  Biso   1.000  H
  H15      1.0000 0.22466  0.46175  0.78375  Biso   1.000  H
  H16      1.0000 0.29657  0.14740  0.04194  Biso   1.000  H
  H17      1.0000 0.05338  0.71825  0.30824  Biso   1.000  H
  H18      1.0000 0.73919  0.51594  0.78421  Biso   1.000  H
  H19      1.0000 0.81702  0.73588  0.53644  Biso   1.000  H
  H20      1.0000 0.02983  0.16914  0.29700  Biso   1.000  H
  H21      1.0000 0.25045  0.98584  0.74108  Biso   1.000  H
  H22      1.0000 0.23090  0.65229  0.06613  Biso   1.000  H
  H23      1.0000 0.52893  0.15939  0.25954  Biso   1.000  H
  H24      1.0000 0.81409  0.96891  0.75581  Biso   1.000  H
  H25      1.0000 0.27961  0.97277  0.82312  Biso   1.000  H
  H26      1.0000 0.82297  0.24216  0.06583  Biso   1.000  H
  H27      1.0000 0.97860  0.70532  0.23794  Biso   1.000  H
  H28      1.0000 0.78823  0.98020  0.72256  Biso   1.000  H
  H29      1.0000 0.24434  0.16023  0.50472  Biso   1.000  H
  H30      1.0000 0.55682  0.74002  0.27462  Biso   1.000  H
  H31      1.0000 0.30892  0.51994  0.76792  Biso   1.000  H
  H32      1.0000 0.70475  0.74515  0.05080  Biso   1.000  H
  H33      1.0000 0.47453  0.24420  0.28491  Biso   1.000  H
  H34      1.0000 0.77492  0.51772  0.76055  Biso   1.000  H
  H35      1.0000 0.23971  0.71304  0.55716  Biso   1.000  H
  H36      1.0000 0.97774  0.24856  0.27263  Biso   1.000  H
  H37      1.0000 0.74332  0.94879  0.22658  Biso   1.000  H
  H38      1.0000 0.25910  0.73262  0.00985  Biso   1.000  H
  H39      1.0000 0.97926  0.23322  0.82623  Biso   1.000  H
  H40      1.0000 0.24811  0.90355  0.32446  Biso   1.000  H
  H41      1.0000 0.78854  0.76943  0.59219  Biso   1.000  H
  H42      1.0000 0.48155  0.18785  0.78558  Biso   1.000  H
  H43      1.0000 0.71705  0.43202  0.30879  Biso   1.000  H
  H44      1.0000 0.26892  0.23373  0.99469  Biso   1.000  H
  H45      1.0000 0.56300  0.68917  0.78087  Biso   1.000  H
  H46      1.0000 0.26936  0.40851  0.31306  Biso   1.000  H
  H47      1.0000 0.74672  0.25759  0.56486  Biso   1.000  H
  H48      1.0000 0.04412  0.68817  0.79063  Biso   1.000  H
  H49      1.0000 0.21994  0.46356  0.25284  Biso   1.000  H
  H50      1.0000 0.30829  0.22102  0.53908  Biso   1.000  H
  H51      1.0000 0.53822  0.19312  0.23433  Biso   1.000  H
  H52      1.0000 0.75922  0.50385  0.26621  Biso   1.000  H
  H53      1.0000 0.76348  0.19284  0.00962  Biso   1.000  H
  H54      1.0000 0.04584  0.20291  0.31626  Biso   1.000  H
  H55      1.0000 0.29634  0.95715  0.26995  Biso   1.000  H
  H56      1.0000 0.29267  0.66467  0.49267  Biso   1.000  H
  H57      1.0000 0.04931  0.75049  0.28295  Biso   1.000  H
  H58      1.0000 0.80318  0.99453  0.28015  Biso   1.000  H
  H59      1.0000 0.76094  0.69105  0.99912  Biso   1.000  H
  H60      1.0000 0.48504  0.69674  0.32754  Biso   1.000  H
  H61      1.0000 0.81707  0.45175  0.81080  Biso   1.000  H
  H62      1.0000 0.73765  0.70680  0.54505  Biso   1.000  H
  H63      1.0000 0.49947  0.73752  0.82413  Biso   1.000  H
  H64      1.0000 0.26419  0.44414  0.80520  Biso   1.000  H
  H65      1.0000 0.19761  0.68417  0.06370  Biso   1.000  H
  H66      1.0000 0.98542  0.73190  0.73047  Biso   1.000  H
  H67      1.0000 0.73665  0.03636  0.77658  Biso   1.000  H
  H68      1.0000 0.80837  0.20998  0.51213  Biso   1.000  H
  H69      1.0000 0.03100  0.18663  0.76601  Biso   1.000  H
  H70      1.0000 0.22111  0.93313  0.76337  Biso   1.000  H
  H71      1.0000 0.32777  0.18363  0.04501  Biso   1.000  H
  H72      1.0000 0.53522  0.24584  0.73540  Biso   1.000  H
  H73      1.0000 0.79139  0.45708  0.83794  Biso   1.000  H
  H74      1.0000 0.76859  0.68571  0.60109  Biso   1.000  H
  H75      1.0000 0.55841  0.71864  0.74689  Biso   1.000  H
  H76      1.0000 0.29189  0.50387  0.73302  Biso   1.000  H
  H77      1.0000 0.28645  0.71067  0.01798  Biso   1.000  H
  H78      1.0000 0.02429  0.70885  0.82128  Biso   1.000  H
  H79      1.0000 0.76633  0.03642  0.80304  Biso   1.000  H
  H80      1.0000 0.78164  0.17862  0.55190  Biso   1.000  H
  H81      1.0000 0.03726  0.25361  0.80156  Biso   1.000  H
  H82      1.0000 0.30309  0.93155  0.79279  Biso   1.000  H
  H83      1.0000 0.24241  0.20771  0.99337  Biso   1.000  H
  H84      1.0000 0.49023  0.26955  0.76191  Biso   1.000  H
  H85      1.0000 0.24372  0.40860  0.22961  Biso   1.000  H
  H86      1.0000 0.22554  0.19833  0.49035  Biso   1.000  H
  H87      1.0000 0.49490  0.22494  0.31604  Biso   1.000  H
  H88      1.0000 0.79806  0.48782  0.27885  Biso   1.000  H
  H89      1.0000 0.74794  0.22661  0.99510  Biso   1.000  H
  H90      1.0000 0.99381  0.23309  0.23678  Biso   1.000  H
  H91      1.0000 0.22632  0.95981  0.29990  Biso   1.000  H
  H92      1.0000 0.31739  0.68772  0.55012  Biso   1.000  H
  H93      1.0000 0.98849  0.67229  0.26014  Biso   1.000  H
  H94      1.0000 0.76863  0.99831  0.30453  Biso   1.000  H
  H95      1.0000 0.78579  0.71765  0.04958  Biso   1.000  H
  H96      1.0000 0.49447  0.66335  0.30406  Biso   1.000  H
  H97      1.0000 0.87952  0.97578  0.93118  Biso   1.000  H
  H98      1.0000 0.90954  0.84537  0.02013  Biso   1.000  H
  H99      1.0000 0.01688  0.88148  0.89583  Biso   1.000  H
  H100     1.0000 0.38249  0.96511  0.62177  Biso   1.000  H
  H101     1.0000 0.42677  0.82830  0.53519  Biso   1.000  H
  H102     1.0000 0.51929  0.88482  0.66628  Biso   1.000  H
  H103     1.0000 0.65343  0.47752  0.95114  Biso   1.000  H
  H104     1.0000 0.61437  0.34121  0.03284  Biso   1.000  H
  H105     1.0000 0.53128  0.38103  0.89302  Biso   1.000  H
  H106     1.0000 0.15735  0.47127  0.60825  Biso   1.000  H
  H107     1.0000 0.10714  0.32866  0.52502  Biso   1.000  H
  H108     1.0000 0.04178  0.37877  0.66620  Biso   1.000  H
  H109     1.0000 0.14898  0.95591  0.12292  Biso   1.000  H
  H110     1.0000 0.11774  0.08363  0.02384  Biso   1.000  H
  H111     1.0000 0.01559  0.06233  0.15794  Biso   1.000  H
  H112     1.0000 0.64597  0.96244  0.42917  Biso   1.000  H
  H113     1.0000 0.60487  0.10026  0.53224  Biso   1.000  H
  H114     1.0000 0.51362  0.04701  0.39050  Biso   1.000  H
  H115     1.0000 0.37663  0.45760  0.10887  Biso   1.000  H
  H116     1.0000 0.40788  0.58800  0.02856  Biso   1.000  H
  H117     1.0000 0.50742  0.54916  0.16361  Biso   1.000  H
  H118     1.0000 0.88150  0.47648  0.45120  Biso   1.000  H
  H119     1.0000 0.93219  0.60076  0.53945  Biso   1.000  H
  H120     1.0000 0.01049  0.55391  0.39421  Biso   1.000  H
  H121     1.0000 0.10646  0.96947  0.90268  Biso   1.000  H
  H122     1.0000 0.88859  0.06816  0.02546  Biso   1.000  H
  H123     1.0000 0.00544  0.83454  0.11649  Biso   1.000  H
  H124     1.0000 0.60986  0.98567  0.65685  Biso   1.000  H
  H125     1.0000 0.37917  0.04339  0.51651  Biso   1.000  H
  H126     1.0000 0.52613  0.83172  0.43805  Biso   1.000  H
  H127     1.0000 0.42957  0.45348  0.88788  Biso   1.000  H
  H128     1.0000 0.64219  0.56437  0.03609  Biso   1.000  H
  H129     1.0000 0.50912  0.32328  0.11262  Biso   1.000  H
  H130     1.0000 0.93265  0.47328  0.67179  Biso   1.000  H
  H131     1.0000 0.15976  0.54568  0.50409  Biso   1.000  H
  H132     1.0000 0.00993  0.32445  0.44577  Biso   1.000  H
  H133     1.0000 0.92647  0.96574  0.15472  Biso   1.000  H
  H134     1.0000 0.13859  0.85976  0.02853  Biso   1.000  H
  H135     1.0000 0.02438  0.09892  0.93290  Biso   1.000  H
  H136     1.0000 0.41981  0.95297  0.39792  Biso   1.000  H
  H137     1.0000 0.65707  0.87672  0.54459  Biso   1.000  H
  H138     1.0000 0.49866  0.10608  0.61803  Biso   1.000  H
  H139     1.0000 0.60392  0.46149  0.17053  Biso   1.000  H
  H140     1.0000 0.38626  0.36694  0.02216  Biso   1.000  H
  H141     1.0000 0.50623  0.59694  0.93807  Biso   1.000  H
  H142     1.0000 0.10422  0.46406  0.38632  Biso   1.000  H
  H143     1.0000 0.88024  0.37940  0.54670  Biso   1.000  H
  H144     1.0000 0.03569  0.60367  0.61796  Biso   1.000  H
  H145     1.0000 0.61233  0.47828  0.90258  Biso   1.000  H
  H146     1.0000 0.88658  0.56179  0.54386  Biso   1.000  H
  H147     1.0000 0.52166  0.84353  0.62719  Biso   1.000  H
  H148     1.0000 0.11308  0.47829  0.65924  Biso   1.000  H
  H149     1.0000 0.37494  0.54426  0.02609  Biso   1.000  H
  H150     1.0000 0.00428  0.84022  0.93188  Biso   1.000  H
  H151     1.0000 0.92637  0.97135  0.88831  Biso   1.000  H
  H152     1.0000 0.64222  0.06139  0.52907  Biso   1.000  H
  H153     1.0000 0.03370  0.33958  0.62682  Biso   1.000  H
  H154     1.0000 0.42586  0.96873  0.66453  Biso   1.000  H
  H155     1.0000 0.15580  0.03745  0.03205  Biso   1.000  H
  H156     1.0000 0.52782  0.33615  0.93507  Biso   1.000  H
  H157     1.0000 0.41724  0.46290  0.15730  Biso   1.000  H
  H158     1.0000 0.14846  0.36811  0.52567  Biso   1.000  H
  H159     1.0000 0.52729  0.08852  0.43195  Biso   1.000  H
  H160     1.0000 0.92284  0.47165  0.40303  Biso   1.000  H
  H161     1.0000 0.65613  0.39015  0.03023  Biso   1.000  H
  H162     1.0000 0.02015  0.10201  0.11727  Biso   1.000  H
  H163     1.0000 0.10801  0.95947  0.16021  Biso   1.000  H
  H164     1.0000 0.38616  0.86661  0.54433  Biso   1.000  H
  H165     1.0000 0.01023  0.59816  0.43490  Biso   1.000  H
  H166     1.0000 0.60595  0.96983  0.38941  Biso   1.000  H
  H167     1.0000 0.87054  0.88457  0.02461  Biso   1.000  H
  H168     1.0000 0.50489  0.58897  0.12620  Biso   1.000  H
  H169     1.0000 0.01537  0.05928  0.89194  Biso   1.000  H
  H170     1.0000 0.88369  0.97349  0.10993  Biso   1.000  H
  H171     1.0000 0.09432  0.82669  0.02566  Biso   1.000  H
  H172     1.0000 0.50326  0.06961  0.65911  Biso   1.000  H
  H173     1.0000 0.37999  0.95439  0.44036  Biso   1.000  H
  H174     1.0000 0.62006  0.83845  0.54196  Biso   1.000  H
  H175     1.0000 0.51037  0.56364  0.89526  Biso   1.000  H
  H176     1.0000 0.64728  0.47111  0.13410  Biso   1.000  H
  H177     1.0000 0.43507  0.32745  0.02033  Biso   1.000  H
  H178     1.0000 0.03484  0.56341  0.66214  Biso   1.000  H
  H179     1.0000 0.14794  0.46012  0.42761  Biso   1.000  H
  H180     1.0000 0.92430  0.33569  0.55648  Biso   1.000  H
  H181     1.0000 0.01381  0.87591  0.15769  Biso   1.000  H
  H182     1.0000 0.14969  0.95476  0.93947  Biso   1.000  H
  H183     1.0000 0.93517  0.10830  0.02960  Biso   1.000  H
  H184     1.0000 0.52429  0.86902  0.39407  Biso   1.000  H
  H185     1.0000 0.65119  0.97827  0.61563  Biso   1.000  H
  H186     1.0000 0.42199  0.08962  0.52126  Biso   1.000  H
  H187     1.0000 0.50680  0.36515  0.15695  Biso   1.000  H
  H188     1.0000 0.38571  0.45428  0.93110  Biso   1.000  H
  H189     1.0000 0.59477  0.60312  0.03699  Biso   1.000  H
  H190     1.0000 0.01277  0.36684  0.40136  Biso   1.000  H
  H191     1.0000 0.88633  0.46802  0.63290  Biso   1.000  H
  H192     1.0000 0.11492  0.59105  0.50693  Biso   1.000  H
  H193     1.0000 0.29304  0.80446  0.54258  Biso   1.000  H
  H194     1.0000 0.52611  0.24311  0.87767  Biso   1.000  H
  H195     1.0000 0.86260  0.45512  0.31534  Biso   1.000  H
  H196     1.0000 0.76791  0.84164  0.02476  Biso   1.000  H
  H197     1.0000 0.01509  0.24313  0.67979  Biso   1.000  H
  H198     1.0000 0.36308  0.43270  0.24979  Biso   1.000  H
  H199     1.0000 0.24558  0.31541  0.52004  Biso   1.000  H
  H200     1.0000 0.97768  0.75054  0.87752  Biso   1.000  H
  H201     1.0000 0.65717  0.96242  0.29312  Biso   1.000  H
  H202     1.0000 0.75340  0.34024  0.01895  Biso   1.000  H
  H203     1.0000 0.50985  0.74711  0.67833  Biso   1.000  H
  H204     1.0000 0.15024  0.93960  0.25844  Biso   1.000  H
  H205     1.0000 0.74158  0.11305  0.52288  Biso   1.000  H
  H206     1.0000 0.49914  0.68583  0.18146  Biso   1.000  H
  H207     1.0000 0.17719  0.48872  0.74755  Biso   1.000  H
  H208     1.0000 0.25156  0.08907  0.00907  Biso   1.000  H
  H209     1.0000 0.02547  0.69184  0.37863  Biso   1.000  H
  H210     1.0000 0.67138  0.47900  0.81058  Biso   1.000  H
  H211     1.0000 0.79292  0.61793  0.56299  Biso   1.000  H
  H212     1.0000 0.02730  0.19693  0.17383  Biso   1.000  H
  H213     1.0000 0.37055  0.96864  0.76093  Biso   1.000  H
  H214     1.0000 0.27210  0.58575  0.03139  Biso   1.000  H
  H215     1.0000 0.52837  0.18565  0.38038  Biso   1.000  H
  H216     1.0000 0.87896  0.98939  0.79176  Biso   1.000  H
  H217     1.0000 0.24118  0.44537  0.37414  Biso   1.000  H
  H218     1.0000 0.36699  0.18106  0.50232  Biso   1.000  H
  H219     1.0000 0.49978  0.30846  0.25280  Biso   1.000  H
  H220     1.0000 0.74217  0.46990  0.19129  Biso   1.000  H
  H221     1.0000 0.88302  0.20361  0.04538  Biso   1.000  H
  H222     1.0000 0.00923  0.30883  0.30875  Biso   1.000  H
  H223     1.0000 0.28057  0.93511  0.39406  Biso   1.000  H
  H224     1.0000 0.17145  0.68613  0.52194  Biso   1.000  H
  H225     1.0000 0.02534  0.82018  0.25163  Biso   1.000  H
  H226     1.0000 0.78474  0.98233  0.16072  Biso   1.000  H
  H227     1.0000 0.63563  0.70422  0.02747  Biso   1.000  H
  H228     1.0000 0.52242  0.80691  0.30279  Biso   1.000  H
  H229     1.0000 0.79547  0.46454  0.69539  Biso   1.000  H
  H230     1.0000 0.66909  0.74281  0.56163  Biso   1.000  H
  H231     1.0000 0.52950  0.61918  0.80384  Biso   1.000  H
  H232     1.0000 0.28953  0.46411  0.87860  Biso   1.000  H
  H233     1.0000 0.13050  0.72239  0.01971  Biso   1.000  H
  H234     1.0000 0.01816  0.62065  0.75565  Biso   1.000  H
  H235     1.0000 0.74849  0.00428  0.66210  Biso   1.000  H
  H236     1.0000 0.86535  0.24148  0.54919  Biso   1.000  H
  H237     1.0000 0.00413  0.11505  0.79801  Biso   1.000  H
  H238     1.0000 0.24074  0.93705  0.88268  Biso   1.000  H
  H239     1.0000 0.38960  0.22771  0.02618  Biso   1.000  H
  H240     1.0000 0.51235  0.12256  0.75351  Biso   1.000  H
  H241     1.0000 0.75074  0.48555  0.89848  Biso   1.000  H
  H242     1.0000 0.88758  0.69882  0.56474  Biso   1.000  H
  H243     1.0000 0.53039  0.83521  0.76400  Biso   1.000  H
  H244     1.0000 0.25617  0.48194  0.65910  Biso   1.000  H
  H245     1.0000 0.35160  0.67824  0.04698  Biso   1.000  H
  H246     1.0000 0.02464  0.82912  0.80027  Biso   1.000  H
  H247     1.0000 0.78822  0.00115  0.87350  Biso   1.000  H
  H248     1.0000 0.65685  0.19800  0.53740  Biso   1.000  H
  H249     1.0000 0.02791  0.33360  0.76687  Biso   1.000  H
  H250     1.0000 0.28690  0.95414  0.68069  Biso   1.000  H
  H251     1.0000 0.17656  0.17531  0.03436  Biso   1.000  H
  H252     1.0000 0.52824  0.33352  0.79478  Biso   1.000  H
  H253     1.0000 0.27804  0.44205  0.15838  Biso   1.000  H
  H254     1.0000 0.15528  0.23066  0.52655  Biso   1.000  H
  H255     1.0000 0.49259  0.10032  0.29717  Biso   1.000  H
  H256     1.0000 0.78431  0.48263  0.40105  Biso   1.000  H
  H257     1.0000 0.67542  0.24834  0.02938  Biso   1.000  H
  H258     1.0000 0.99895  0.11016  0.25563  Biso   1.000  H
  H259     1.0000 0.24397  0.94633  0.17698  Biso   1.000  H
  H260     1.0000 0.38347  0.72801  0.51958  Biso   1.000  H
  H261     1.0000 0.01572  0.60273  0.29390  Biso   1.000  H
  H262     1.0000 0.74242  0.96436  0.38204  Biso   1.000  H
  H263     1.0000 0.85396  0.75238  0.00768  Biso   1.000  H
  H264     1.0000 0.52812  0.59627  0.26068  Biso   1.000  H
  H265     1.0000 0.00870  0.19915  0.89111  Biso   1.000  H
  H266     1.0000 0.86236  0.95737  0.24625  Biso   1.000  H
  H267     1.0000 0.22870  0.79654  0.03582  Biso   1.000  H
  H268     1.0000 0.50094  0.20659  0.66147  Biso   1.000  H
  H269     1.0000 0.36437  0.93008  0.30541  Biso   1.000  H
  H270     1.0000 0.75488  0.82941  0.55749  Biso   1.000  H
  H271     1.0000 0.51895  0.69921  0.89376  Biso   1.000  H
  H272     1.0000 0.64890  0.44588  0.26699  Biso   1.000  H
  H273     1.0000 0.29423  0.30353  0.02442  Biso   1.000  H
  H274     1.0000 0.03836  0.70347  0.67015  Biso   1.000  H
  H275     1.0000 0.14866  0.45375  0.28823  Biso   1.000  H
  H276     1.0000 0.77975  0.33262  0.54060  Biso   1.000  H
  H277     1.0000 0.00764  0.73570  0.16429  Biso   1.000  H
  H278     1.0000 0.15835  0.97359  0.80178  Biso   1.000  H
  H279     1.0000 0.79466  0.12183  0.03697  Biso   1.000  H
  H280     1.0000 0.52977  0.73020  0.39731  Biso   1.000  H
  H281     1.0000 0.66322  0.99672  0.75248  Biso   1.000  H
  H282     1.0000 0.28237  0.09726  0.53661  Biso   1.000  H
  H283     1.0000 0.50872  0.22584  0.16149  Biso   1.000  H
  H284     1.0000 0.38094  0.49238  0.79693  Biso   1.000  H
  H285     1.0000 0.73234  0.62469  0.03129  Biso   1.000  H
  H286     1.0000 0.00957  0.22746  0.39434  Biso   1.000  H
  H287     1.0000 0.88890  0.47563  0.77257  Biso   1.000  H
  H288     1.0000 0.25538  0.59908  0.52036  Biso   1.000  H
  H289     1.0000 0.11935  0.17993  0.03523  Biso   1.000  H
  H290     1.0000 0.99284  0.05678  0.25305  Biso   1.000  H
  H291     1.0000 0.24615  0.95256  0.12095  Biso   1.000  H
  H292     1.0000 0.60056  0.19821  0.53521  Biso   1.000  H
  H293     1.0000 0.49175  0.04479  0.29777  Biso   1.000  H
  H294     1.0000 0.74030  0.96604  0.43434  Biso   1.000  H
  H295     1.0000 0.40380  0.68183  0.04587  Biso   1.000  H
  H296     1.0000 0.52674  0.54118  0.25529  Biso   1.000  H
  H297     1.0000 0.28124  0.44943  0.10505  Biso   1.000  H
  H298     1.0000 0.93948  0.69581  0.54742  Biso   1.000  H
  H299     1.0000 0.01002  0.55101  0.29715  Biso   1.000  H
  H300     1.0000 0.78477  0.48931  0.45673  Biso   1.000  H
  H301     1.0000 0.90555  0.75226  0.00356  Biso   1.000  H
  H302     1.0000 0.03674  0.88325  0.80259  Biso   1.000  H
  H303     1.0000 0.78393  0.99551  0.92894  Biso   1.000  H
  H304     1.0000 0.43739  0.73706  0.51121  Biso   1.000  H
  H305     1.0000 0.52865  0.88904  0.76015  Biso   1.000  H
  H306     1.0000 0.28776  0.94700  0.62510  Biso   1.000  H
  H307     1.0000 0.62312  0.24565  0.03404  Biso   1.000  H
  H308     1.0000 0.53066  0.38421  0.79700  Biso   1.000  H
  H309     1.0000 0.74662  0.48121  0.95483  Biso   1.000  H
  H310     1.0000 0.10121  0.23311  0.52141  Biso   1.000  H
  H311     1.0000 0.03194  0.38659  0.76408  Biso   1.000  H
  H312     1.0000 0.25287  0.47260  0.60429  Biso   1.000  H
  H313     1.0000 0.24205  0.93701  0.93930  Biso   1.000  H
  H314     1.0000 0.93971  0.20315  0.04529  Biso   1.000  H
  H315     1.0000 0.02954  0.87347  0.25238  Biso   1.000  H
  H316     1.0000 0.74542  0.00114  0.60978  Biso   1.000  H
  H317     1.0000 0.41973  0.18168  0.50148  Biso   1.000  H
  H318     1.0000 0.51727  0.86577  0.29942  Biso   1.000  H
  H319     1.0000 0.28798  0.44723  0.92565  Biso   1.000  H
  H320     1.0000 0.58342  0.69810  0.03069  Biso   1.000  H
  H321     1.0000 0.50342  0.36116  0.25477  Biso   1.000  H
  H322     1.0000 0.78933  0.46298  0.64177  Biso   1.000  H
  H323     1.0000 0.12162  0.68807  0.51677  Biso   1.000  H
  H324     1.0000 0.01437  0.36366  0.30438  Biso   1.000  H
  H325     1.0000 0.78928  0.98747  0.10646  Biso   1.000  H
  H326     1.0000 0.08207  0.73084  0.02312  Biso   1.000  H
  H327     1.0000 0.00655  0.06321  0.79726  Biso   1.000  H
  H328     1.0000 0.28374  0.94476  0.44566  Biso   1.000  H
  H329     1.0000 0.61543  0.74421  0.55800  Biso   1.000  H
  H330     1.0000 0.51611  0.07224  0.75334  Biso   1.000  H
  H331     1.0000 0.74340  0.48163  0.13629  Biso   1.000  H
  H332     1.0000 0.44654  0.23245  0.02701  Biso   1.000  H
  H333     1.0000 0.51848  0.56681  0.79935  Biso   1.000  H
  H334     1.0000 0.24490  0.44989  0.42667  Biso   1.000  H
  H335     1.0000 0.91912  0.24148  0.55042  Biso   1.000  H
  H336     1.0000 0.01517  0.56681  0.75629  Biso   1.000  H
  H337     1.0000 0.01374  0.19440  0.94335  Biso   1.000  H
  H338     1.0000 0.91864  0.95841  0.25030  Biso   1.000  H
  H339     1.0000 0.23382  0.85170  0.04016  Biso   1.000  H
  H340     1.0000 0.49248  0.20351  0.60767  Biso   1.000  H
  H341     1.0000 0.41813  0.93691  0.30501  Biso   1.000  H
  H342     1.0000 0.75446  0.88444  0.55080  Biso   1.000  H
  H343     1.0000 0.51018  0.69501  0.94604  Biso   1.000  H
  H344     1.0000 0.59639  0.43609  0.26415  Biso   1.000  H
  H345     1.0000 0.28981  0.35714  0.02917  Biso   1.000  H
  H346     1.0000 0.04747  0.69846  0.61391  Biso   1.000  H
  H347     1.0000 0.10006  0.46400  0.29261  Biso   1.000  H
  H348     1.0000 0.78504  0.38434  0.54614  Biso   1.000  H
  H349     1.0000 0.99661  0.73766  0.11400  Biso   1.000  H
  H350     1.0000 0.10406  0.98972  0.80834  Biso   1.000  H
  H351     1.0000 0.79463  0.06803  0.02544  Biso   1.000  H
  H352     1.0000 0.53167  0.73811  0.44987  Biso   1.000  H
  H353     1.0000 0.61165  0.98435  0.75312  Biso   1.000  H
  H354     1.0000 0.28414  0.04154  0.53837  Biso   1.000  H
  H355     1.0000 0.51779  0.22910  0.10762  Biso   1.000  H
  H356     1.0000 0.43495  0.48325  0.79957  Biso   1.000  H
  H357     1.0000 0.73616  0.57168  0.03727  Biso   1.000  H
  H358     1.0000 0.00607  0.22789  0.44829  Biso   1.000  H
  H359     1.0000 0.94307  0.47811  0.76720  Biso   1.000  H
  H360     1.0000 0.25585  0.54756  0.50757  Biso   1.000  H
  H361     1.0000 0.02878  0.69256  0.43175  Biso   1.000  H
  H362     1.0000 0.42881  0.97216  0.75999  Biso   1.000  H
  H363     1.0000 0.75088  0.39574  0.02355  Biso   1.000  H
  H364     1.0000 0.49000  0.68559  0.12718  Biso   1.000  H
  H365     1.0000 0.92974  0.96615  0.79333  Biso   1.000  H
  H366     1.0000 0.24367  0.36990  0.52749  Biso   1.000  H
  H367     1.0000 0.54212  0.18357  0.43004  Biso   1.000  H
  H368     1.0000 0.12433  0.49220  0.75268  Biso   1.000  H
  H369     1.0000 0.77361  0.89532  0.02577  Biso   1.000  H
  H370     1.0000 0.03248  0.19646  0.12018  Biso   1.000  H
  H371     1.0000 0.61619  0.47866  0.80833  Biso   1.000  H
  H372     1.0000 0.28972  0.86298  0.54145  Biso   1.000  H
  H373     1.0000 0.02085  0.24355  0.62732  Biso   1.000  H
  H374     1.0000 0.60120  0.96316  0.29331  Biso   1.000  H
  H375     1.0000 0.27719  0.53631  0.01766  Biso   1.000  H
  H376     1.0000 0.52671  0.24286  0.93196  Biso   1.000  H
  H377     1.0000 0.09784  0.94866  0.25336  Biso   1.000  H
  H378     1.0000 0.79117  0.56273  0.55871  Biso   1.000  H
  H379     1.0000 0.50845  0.74957  0.62455  Biso   1.000  H
  H380     1.0000 0.91614  0.44766  0.31253  Biso   1.000  H
  H381     1.0000 0.24580  0.03336  0.00504  Biso   1.000  H
  H382     1.0000 0.97356  0.74905  0.93007  Biso   1.000  H
  H383     1.0000 0.41477  0.44326  0.25114  Biso   1.000  H
  H384     1.0000 0.73644  0.06033  0.50876  Biso   1.000  H
  H385     1.0000 0.23021  0.41186  0.34782  Biso   1.000  H
  H386     1.0000 0.28120  0.12639  0.50116  Biso   1.000  H
  H387     1.0000 0.46748  0.27597  0.24553  Biso   1.000  H
  H388     1.0000 0.68603  0.42444  0.26433  Biso   1.000  H
  H389     1.0000 0.85070  0.19841  0.06888  Biso   1.000  H
  H390     1.0000 0.97514  0.28395  0.31475  Biso   1.000  H
  H391     1.0000 0.28565  0.90763  0.36276  Biso   1.000  H
  H392     1.0000 0.20224  0.67909  0.55354  Biso   1.000  H
  H393     1.0000 0.98110  0.74182  0.20054  Biso   1.000  H
  H394     1.0000 0.78073  0.94404  0.18862  Biso   1.000  H
  H395     1.0000 0.66656  0.70883  0.05441  Biso   1.000  H
  H396     1.0000 0.55990  0.77704  0.31087  Biso   1.000  H
  H397     1.0000 0.81031  0.51399  0.72281  Biso   1.000  H
  H398     1.0000 0.74935  0.80424  0.58943  Biso   1.000  H
  H399     1.0000 0.56213  0.65377  0.81169  Biso   1.000  H
  H400     1.0000 0.34500  0.51529  0.80373  Biso   1.000  H
  H401     1.0000 0.22724  0.76863  0.00366  Biso   1.000  H
  H402     1.0000 0.05276  0.65049  0.75525  Biso   1.000  H
  H403     1.0000 0.74846  0.96970  0.69089  Biso   1.000  H
  H404     1.0000 0.77952  0.29529  0.56891  Biso   1.000  H
  H405     1.0000 0.97752  0.19072  0.85870  Biso   1.000  H
  H406     1.0000 0.24515  0.97169  0.85984  Biso   1.000  H
  H407     1.0000 0.30585  0.27419  0.99297  Biso   1.000  H
  H408     1.0000 0.47545  0.15255  0.74460  Biso   1.000  H
  H409     1.0000 0.28448  0.40906  0.18898  Biso   1.000  H
  H410     1.0000 0.18596  0.23223  0.49013  Biso   1.000  H
  H411     1.0000 0.49196  0.18738  0.35768  Biso   1.000  H
  H412     1.0000 0.83449  0.49331  0.31609  Biso   1.000  H
  H413     1.0000 0.70925  0.25886  0.99507  Biso   1.000  H
  H414     1.0000 0.98940  0.19969  0.20069  Biso   1.000  H
  H415     1.0000 0.18613  0.97040  0.26389  Biso   1.000  H
  H416     1.0000 0.35580  0.72385  0.55432  Biso   1.000  H
  H417     1.0000 0.98075  0.63672  0.29698  Biso   1.000  H
  H418     1.0000 0.73342  0.99647  0.34516  Biso   1.000  H
  H419     1.0000 0.82537  0.75204  0.04881  Biso   1.000  H
  H420     1.0000 0.49267  0.62200  0.26416  Biso   1.000  H
  H421     1.0000 0.75150  0.44966  0.86959  Biso   1.000  H
  H422     1.0000 0.80414  0.64654  0.59788  Biso   1.000  H
  H423     1.0000 0.54688  0.75342  0.70708  Biso   1.000  H
  H424     1.0000 0.26038  0.50660  0.69161  Biso   1.000  H
  H425     1.0000 0.32305  0.67766  0.01488  Biso   1.000  H
  H426     1.0000 0.02314  0.74720  0.85336  Biso   1.000  H
  H427     1.0000 0.79969  0.03235  0.84400  Biso   1.000  H
  H428     1.0000 0.74187  0.13892  0.55794  Biso   1.000  H
  H429     1.0000 0.04607  0.29634  0.76540  Biso   1.000  H
  H430     1.0000 0.34467  0.93812  0.76015  Biso   1.000  H
  H431     1.0000 0.20130  0.17627  0.99668  Biso   1.000  H
  H432     1.0000 0.49502  0.30616  0.79987  Biso   1.000  H
  H433     1.0000 0.28675  0.99258  0.70830  Biso   1.000  H
  H434     1.0000 0.75848  0.31235  0.05308  Biso   1.000  H
  H435     1.0000 0.05465  0.68055  0.34419  Biso   1.000  H
  H436     1.0000 0.84301  0.95910  0.80058  Biso   1.000  H
  H437     1.0000 0.23658  0.28204  0.55471  Biso   1.000  H
  H438     1.0000 0.53442  0.68176  0.20392  Biso   1.000  H
  H439     1.0000 0.19716  0.45502  0.74179  Biso   1.000  H
  H440     1.0000 0.76587  0.80988  0.99877  Biso   1.000  H
  H441     1.0000 0.53168  0.12594  0.29862  Biso   1.000  H
  H442     1.0000 0.70237  0.51227  0.81860  Biso   1.000  H
  H443     1.0000 0.29939  0.78379  0.50506  Biso   1.000  H
  H444     1.0000 0.03831  0.13598  0.25786  Biso   1.000  H
  H445     1.0000 0.68824  0.92566  0.29835  Biso   1.000  H
  H446     1.0000 0.26619  0.61410  0.06142  Biso   1.000  H
  H447     1.0000 0.98364  0.25201  0.70634  Biso   1.000  H
  H448     1.0000 0.23485  0.91221  0.20414  Biso   1.000  H
  H449     1.0000 0.85042  0.70034  0.53110  Biso   1.000  H
  H450     1.0000 0.55396  0.24533  0.84532  Biso   1.000  H
  H451     1.0000 0.78167  0.44832  0.37887  Biso   1.000  H
  H452     1.0000 0.25926  0.11404  0.04009  Biso   1.000  H
  H453     1.0000 0.50254  0.80890  0.77159  Biso   1.000  H
  H454     1.0000 0.33388  0.46669  0.24885  Biso   1.000  H
  H455     1.0000 0.68614  0.19497  0.50175  Biso   1.000  H
  H456     1.0000 0.98479  0.80700  0.78914  Biso   1.000  H
  H457     1.0000 0.70404  0.74036  0.53469  Biso   1.000  H
  H458     1.0000 0.49110  0.69680  0.86066  Biso   1.000  H
  H459     1.0000 0.85429  0.44724  0.77861  Biso   1.000  H
  H460     1.0000 0.16212  0.72108  0.05556  Biso   1.000  H
  H461     1.0000 0.00128  0.69882  0.69154  Biso   1.000  H
  H462     1.0000 0.29958  0.44071  0.84100  Biso   1.000  H
  H463     1.0000 0.84568  0.24734  0.51707  Biso   1.000  H
  H464     1.0000 0.03663  0.14680  0.79695  Biso   1.000  H
  H465     1.0000 0.69344  0.02771  0.74185  Biso   1.000  H
  H466     1.0000 0.35539  0.22610  0.05594  Biso   1.000  H
  H467     1.0000 0.53535  0.21113  0.69636  Biso   1.000  H
  H468     1.0000 0.18088  0.93913  0.79620  Biso   1.000  H
  H469     1.0000 0.34315  0.18555  0.54261  Biso   1.000  H
  H470     1.0000 0.53667  0.22893  0.19762  Biso   1.000  H
  H471     1.0000 0.18545  0.47181  0.28984  Biso   1.000  H
  H472     1.0000 0.79991  0.15408  0.00610  Biso   1.000  H
  H473     1.0000 0.04111  0.23173  0.36158  Biso   1.000  H
  H474     1.0000 0.72617  0.50137  0.22527  Biso   1.000  H
  H475     1.0000 0.25365  0.63031  0.48796  Biso   1.000  H
  H476     1.0000 0.05125  0.78783  0.24827  Biso   1.000  H
  H477     1.0000 0.33536  0.96688  0.30636  Biso   1.000  H
  H478     1.0000 0.72298  0.65069  0.00093  Biso   1.000  H
  H479     1.0000 0.49322  0.73354  0.36532  Biso   1.000  H
  H480     1.0000 0.83894  0.99714  0.24054  Biso   1.000  H
  N1       1.0000 0.68926  0.14615  0.53085  Biso   1.000  N
  N2       1.0000 0.51284  0.63071  0.21130  Biso   1.000  N
  N3       1.0000 0.20358  0.48376  0.69209  Biso   1.000  N
  N4       1.0000 0.20347  0.12383  0.02072  Biso   1.000  N
  N5       1.0000 0.01586  0.63923  0.34707  Biso   1.000  N
  N6       1.0000 0.70111  0.47912  0.86432  Biso   1.000  N
  N7       1.0000 0.85085  0.64773  0.56189  Biso   1.000  N
  N8       1.0000 0.01362  0.14362  0.20466  Biso   1.000  N
  N9       1.0000 0.34052  0.96566  0.70975  Biso   1.000  N
  N10      1.0000 0.32172  0.62304  0.03667  Biso   1.000  N
  N11      1.0000 0.50862  0.13124  0.35008  Biso   1.000  N
  N12      1.0000 0.84340  0.99337  0.84451  Biso   1.000  N
  N13      1.0000 0.34793  0.77969  0.53051  Biso   1.000  N
  N14      1.0000 0.52663  0.29788  0.84824  Biso   1.000  N
  N15      1.0000 0.83448  0.47007  0.36890  Biso   1.000  N
  N16      1.0000 0.82088  0.80343  0.01808  Biso   1.000  N
  N17      1.0000 0.02168  0.29767  0.71419  Biso   1.000  N
  N18      1.0000 0.33124  0.44404  0.19593  Biso   1.000  N
  N19      1.0000 0.19069  0.28410  0.52384  Biso   1.000  N
  N20      1.0000 0.00545  0.79900  0.84763  Biso   1.000  N
  N21      1.0000 0.68834  0.96198  0.34541  Biso   1.000  N
  N22      1.0000 0.70587  0.30516  0.02764  Biso   1.000  N
  N23      1.0000 0.51825  0.80129  0.71268  Biso   1.000  N
  N24      1.0000 0.18900  0.94446  0.20812  Biso   1.000  N
  N25      1.0000 0.85129  0.47280  0.72248  Biso   1.000  N
  N26      1.0000 0.70261  0.79728  0.55681  Biso   1.000  N
  N27      1.0000 0.52425  0.64857  0.85855  Biso   1.000  N
  N28      1.0000 0.34526  0.47440  0.84650  Biso   1.000  N
  N29      1.0000 0.17304  0.77016  0.02628  Biso   1.000  N
  N30      1.0000 0.03111  0.65071  0.70212  Biso   1.000  N
  N31      1.0000 0.69527  0.99679  0.69801  Biso   1.000  N
  N32      1.0000 0.83555  0.29684  0.54565  Biso   1.000  N
  N33      1.0000 0.01119  0.14635  0.85267  Biso   1.000  N
  N34      1.0000 0.19022  0.95612  0.85376  Biso   1.000  N
  N35      1.0000 0.35132  0.27666  0.02761  Biso   1.000  N
  N36      1.0000 0.50585  0.15620  0.69733  Biso   1.000  N
  N37      1.0000 0.18660  0.44659  0.34193  Biso   1.000  N
  N38      1.0000 0.33487  0.12753  0.52250  Biso   1.000  N
  N39      1.0000 0.50338  0.27729  0.19832  Biso   1.000  N
  N40      1.0000 0.68514  0.46291  0.21914  Biso   1.000  N
  N41      1.0000 0.85015  0.15356  0.03645  Biso   1.000  N
  N42      1.0000 0.00818  0.28131  0.35983  Biso   1.000  N
  N43      1.0000 0.33349  0.93738  0.35859  Biso   1.000  N
  N44      1.0000 0.20253  0.63208  0.51495  Biso   1.000  N
  N45      1.0000 0.01557  0.78807  0.20045  Biso   1.000  N
  N46      1.0000 0.83533  0.96764  0.19366  Biso   1.000  N
  N47      1.0000 0.67591  0.65342  0.03230  Biso   1.000  N
  N48      1.0000 0.52650  0.78080  0.35582  Biso   1.000  N
  O1       1.0000 0.35527  0.49375  0.01517  Biso   1.000  O
  O2       1.0000 0.02517  0.31117  0.57458  Biso   1.000  O
  O3       1.0000 0.55282  0.95746  0.36375  Biso   1.000  O
  O4       1.0000 0.86149  0.51168  0.54745  Biso   1.000  O
  O5       1.0000 0.52853  0.31439  0.98197  Biso   1.000  O
  O6       1.0000 0.05640  0.97142  0.18041  Biso   1.000  O
  O7       1.0000 0.17318  0.98926  0.01902  Biso   1.000  O
  O8       1.0000 0.52265  0.81847  0.57641  Biso   1.000  O
  O9       1.0000 0.96964  0.46102  0.37636  Biso   1.000  O
  O10      1.0000 0.66748  0.01251  0.51639  Biso   1.000  O
  O11      1.0000 0.99789  0.81583  0.98324  Biso   1.000  O
  O12      1.0000 0.46761  0.45016  0.17997  Biso   1.000  O
  O13      1.0000 0.67413  0.43436  0.04522  Biso   1.000  O
  O14      1.0000 0.01348  0.62305  0.48410  Biso   1.000  O
  O15      1.0000 0.47695  0.97159  0.68799  Biso   1.000  O
  O16      1.0000 0.17237  0.41828  0.52771  Biso   1.000  O
  O17      1.0000 0.50079  0.61343  0.07647  Biso   1.000  O
  O18      1.0000 0.97347  0.96790  0.87041  Biso   1.000  O
  O19      1.0000 0.85197  0.93544  0.01958  Biso   1.000  O
  O20      1.0000 0.51914  0.11797  0.48321  Biso   1.000  O
  O21      1.0000 0.06782  0.47758  0.68788  Biso   1.000  O
  O22      1.0000 0.36020  0.91069  0.53179  Biso   1.000  O
  O23      1.0000 0.02792  0.12286  0.07056  Biso   1.000  O
  O24      1.0000 0.56389  0.48381  0.87184  Biso   1.000  O
  O25      1.0000 0.97152  0.95771  0.18117  Biso   1.000  O
  O26      1.0000 0.16860  0.90728  0.03880  Biso   1.000  O
  O27      1.0000 0.02058  0.12324  0.98921  Biso   1.000  O
  O28      1.0000 0.47031  0.95229  0.37125  Biso   1.000  O
  O29      1.0000 0.67624  0.92837  0.53379  Biso   1.000  O
  O30      1.0000 0.50294  0.12607  0.56498  Biso   1.000  O
  O31      1.0000 0.54987  0.45490  0.19032  Biso   1.000  O
  O32      1.0000 0.36029  0.41248  0.02261  Biso   1.000  O
  O33      1.0000 0.50123  0.62063  0.99193  Biso   1.000  O
  O34      1.0000 0.05311  0.45634  0.36505  Biso   1.000  O
  O35      1.0000 0.85939  0.43040  0.54518  Biso   1.000  O
  O36      1.0000 0.03699  0.62553  0.56584  Biso   1.000  O
  O37      1.0000 0.05732  0.98066  0.87597  Biso   1.000  O
  O38      1.0000 0.86280  0.01762  0.02493  Biso   1.000  O
  O39      1.0000 0.99954  0.80968  0.06582  Biso   1.000  O
  O40      1.0000 0.56081  0.97636  0.68115  Biso   1.000  O
  O41      1.0000 0.35752  0.99476  0.53274  Biso   1.000  O
  O42      1.0000 0.52191  0.81451  0.49093  Biso   1.000  O
  O43      1.0000 0.48124  0.46505  0.87117  Biso   1.000  O
  O44      1.0000 0.67024  0.51784  0.03917  Biso   1.000  O
  O45      1.0000 0.52770  0.30594  0.06681  Biso   1.000  O
  O46      1.0000 0.98483  0.46664  0.68978  Biso   1.000  O
  O47      1.0000 0.18191  0.49916  0.51042  Biso   1.000  O
  O48      1.0000 0.00401  0.30660  0.49235  Biso   1.000  O
  O49      1.0000 0.02125  0.92528  0.18232  Biso   1.000  O
  O50      1.0000 0.17108  0.94082  0.98822  Biso   1.000  O
  O51      1.0000 0.98263  0.12798  0.03549  Biso   1.000  O
  O52      1.0000 0.51537  0.91502  0.36870  Biso   1.000  O
  O53      1.0000 0.67190  0.98144  0.56359  Biso   1.000  O
  O54      1.0000 0.47225  0.11425  0.51528  Biso   1.000  O
  O55      1.0000 0.50557  0.41382  0.18468  Biso   1.000  O
  O56      1.0000 0.36156  0.44926  0.97820  Biso   1.000  O
  O57      1.0000 0.54168  0.61864  0.03342  Biso   1.000  O
  O58      1.0000 0.01402  0.41754  0.37428  Biso   1.000  O
  O59      1.0000 0.86104  0.46694  0.58663  Biso   1.000  O
  O60      1.0000 0.06707  0.61952  0.51663  Biso   1.000  O
  O61      1.0000 0.00676  0.01293  0.86938  Biso   1.000  O
  O62      1.0000 0.85763  0.97442  0.05974  Biso   1.000  O
  O63      1.0000 0.04026  0.80711  0.02139  Biso   1.000  O
  O64      1.0000 0.50973  0.01827  0.68188  Biso   1.000  O
  O65      1.0000 0.35718  0.94967  0.49250  Biso   1.000  O
  O66      1.0000 0.56760  0.81756  0.53677  Biso   1.000  O
  O67      1.0000 0.51200  0.51552  0.87064  Biso   1.000  O
  O68      1.0000 0.66995  0.47522  0.08547  Biso   1.000  O
  O69      1.0000 0.48600  0.30863  0.02202  Biso   1.000  O
  O70      1.0000 0.02472  0.51307  0.68994  Biso   1.000  O
  O71      1.0000 0.17418  0.45105  0.47652  Biso   1.000  O
  O72      1.0000 0.97139  0.31080  0.54250  Biso   1.000  O
  O73      1.0000 0.03173  0.43006  0.68774  Biso   1.000  O
  O74      1.0000 0.66843  0.96344  0.48274  Biso   1.000  O
  O75      1.0000 0.45703  0.61635  0.03681  Biso   1.000  O
  O76      1.0000 0.53109  0.43343  0.87148  Biso   1.000  O
  O77      1.0000 0.17744  0.95601  0.06999  Biso   1.000  O
  O78      1.0000 0.98308  0.62173  0.53638  Biso   1.000  O
  O79      1.0000 0.52125  0.93307  0.68657  Biso   1.000  O
  O80      1.0000 0.85759  0.47036  0.50355  Biso   1.000  O
  O81      1.0000 0.06561  0.11471  0.02583  Biso   1.000  O
  O82      1.0000 0.02304  0.92992  0.87423  Biso   1.000  O
  O83      1.0000 0.35495  0.45578  0.06121  Biso   1.000  O
  O84      1.0000 0.55411  0.12768  0.53065  Biso   1.000  O
  O85      1.0000 0.01109  0.50099  0.36994  Biso   1.000  O
  O86      1.0000 0.35835  0.95443  0.57649  Biso   1.000  O
  O87      1.0000 0.56920  0.31382  0.02416  Biso   1.000  O
  O88      1.0000 0.50684  0.49502  0.18415  Biso   1.000  O
  O89      1.0000 0.85279  0.97775  0.97752  Biso   1.000  O
  O90      1.0000 0.05498  0.30770  0.52438  Biso   1.000  O
  O91      1.0000 0.50505  0.99884  0.37181  Biso   1.000  O
  O92      1.0000 0.18088  0.46595  0.55804  Biso   1.000  O
  O93      1.0000 0.95763  0.81706  0.02569  Biso   1.000  O
  O94      1.0000 0.00868  0.00858  0.18041  Biso   1.000  O
  O95      1.0000 0.67571  0.47248  0.00188  Biso   1.000  O
  O96      1.0000 0.47870  0.81011  0.53617  Biso   1.000  O
  O97      1.0000 0.46738  0.16378  0.51700  Biso   1.000  O
  O98      1.0000 0.50160  0.41116  0.23489  Biso   1.000  O
  O99      1.0000 0.22219  0.44557  0.47523  Biso   1.000  O
  O100     1.0000 0.98783  0.17479  0.02824  Biso   1.000  O
  O101     1.0000 0.00897  0.41398  0.32496  Biso   1.000  O
  O102     1.0000 0.71620  0.48338  0.08598  Biso   1.000  O
  O103     1.0000 0.07035  0.66767  0.51886  Biso   1.000  O
  O104     1.0000 0.01101  0.92180  0.23022  Biso   1.000  O
  O105     1.0000 0.30911  0.95283  0.49357  Biso   1.000  O
  O106     1.0000 0.53555  0.66794  0.03788  Biso   1.000  O
  O107     1.0000 0.51449  0.91331  0.32022  Biso   1.000  O
  O108     1.0000 0.81055  0.98519  0.06195  Biso   1.000  O
  O109     1.0000 0.56687  0.76946  0.53694  Biso   1.000  O
  O110     1.0000 0.51684  0.51522  0.82214  Biso   1.000  O
  O111     1.0000 0.81198  0.47043  0.58960  Biso   1.000  O
  O112     1.0000 0.03443  0.75908  0.01453  Biso   1.000  O
  O113     1.0000 0.03176  0.51715  0.73647  Biso   1.000  O
  O114     1.0000 0.31219  0.44171  0.97490  Biso   1.000  O
  O115     1.0000 0.97207  0.26339  0.55080  Biso   1.000  O
  O116     1.0000 0.01253  0.01362  0.82117  Biso   1.000  O
  O117     1.0000 0.72133  0.98249  0.56455  Biso   1.000  O
  O118     1.0000 0.48936  0.26013  0.01914  Biso   1.000  O
  O119     1.0000 0.51041  0.02040  0.73156  Biso   1.000  O
  O120     1.0000 0.22026  0.94272  0.98825  Biso   1.000  O
  O121     1.0000 0.07188  0.47670  0.73601  Biso   1.000  O
  O122     1.0000 0.71654  0.01588  0.51214  Biso   1.000  O
  O123     1.0000 0.49648  0.66234  0.07699  Biso   1.000  O
  O124     1.0000 0.56999  0.48070  0.82344  Biso   1.000  O
  O125     1.0000 0.22199  0.98853  0.02219  Biso   1.000  O
  O126     1.0000 0.02149  0.67014  0.48364  Biso   1.000  O
  O127     1.0000 0.47698  0.97436  0.73529  Biso   1.000  O
  O128     1.0000 0.81241  0.51416  0.55289  Biso   1.000  O
  O129     1.0000 0.02755  0.17189  0.07137  Biso   1.000  O
  O130     1.0000 0.97885  0.96339  0.82191  Biso   1.000  O
  O131     1.0000 0.30715  0.48920  0.01057  Biso   1.000  O
  O132     1.0000 0.51489  0.16654  0.47722  Biso   1.000  O
  O133     1.0000 0.96557  0.45650  0.32761  Biso   1.000  O
  O134     1.0000 0.31224  0.91149  0.53396  Biso   1.000  O
  O135     1.0000 0.53299  0.26606  0.98246  Biso   1.000  O
  O136     1.0000 0.46505  0.45409  0.22819  Biso   1.000  O
  O137     1.0000 0.80380  0.94060  0.02439  Biso   1.000  O
  O138     1.0000 0.02461  0.26400  0.57950  Biso   1.000  O
  O139     1.0000 0.55324  0.96156  0.31579  Biso   1.000  O
  O140     1.0000 0.22157  0.41785  0.52890  Biso   1.000  O
  O141     1.0000 0.98697  0.76762  0.98062  Biso   1.000  O
  O142     1.0000 0.05198  0.96234  0.22867  Biso   1.000  O
  O143     1.0000 0.72295  0.44092  0.04299  Biso   1.000  O
  O144     1.0000 0.52471  0.76877  0.57706  Biso   1.000  O
  O145     1.0000 0.54824  0.45216  0.23776  Biso   1.000  O
  O146     1.0000 0.23021  0.49648  0.50772  Biso   1.000  O
  O147     1.0000 0.50286  0.17329  0.55857  Biso   1.000  O
  O148     1.0000 0.05045  0.46325  0.31587  Biso   1.000  O
  O149     1.0000 0.71868  0.52344  0.03729  Biso   1.000  O
  O150     1.0000 0.02976  0.17055  0.98686  Biso   1.000  O
  O151     1.0000 0.96878  0.96345  0.22811  Biso   1.000  O
  O152     1.0000 0.30802  0.99345  0.53544  Biso   1.000  O
  O153     1.0000 0.03625  0.67351  0.56745  Biso   1.000  O
  O154     1.0000 0.46714  0.94807  0.32328  Biso   1.000  O
  O155     1.0000 0.81380  0.02233  0.02164  Biso   1.000  O
  O156     1.0000 0.49712  0.66892  0.99378  Biso   1.000  O
  O157     1.0000 0.48359  0.47012  0.82272  Biso   1.000  O
  O158     1.0000 0.80955  0.43245  0.54465  Biso   1.000  O
  O159     1.0000 0.53102  0.76781  0.49429  Biso   1.000  O
  O160     1.0000 0.98935  0.47435  0.73705  Biso   1.000  O
  O161     1.0000 0.31139  0.40821  0.02348  Biso   1.000  O
  O162     1.0000 0.99906  0.76156  0.06430  Biso   1.000  O
  O163     1.0000 0.05928  0.98269  0.82649  Biso   1.000  O
  O164     1.0000 0.72366  0.93189  0.53092  Biso   1.000  O
  O165     1.0000 0.00498  0.25933  0.49823  Biso   1.000  O
  O166     1.0000 0.56282  0.98248  0.72970  Biso   1.000  O
  O167     1.0000 0.21668  0.90346  0.03795  Biso   1.000  O
  O168     1.0000 0.52675  0.25556  0.06293  Biso   1.000  O
  O169     1.0000 0.00793  0.00666  0.22975  Biso   1.000  O
  O170     1.0000 0.22628  0.94999  0.07266  Biso   1.000  O
  O171     1.0000 0.07173  0.16242  0.03141  Biso   1.000  O
  O172     1.0000 0.50094  0.99744  0.32180  Biso   1.000  O
  O173     1.0000 0.71605  0.96806  0.48256  Biso   1.000  O
  O174     1.0000 0.55268  0.17467  0.52447  Biso   1.000  O
  O175     1.0000 0.50617  0.49547  0.23327  Biso   1.000  O
  O176     1.0000 0.30513  0.45536  0.05818  Biso   1.000  O
  O177     1.0000 0.45275  0.66503  0.03950  Biso   1.000  O
  O178     1.0000 0.00593  0.50102  0.32185  Biso   1.000  O
  O179     1.0000 0.81003  0.47627  0.50502  Biso   1.000  O
  O180     1.0000 0.98583  0.66974  0.53296  Biso   1.000  O
  O181     1.0000 0.02846  0.93045  0.82537  Biso   1.000  O
  O182     1.0000 0.80486  0.97882  0.97923  Biso   1.000  O
  O183     1.0000 0.95387  0.76973  0.02682  Biso   1.000  O
  O184     1.0000 0.52279  0.93649  0.73550  Biso   1.000  O
  O185     1.0000 0.30868  0.95337  0.57559  Biso   1.000  O
  O186     1.0000 0.48379  0.76050  0.53383  Biso   1.000  O
  O187     1.0000 0.53079  0.43405  0.82336  Biso   1.000  O
  O188     1.0000 0.72371  0.47757  0.00088  Biso   1.000  O
  O189     1.0000 0.57174  0.26528  0.02802  Biso   1.000  O
  O190     1.0000 0.03637  0.43312  0.73672  Biso   1.000  O
  O191     1.0000 0.22961  0.46977  0.55578  Biso   1.000  O
  O192     1.0000 0.05364  0.25796  0.52632  Biso   1.000  O
