data_image0
_cell_length_a       46.4357
_cell_length_b       46.8266
_cell_length_c       46.5236
_cell_angle_alpha    90
_cell_angle_beta     90
_cell_angle_gamma    90

_symmetry_space_group_name_H-M    "P 1"
_symmetry_int_tables_number       1

loop_
  _symmetry_equiv_pos_as_xyz
  'x, y, z'

loop_
  _atom_site_label
  _atom_site_occupancy
  _atom_site_fract_x
  _atom_site_fract_y
  _atom_site_fract_z
  _atom_site_thermal_displace_type
  _atom_site_B_iso_or_equiv
  _atom_site_type_symbol
  C1       1.0000 0.57503  0.95760  0.40157  Biso   1.000  C
  C2       1.0000 0.33350  0.52082  0.07745  Biso   1.000  C
  C3       1.0000 0.02097  0.28940  0.62603  Biso   1.000  C
  C4       1.0000 0.08305  0.96750  0.25193  Biso   1.000  C
  C5       1.0000 0.84109  0.53639  0.56327  Biso   1.000  C
  C6       1.0000 0.51174  0.28923  0.00963  Biso   1.000  C
  C7       1.0000 0.97865  0.47415  0.38656  Biso   1.000  C
  C8       1.0000 0.20087  0.01815  0.06921  Biso   1.000  C
  C9       1.0000 0.52046  0.79676  0.63548  Biso   1.000  C
  C10      1.0000 0.47400  0.45937  0.26165  Biso   1.000  C
  C11      1.0000 0.69695  0.03615  0.59174  Biso   1.000  C
  C12      1.0000 0.00728  0.78993  0.02725  Biso   1.000  C
  C13      1.0000 0.44821  0.98431  0.75053  Biso   1.000  C
  C14      1.0000 0.69485  0.41856  0.05629  Biso   1.000  C
  C15      1.0000 0.01892  0.64236  0.52109  Biso   1.000  C
  C16      1.0000 0.94423  0.95725  0.89394  Biso   1.000  C
  C17      1.0000 0.20070  0.39721  0.58598  Biso   1.000  C
  C18      1.0000 0.52008  0.64274  0.13467  Biso   1.000  C
  C19      1.0000 0.06297  0.46831  0.76089  Biso   1.000  C
  C20      1.0000 0.82475  0.92381  0.09720  Biso   1.000  C
  C21      1.0000 0.51265  0.14280  0.51171  Biso   1.000  C
  C22      1.0000 0.55883  0.48442  0.89078  Biso   1.000  C
  C23      1.0000 0.33185  0.89448  0.57687  Biso   1.000  C
  C24      1.0000 0.01584  0.15046  0.12047  Biso   1.000  C
  C25      1.0000 0.32988  0.00253  0.56277  Biso   1.000  C
  C26      1.0000 0.51736  0.28354  0.12143  Biso   1.000  C
  C27      1.0000 0.08225  0.44740  0.39948  Biso   1.000  C
  C28      1.0000 0.83190  0.03116  0.07804  Biso   1.000  C
  C29      1.0000 0.00820  0.28097  0.51754  Biso   1.000  C
  C30      1.0000 0.58063  0.44217  0.25240  Biso   1.000  C
  C31      1.0000 0.19980  0.50304  0.58315  Biso   1.000  C
  C32      1.0000 0.01320  0.79187  0.13687  Biso   1.000  C
  C33      1.0000 0.46837  0.95558  0.39783  Biso   1.000  C
  C34      1.0000 0.69052  0.52803  0.06882  Biso   1.000  C
  C35      1.0000 0.53494  0.78596  0.52782  Biso   1.000  C
  C36      1.0000 0.97416  0.97628  0.25677  Biso   1.000  C
  C37      1.0000 0.70192  0.92915  0.57005  Biso   1.000  C
  C38      1.0000 0.49247  0.65494  0.02562  Biso   1.000  C
  C39      1.0000 0.95301  0.47046  0.74969  Biso   1.000  C
  C40      1.0000 0.19480  0.91013  0.06111  Biso   1.000  C
  C41      1.0000 0.02735  0.65335  0.62978  Biso   1.000  C
  C42      1.0000 0.45070  0.47852  0.89988  Biso   1.000  C
  C43      1.0000 0.84110  0.42852  0.56051  Biso   1.000  C
  C44      1.0000 0.02820  0.14253  0.01229  Biso   1.000  C
  C45      1.0000 0.55803  0.98242  0.74948  Biso   1.000  C
  C46      1.0000 0.33752  0.41211  0.10167  Biso   1.000  C
  C47      1.0000 0.49446  0.15645  0.61637  Biso   1.000  C
  C48      1.0000 0.05299  0.97198  0.89141  Biso   1.000  C
  C49      1.0000 0.99355  0.01835  0.88930  Biso   1.000  C
  C50      1.0000 0.83383  0.98381  0.13993  Biso   1.000  C
  C51      1.0000 0.06309  0.78641  0.08107  Biso   1.000  C
  C52      1.0000 0.50433  0.03816  0.74892  Biso   1.000  C
  C53      1.0000 0.33529  0.93993  0.51779  Biso   1.000  C
  C54      1.0000 0.58015  0.79734  0.58543  Biso   1.000  C
  C55      1.0000 0.50197  0.53586  0.89402  Biso   1.000  C
  C56      1.0000 0.69529  0.46773  0.11664  Biso   1.000  C
  C57      1.0000 0.46370  0.29073  0.06790  Biso   1.000  C
  C58      1.0000 0.01091  0.52331  0.75782  Biso   1.000  C
  C59      1.0000 0.20048  0.44839  0.53543  Biso   1.000  C
  C60      1.0000 0.95710  0.29177  0.57450  Biso   1.000  C
  C61      1.0000 0.02460  0.91962  0.26138  Biso   1.000  C
  C62      1.0000 0.19121  0.96800  0.01100  Biso   1.000  C
  C63      1.0000 0.96771  0.15323  0.05554  Biso   1.000  C
  C64      1.0000 0.52443  0.90115  0.39985  Biso   1.000  C
  C65      1.0000 0.69702  0.97254  0.63756  Biso   1.000  C
  C66      1.0000 0.44926  0.14008  0.55688  Biso   1.000  C
  C67      1.0000 0.52360  0.40060  0.25576  Biso   1.000  C
  C68      1.0000 0.33558  0.45470  0.03655  Biso   1.000  C
  C69      1.0000 0.56119  0.64872  0.06547  Biso   1.000  C
  C70      1.0000 0.02070  0.40610  0.39275  Biso   1.000  C
  C71      1.0000 0.83809  0.48149  0.61423  Biso   1.000  C
  C72      1.0000 0.07955  0.64109  0.57349  Biso   1.000  C
  C73      1.0000 0.04333  0.51449  0.39378  Biso   1.000  C
  C74      1.0000 0.32638  0.95378  0.62334  Biso   1.000  C
  C75      1.0000 0.56999  0.28680  0.06076  Biso   1.000  C
  C76      1.0000 0.53288  0.50695  0.25671  Biso   1.000  C
  C77      1.0000 0.82426  0.96980  0.03148  Biso   1.000  C
  C78      1.0000 0.06479  0.27931  0.56899  Biso   1.000  C
  C79      1.0000 0.52452  0.00937  0.39577  Biso   1.000  C
  C80      1.0000 0.19424  0.44830  0.64330  Biso   1.000  C
  C81      1.0000 0.95325  0.79707  0.08304  Biso   1.000  C
  C82      1.0000 0.03778  0.02573  0.24712  Biso   1.000  C
  C83      1.0000 0.69293  0.47656  0.00763  Biso   1.000  C
  C84      1.0000 0.47259  0.78562  0.57928  Biso   1.000  C
  C85      1.0000 0.00782  0.41328  0.75383  Biso   1.000  C
  C86      1.0000 0.69978  0.98890  0.52623  Biso   1.000  C
  C87      1.0000 0.45433  0.64861  0.09385  Biso   1.000  C
  C88      1.0000 0.50484  0.42695  0.89180  Biso   1.000  C
  C89      1.0000 0.20221  0.95884  0.11972  Biso   1.000  C
  C90      1.0000 0.97007  0.65593  0.57838  Biso   1.000  C
  C91      1.0000 0.49874  0.93048  0.75501  Biso   1.000  C
  C92      1.0000 0.84202  0.48800  0.50684  Biso   1.000  C
  C93      1.0000 0.07499  0.14303  0.07727  Biso   1.000  C
  C94      1.0000 0.00396  0.90940  0.89386  Biso   1.000  C
  C95      1.0000 0.33580  0.48089  0.14246  Biso   1.000  C
  C96      1.0000 0.55679  0.15070  0.57177  Biso   1.000  C
  C97      1.0000 0.69315  0.06866  0.59010  Biso   1.000  C
  C98      1.0000 0.52505  0.63928  0.16686  Biso   1.000  C
  C99      1.0000 0.09437  0.46699  0.76392  Biso   1.000  C
  C100     1.0000 0.20133  0.05102  0.07439  Biso   1.000  C
  C101     1.0000 0.01508  0.63998  0.48967  Biso   1.000  C
  C102     1.0000 0.59016  0.47902  0.88680  Biso   1.000  C
  C103     1.0000 0.83970  0.56697  0.56708  Biso   1.000  C
  C104     1.0000 0.01284  0.15165  0.15305  Biso   1.000  C
  C105     1.0000 0.41629  0.97764  0.74973  Biso   1.000  C
  C106     1.0000 0.33200  0.55309  0.07545  Biso   1.000  C
  C107     1.0000 0.52434  0.14124  0.48181  Biso   1.000  C
  C108     1.0000 0.91151  0.95374  0.89713  Biso   1.000  C
  C109     1.0000 0.33580  0.86282  0.57749  Biso   1.000  C
  C110     1.0000 0.50430  0.29338  0.97857  Biso   1.000  C
  C111     1.0000 0.94648  0.47321  0.38411  Biso   1.000  C
  C112     1.0000 0.82538  0.89149  0.09738  Biso   1.000  C
  C113     1.0000 0.02544  0.29073  0.65772  Biso   1.000  C
  C114     1.0000 0.44153  0.46237  0.26103  Biso   1.000  C
  C115     1.0000 0.19973  0.36372  0.58389  Biso   1.000  C
  C116     1.0000 0.01171  0.78900  0.99553  Biso   1.000  C
  C117     1.0000 0.60542  0.96803  0.40018  Biso   1.000  C
  C118     1.0000 0.69320  0.38756  0.05353  Biso   1.000  C
  C119     1.0000 0.51794  0.79913  0.66676  Biso   1.000  C
  C120     1.0000 0.11447  0.96039  0.25084  Biso   1.000  C
  C121     1.0000 0.83653  0.97907  0.17187  Biso   1.000  C
  C122     1.0000 0.09459  0.78585  0.07637  Biso   1.000  C
  C123     1.0000 0.99553  0.05104  0.88874  Biso   1.000  C
  C124     1.0000 0.33539  0.93844  0.48490  Biso   1.000  C
  C125     1.0000 0.61221  0.79941  0.58518  Biso   1.000  C
  C126     1.0000 0.50131  0.06927  0.74837  Biso   1.000  C
  C127     1.0000 0.69894  0.46160  0.14770  Biso   1.000  C
  C128     1.0000 0.43241  0.29157  0.07142  Biso   1.000  C
  C129     1.0000 0.49684  0.56791  0.89345  Biso   1.000  C
  C130     1.0000 0.20237  0.45132  0.50329  Biso   1.000  C
  C131     1.0000 0.92568  0.29457  0.57577  Biso   1.000  C
  C132     1.0000 0.00830  0.55509  0.75548  Biso   1.000  C
  C133     1.0000 0.19003  0.96712  0.97934  Biso   1.000  C
  C134     1.0000 0.93565  0.15457  0.05734  Biso   1.000  C
  C135     1.0000 0.02495  0.88763  0.26356  Biso   1.000  C
  C136     1.0000 0.69564  0.97317  0.67010  Biso   1.000  C
  C137     1.0000 0.41652  0.13620  0.55551  Biso   1.000  C
  C138     1.0000 0.53034  0.86907  0.39945  Biso   1.000  C
  C139     1.0000 0.33426  0.44968  0.00477  Biso   1.000  C
  C140     1.0000 0.59324  0.65207  0.06004  Biso   1.000  C
  C141     1.0000 0.53271  0.36910  0.25350  Biso   1.000  C
  C142     1.0000 0.83424  0.47761  0.64587  Biso   1.000  C
  C143     1.0000 0.11158  0.63804  0.57406  Biso   1.000  C
  C144     1.0000 0.01862  0.37481  0.39200  Biso   1.000  C
  C145     1.0000 0.34042  0.48063  0.17433  Biso   1.000  C
  C146     1.0000 0.09612  0.27546  0.57512  Biso   1.000  C
  C147     1.0000 0.52232  0.04122  0.39272  Biso   1.000  C
  C148     1.0000 0.84432  0.49009  0.47317  Biso   1.000  C
  C149     1.0000 0.60126  0.28752  0.05871  Biso   1.000  C
  C150     1.0000 0.04034  0.05745  0.24526  Biso   1.000  C
  C151     1.0000 0.20301  0.95049  0.15120  Biso   1.000  C
  C152     1.0000 0.44053  0.78079  0.57466  Biso   1.000  C
  C153     1.0000 0.03848  0.54621  0.39441  Biso   1.000  C
  C154     1.0000 0.70092  0.98541  0.49362  Biso   1.000  C
  C155     1.0000 0.92140  0.79783  0.08326  Biso   1.000  C
  C156     1.0000 0.52962  0.53859  0.25730  Biso   1.000  C
  C157     1.0000 0.69100  0.47559  0.97559  Biso   1.000  C
  C158     1.0000 0.93681  0.65817  0.57778  Biso   1.000  C
  C159     1.0000 0.49663  0.89759  0.75557  Biso   1.000  C
  C160     1.0000 0.19169  0.44430  0.67591  Biso   1.000  C
  C161     1.0000 0.42248  0.64916  0.09874  Biso   1.000  C
  C162     1.0000 0.99992  0.87732  0.89480  Biso   1.000  C
  C163     1.0000 0.82216  0.96713  0.99881  Biso   1.000  C
  C164     1.0000 0.58893  0.15311  0.57847  Biso   1.000  C
  C165     1.0000 0.01073  0.38204  0.75371  Biso   1.000  C
  C166     1.0000 0.32544  0.95638  0.65575  Biso   1.000  C
  C167     1.0000 0.10541  0.14238  0.08561  Biso   1.000  C
  C168     1.0000 0.50759  0.39595  0.88916  Biso   1.000  C
  C169     1.0000 0.01607  0.79249  0.16803  Biso   1.000  C
  C170     1.0000 0.08574  0.97502  0.89165  Biso   1.000  C
  C171     1.0000 0.83360  0.06234  0.07241  Biso   1.000  C
  C172     1.0000 0.54323  0.77988  0.49767  Biso   1.000  C
  C173     1.0000 0.59051  0.98051  0.75281  Biso   1.000  C
  C174     1.0000 0.32849  0.03469  0.56063  Biso   1.000  C
  C175     1.0000 0.51629  0.28159  0.15416  Biso   1.000  C
  C176     1.0000 0.41852  0.47161  0.90250  Biso   1.000  C
  C177     1.0000 0.69187  0.55969  0.07235  Biso   1.000  C
  C178     1.0000 0.00951  0.27902  0.48559  Biso   1.000  C
  C179     1.0000 0.92110  0.46880  0.74813  Biso   1.000  C
  C180     1.0000 0.20005  0.53594  0.57980  Biso   1.000  C
  C181     1.0000 0.02428  0.14370  0.98100  Biso   1.000  C
  C182     1.0000 0.94292  0.97784  0.25923  Biso   1.000  C
  C183     1.0000 0.19355  0.87783  0.06496  Biso   1.000  C
  C184     1.0000 0.49275  0.16117  0.64801  Biso   1.000  C
  C185     1.0000 0.43582  0.95260  0.39697  Biso   1.000  C
  C186     1.0000 0.70255  0.89810  0.56518  Biso   1.000  C
  C187     1.0000 0.48857  0.65703  0.99371  Biso   1.000  C
  C188     1.0000 0.61322  0.43924  0.24714  Biso   1.000  C
  C189     1.0000 0.34110  0.38025  0.10436  Biso   1.000  C
  C190     1.0000 0.02653  0.65329  0.66006  Biso   1.000  C
  C191     1.0000 0.11414  0.44421  0.40463  Biso   1.000  C
  C192     1.0000 0.83862  0.39716  0.56434  Biso   1.000  C
  C193     1.0000 0.84855  0.96468  0.98170  Biso   1.000  C
  C194     1.0000 0.90596  0.82597  0.08756  Biso   1.000  C
  C195     1.0000 0.00415  0.86235  0.92429  Biso   1.000  C
  C196     1.0000 0.35115  0.95994  0.67301  Biso   1.000  C
  C197     1.0000 0.42174  0.80514  0.57524  Biso   1.000  C
  C198     1.0000 0.49945  0.88154  0.72899  Biso   1.000  C
  C199     1.0000 0.66278  0.47525  0.96150  Biso   1.000  C
  C200     1.0000 0.61774  0.31572  0.05854  Biso   1.000  C
  C201     1.0000 0.50999  0.37774  0.91386  Biso   1.000  C
  C202     1.0000 0.16424  0.44584  0.69040  Biso   1.000  C
  C203     1.0000 0.11666  0.30139  0.57333  Biso   1.000  C
  C204     1.0000 0.01134  0.36695  0.72504  Biso   1.000  C
  C205     1.0000 0.17775  0.95620  0.16840  Biso   1.000  C
  C206     1.0000 0.12163  0.11604  0.08623  Biso   1.000  C
  C207     1.0000 0.03129  0.07149  0.21876  Biso   1.000  C
  C208     1.0000 0.67382  0.98041  0.47775  Biso   1.000  C
  C209     1.0000 0.60795  0.12770  0.57879  Biso   1.000  C
  C210     1.0000 0.52345  0.05814  0.41976  Biso   1.000  C
  C211     1.0000 0.36849  0.47871  0.18714  Biso   1.000  C
  C212     1.0000 0.40549  0.62181  0.09801  Biso   1.000  C
  C213     1.0000 0.52701  0.55636  0.23113  Biso   1.000  C
  C214     1.0000 0.87223  0.48895  0.45847  Biso   1.000  C
  C215     1.0000 0.91919  0.63228  0.57740  Biso   1.000  C
  C216     1.0000 0.03202  0.56150  0.42108  Biso   1.000  C
  C217     1.0000 0.10431  0.97224  0.91690  Biso   1.000  C
  C218     1.0000 0.86208  0.07716  0.07008  Biso   1.000  C
  C219     1.0000 0.01435  0.81904  0.18430  Biso   1.000  C
  C220     1.0000 0.61046  0.97983  0.72786  Biso   1.000  C
  C221     1.0000 0.35463  0.05173  0.55843  Biso   1.000  C
  C222     1.0000 0.54283  0.80511  0.47917  Biso   1.000  C
  C223     1.0000 0.40673  0.46437  0.93189  Biso   1.000  C
  C224     1.0000 0.66463  0.57654  0.06694  Biso   1.000  C
  C225     1.0000 0.52049  0.30859  0.17150  Biso   1.000  C
  C226     1.0000 0.90621  0.47077  0.71964  Biso   1.000  C
  C227     1.0000 0.17534  0.55446  0.57842  Biso   1.000  C
  C228     1.0000 0.00803  0.30634  0.46937  Biso   1.000  C
  C229     1.0000 0.92430  0.97739  0.23314  Biso   1.000  C
  C230     1.0000 0.16501  0.86215  0.06537  Biso   1.000  C
  C231     1.0000 0.01939  0.11527  0.96631  Biso   1.000  C
  C232     1.0000 0.41827  0.94800  0.42271  Biso   1.000  C
  C233     1.0000 0.67618  0.88030  0.57130  Biso   1.000  C
  C234     1.0000 0.49544  0.13545  0.66717  Biso   1.000  C
  C235     1.0000 0.62738  0.44005  0.21865  Biso   1.000  C
  C236     1.0000 0.36795  0.36562  0.09598  Biso   1.000  C
  C237     1.0000 0.48949  0.62989  0.97549  Biso   1.000  C
  C238     1.0000 0.12678  0.44480  0.43257  Biso   1.000  C
  C239     1.0000 0.86446  0.37862  0.56821  Biso   1.000  C
  C240     1.0000 0.02704  0.62484  0.67580  Biso   1.000  C
  C241     1.0000 0.60822  0.47741  0.91302  Biso   1.000  C
  C242     1.0000 0.86627  0.58279  0.57153  Biso   1.000  C
  C243     1.0000 0.51122  0.82685  0.67973  Biso   1.000  C
  C244     1.0000 0.11155  0.46137  0.73768  Biso   1.000  C
  C245     1.0000 0.35858  0.57144  0.08122  Biso   1.000  C
  C246     1.0000 0.00960  0.81531  0.97819  Biso   1.000  C
  C247     1.0000 0.89759  0.95897  0.92476  Biso   1.000  C
  C248     1.0000 0.66525  0.08182  0.58337  Biso   1.000  C
  C249     1.0000 0.02083  0.31712  0.67355  Biso   1.000  C
  C250     1.0000 0.40222  0.96821  0.72359  Biso   1.000  C
  C251     1.0000 0.17432  0.06418  0.07914  Biso   1.000  C
  C252     1.0000 0.50697  0.32206  0.96401  Biso   1.000  C
  C253     1.0000 0.42412  0.46685  0.23516  Biso   1.000  C
  C254     1.0000 0.17109  0.34941  0.58022  Biso   1.000  C
  C255     1.0000 0.52250  0.11255  0.46921  Biso   1.000  C
  C256     1.0000 0.92821  0.47825  0.40939  Biso   1.000  C
  C257     1.0000 0.66563  0.37033  0.05690  Biso   1.000  C
  C258     1.0000 0.01553  0.12319  0.16821  Biso   1.000  C
  C259     1.0000 0.12893  0.95888  0.22291  Biso   1.000  C
  C260     1.0000 0.36477  0.84828  0.57766  Biso   1.000  C
  C261     1.0000 0.01981  0.61255  0.47384  Biso   1.000  C
  C262     1.0000 0.62203  0.97231  0.42609  Biso   1.000  C
  C263     1.0000 0.85272  0.87593  0.09518  Biso   1.000  C
  C264     1.0000 0.52889  0.61111  0.18121  Biso   1.000  C
  C265     1.0000 0.00575  0.06489  0.91552  Biso   1.000  C
  C266     1.0000 0.86522  0.97526  0.18569  Biso   1.000  C
  C267     1.0000 0.11175  0.81168  0.07240  Biso   1.000  C
  C268     1.0000 0.49468  0.08468  0.72113  Biso   1.000  C
  C269     1.0000 0.36377  0.94332  0.46993  Biso   1.000  C
  C270     1.0000 0.62740  0.82745  0.58322  Biso   1.000  C
  C271     1.0000 0.49452  0.58285  0.92149  Biso   1.000  C
  C272     1.0000 0.67398  0.45173  0.16516  Biso   1.000  C
  C273     1.0000 0.41745  0.31710  0.08188  Biso   1.000  C
  C274     1.0000 0.01532  0.57178  0.72908  Biso   1.000  C
  C275     1.0000 0.17625  0.44688  0.48523  Biso   1.000  C
  C276     1.0000 0.91211  0.32287  0.57398  Biso   1.000  C
  C277     1.0000 0.01996  0.87160  0.23618  Biso   1.000  C
  C278     1.0000 0.16098  0.96655  0.96588  Biso   1.000  C
  C279     1.0000 0.91732  0.12726  0.05996  Biso   1.000  C
  C280     1.0000 0.53448  0.85420  0.42622  Biso   1.000  C
  C281     1.0000 0.66719  0.97820  0.68340  Biso   1.000  C
  C282     1.0000 0.40234  0.10794  0.55492  Biso   1.000  C
  C283     1.0000 0.52877  0.35567  0.22588  Biso   1.000  C
  C284     1.0000 0.35960  0.45287  0.98671  Biso   1.000  C
  C285     1.0000 0.61060  0.62621  0.06197  Biso   1.000  C
  C286     1.0000 0.01136  0.35635  0.41648  Biso   1.000  C
  C287     1.0000 0.86006  0.47894  0.66491  Biso   1.000  C
  C288     1.0000 0.12494  0.60991  0.57634  Biso   1.000  C
  C289     1.0000 0.36744  0.81816  0.57300  Biso   1.000  C
  C290     1.0000 0.50398  0.32390  0.93202  Biso   1.000  C
  C291     1.0000 0.89647  0.47902  0.40778  Biso   1.000  C
  C292     1.0000 0.85236  0.84520  0.09046  Biso   1.000  C
  C293     1.0000 0.02013  0.31571  0.70491  Biso   1.000  C
  C294     1.0000 0.39242  0.47052  0.23866  Biso   1.000  C
  C295     1.0000 0.17042  0.31805  0.58328  Biso   1.000  C
  C296     1.0000 0.00764  0.81209  0.94720  Biso   1.000  C
  C297     1.0000 0.65332  0.97563  0.42429  Biso   1.000  C
  C298     1.0000 0.66879  0.33839  0.05709  Biso   1.000  C
  C299     1.0000 0.50688  0.82724  0.71103  Biso   1.000  C
  C300     1.0000 0.15943  0.95367  0.22102  Biso   1.000  C
  C301     1.0000 0.66365  0.11236  0.58175  Biso   1.000  C
  C302     1.0000 0.53098  0.61049  0.21226  Biso   1.000  C
  C303     1.0000 0.14277  0.45597  0.74115  Biso   1.000  C
  C304     1.0000 0.17459  0.09481  0.08254  Biso   1.000  C
  C305     1.0000 0.02160  0.61469  0.44173  Biso   1.000  C
  C306     1.0000 0.63939  0.47714  0.90879  Biso   1.000  C
  C307     1.0000 0.86536  0.61459  0.57034  Biso   1.000  C
  C308     1.0000 0.02250  0.12462  0.19792  Biso   1.000  C
  C309     1.0000 0.37074  0.96791  0.72472  Biso   1.000  C
  C310     1.0000 0.35473  0.60159  0.08481  Biso   1.000  C
  C311     1.0000 0.52460  0.11137  0.43815  Biso   1.000  C
  C312     1.0000 0.86608  0.96078  0.92676  Biso   1.000  C
  C313     1.0000 0.18130  0.44871  0.45515  Biso   1.000  C
  C314     1.0000 0.37120  0.10623  0.55588  Biso   1.000  C
  C315     1.0000 0.52548  0.32466  0.22589  Biso   1.000  C
  C316     1.0000 0.67936  0.44845  0.19662  Biso   1.000  C
  C317     1.0000 0.88487  0.12932  0.06333  Biso   1.000  C
  C318     1.0000 0.01183  0.32585  0.41594  Biso   1.000  C
  C319     1.0000 0.36375  0.94402  0.43867  Biso   1.000  C
  C320     1.0000 0.15789  0.60843  0.57849  Biso   1.000  C
  C321     1.0000 0.02016  0.83999  0.23776  Biso   1.000  C
  C322     1.0000 0.86899  0.97593  0.21673  Biso   1.000  C
  C323     1.0000 0.64232  0.62818  0.06681  Biso   1.000  C
  C324     1.0000 0.53246  0.82246  0.42674  Biso   1.000  C
  C325     1.0000 0.85505  0.47335  0.69453  Biso   1.000  C
  C326     1.0000 0.65881  0.82782  0.57840  Biso   1.000  C
  C327     1.0000 0.49631  0.61366  0.92182  Biso   1.000  C
  C328     1.0000 0.35665  0.45363  0.95556  Biso   1.000  C
  C329     1.0000 0.14207  0.81043  0.06657  Biso   1.000  C
  C330     1.0000 0.02214  0.60357  0.72947  Biso   1.000  C
  C331     1.0000 0.66444  0.97607  0.71495  Biso   1.000  C
  C332     1.0000 0.88119  0.32410  0.57159  Biso   1.000  C
  C333     1.0000 0.00931  0.09667  0.91434  Biso   1.000  C
  C334     1.0000 0.15932  0.96710  0.93415  Biso   1.000  C
  C335     1.0000 0.38634  0.31383  0.08515  Biso   1.000  C
  C336     1.0000 0.49419  0.11560  0.72217  Biso   1.000  C
  C337     1.0000 0.66196  0.47593  0.92937  Biso   1.000  C
  C338     1.0000 0.88845  0.63547  0.57229  Biso   1.000  C
  C339     1.0000 0.50244  0.85000  0.73133  Biso   1.000  C
  C340     1.0000 0.16491  0.44982  0.72070  Biso   1.000  C
  C341     1.0000 0.37483  0.62393  0.09090  Biso   1.000  C
  C342     1.0000 0.00517  0.83132  0.92484  Biso   1.000  C
  C343     1.0000 0.84460  0.96297  0.95008  Biso   1.000  C
  C344     1.0000 0.64006  0.13275  0.58175  Biso   1.000  C
  C345     1.0000 0.01642  0.33598  0.72612  Biso   1.000  C
  C346     1.0000 0.34937  0.96335  0.70397  Biso   1.000  C
  C347     1.0000 0.15253  0.11588  0.08678  Biso   1.000  C
  C348     1.0000 0.50562  0.34725  0.91123  Biso   1.000  C
  C349     1.0000 0.36929  0.47573  0.21972  Biso   1.000  C
  C350     1.0000 0.14671  0.29882  0.58107  Biso   1.000  C
  C351     1.0000 0.52404  0.08901  0.41792  Biso   1.000  C
  C352     1.0000 0.87365  0.48178  0.42714  Biso   1.000  C
  C353     1.0000 0.64852  0.31545  0.05827  Biso   1.000  C
  C354     1.0000 0.02923  0.10300  0.21821  Biso   1.000  C
  C355     1.0000 0.18027  0.95173  0.19904  Biso   1.000  C
  C356     1.0000 0.39091  0.79934  0.57360  Biso   1.000  C
  C357     1.0000 0.02716  0.59321  0.42050  Biso   1.000  C
  C358     1.0000 0.67541  0.97870  0.44600  Biso   1.000  C
  C359     1.0000 0.87434  0.82464  0.08605  Biso   1.000  C
  C360     1.0000 0.53119  0.58789  0.23308  Biso   1.000  C
  C361     1.0000 0.01505  0.11848  0.93471  Biso   1.000  C
  C362     1.0000 0.89301  0.97807  0.23554  Biso   1.000  C
  C363     1.0000 0.16453  0.83137  0.06424  Biso   1.000  C
  C364     1.0000 0.49369  0.13581  0.69918  Biso   1.000  C
  C365     1.0000 0.38728  0.94693  0.41898  Biso   1.000  C
  C366     1.0000 0.68007  0.84952  0.57347  Biso   1.000  C
  C367     1.0000 0.49268  0.63449  0.94404  Biso   1.000  C
  C368     1.0000 0.66090  0.44326  0.21882  Biso   1.000  C
  C369     1.0000 0.36582  0.33486  0.09234  Biso   1.000  C
  C370     1.0000 0.02493  0.62463  0.70775  Biso   1.000  C
  C371     1.0000 0.16046  0.44796  0.43333  Biso   1.000  C
  C372     1.0000 0.86086  0.34675  0.57110  Biso   1.000  C
  C373     1.0000 0.01876  0.81935  0.21630  Biso   1.000  C
  C374     1.0000 0.13599  0.97004  0.91427  Biso   1.000  C
  C375     1.0000 0.86181  0.10870  0.06682  Biso   1.000  C
  C376     1.0000 0.53719  0.80137  0.44804  Biso   1.000  C
  C377     1.0000 0.64117  0.97667  0.73515  Biso   1.000  C
  C378     1.0000 0.35102  0.08313  0.55609  Biso   1.000  C
  C379     1.0000 0.52017  0.30555  0.20265  Biso   1.000  C
  C380     1.0000 0.37498  0.45903  0.93193  Biso   1.000  C
  C381     1.0000 0.66540  0.60806  0.06904  Biso   1.000  C
  C382     1.0000 0.00940  0.30540  0.43826  Biso   1.000  C
  C383     1.0000 0.87438  0.47024  0.71879  Biso   1.000  C
  C384     1.0000 0.17792  0.58544  0.57894  Biso   1.000  C
  C385     1.0000 0.20204  0.11073  0.08677  Biso   1.000  C
  C386     1.0000 0.02394  0.15145  0.21354  Biso   1.000  C
  C387     1.0000 0.17562  0.94926  0.24725  Biso   1.000  C
  C388     1.0000 0.68844  0.13126  0.58486  Biso   1.000  C
  C389     1.0000 0.52716  0.13769  0.42215  Biso   1.000  C
  C390     1.0000 0.66908  0.97574  0.39610  Biso   1.000  C
  C391     1.0000 0.32834  0.61549  0.08152  Biso   1.000  C
  C392     1.0000 0.53277  0.63610  0.22920  Biso   1.000  C
  C393     1.0000 0.37807  0.47063  0.26710  Biso   1.000  C
  C394     1.0000 0.84067  0.63102  0.56892  Biso   1.000  C
  C395     1.0000 0.01848  0.64139  0.42567  Biso   1.000  C
  C396     1.0000 0.88160  0.47136  0.38121  Biso   1.000  C
  C397     1.0000 0.82635  0.82980  0.09202  Biso   1.000  C
  C398     1.0000 0.00880  0.78433  0.93248  Biso   1.000  C
  C399     1.0000 0.84843  0.95795  0.90156  Biso   1.000  C
  C400     1.0000 0.34179  0.79951  0.57118  Biso   1.000  C
  C401     1.0000 0.51034  0.80073  0.72883  Biso   1.000  C
  C402     1.0000 0.35428  0.97174  0.75052  Biso   1.000  C
  C403     1.0000 0.69647  0.32425  0.05596  Biso   1.000  C
  C404     1.0000 0.49818  0.29836  0.91466  Biso   1.000  C
  C405     1.0000 0.65388  0.47685  0.88074  Biso   1.000  C
  C406     1.0000 0.19459  0.29989  0.58689  Biso   1.000  C
  C407     1.0000 0.02330  0.28805  0.72031  Biso   1.000  C
  C408     1.0000 0.15768  0.45748  0.76763  Biso   1.000  C
  C409     1.0000 0.14910  0.97298  0.88665  Biso   1.000  C
  C410     1.0000 0.83484  0.12540  0.06689  Biso   1.000  C
  C411     1.0000 0.02256  0.79293  0.23184  Biso   1.000  C
  C412     1.0000 0.65460  0.97460  0.76278  Biso   1.000  C
  C413     1.0000 0.32296  0.09685  0.55625  Biso   1.000  C
  C414     1.0000 0.53319  0.77415  0.43381  Biso   1.000  C
  C415     1.0000 0.35715  0.45889  0.90677  Biso   1.000  C
  C416     1.0000 0.69201  0.62402  0.07584  Biso   1.000  C
  C417     1.0000 0.51509  0.27804  0.21659  Biso   1.000  C
  C418     1.0000 0.85712  0.46690  0.74357  Biso   1.000  C
  C419     1.0000 0.20567  0.60077  0.57697  Biso   1.000  C
  C420     1.0000 0.01044  0.27808  0.42222  Biso   1.000  C
  C421     1.0000 0.88008  0.97863  0.26380  Biso   1.000  C
  C422     1.0000 0.19143  0.81493  0.06102  Biso   1.000  C
  C423     1.0000 0.01334  0.14486  0.91941  Biso   1.000  C
  C424     1.0000 0.37418  0.94489  0.39113  Biso   1.000  C
  C425     1.0000 0.70747  0.83494  0.57028  Biso   1.000  C
  C426     1.0000 0.48988  0.16365  0.71313  Biso   1.000  C
  C427     1.0000 0.67723  0.44084  0.24469  Biso   1.000  C
  C428     1.0000 0.33875  0.31811  0.09820  Biso   1.000  C
  C429     1.0000 0.49499  0.66283  0.93144  Biso   1.000  C
  C430     1.0000 0.17753  0.45152  0.40660  Biso   1.000  C
  C431     1.0000 0.83341  0.33333  0.56939  Biso   1.000  C
  C432     1.0000 0.02050  0.65157  0.72346  Biso   1.000  C
  C433     1.0000 0.00429  0.11211  0.88651  Biso   1.000  C
  C434     1.0000 0.84339  0.97701  0.23502  Biso   1.000  C
  C435     1.0000 0.15610  0.78384  0.06547  Biso   1.000  C
  C436     1.0000 0.49432  0.13336  0.74766  Biso   1.000  C
  C437     1.0000 0.33814  0.94177  0.42177  Biso   1.000  C
  C438     1.0000 0.67556  0.80048  0.57477  Biso   1.000  C
  C439     1.0000 0.49937  0.63145  0.89630  Biso   1.000  C
  C440     1.0000 0.70759  0.45073  0.21051  Biso   1.000  C
  C441     1.0000 0.37073  0.28769  0.08429  Biso   1.000  C
  C442     1.0000 0.01507  0.61854  0.75565  Biso   1.000  C
  C443     1.0000 0.20762  0.45664  0.44064  Biso   1.000  C
  C444     1.0000 0.86305  0.29822  0.57229  Biso   1.000  C
  C445     1.0000 0.02151  0.82338  0.26465  Biso   1.000  C
  C446     1.0000 0.18484  0.97066  0.91593  Biso   1.000  C
  C447     1.0000 0.87045  0.15782  0.06140  Biso   1.000  C
  C448     1.0000 0.52719  0.80551  0.40051  Biso   1.000  C
  C449     1.0000 0.68983  0.97183  0.73266  Biso   1.000  C
  C450     1.0000 0.35421  0.13171  0.55734  Biso   1.000  C
  C451     1.0000 0.52526  0.30786  0.25144  Biso   1.000  C
  C452     1.0000 0.32786  0.44946  0.94171  Biso   1.000  C
  C453     1.0000 0.65631  0.65583  0.07118  Biso   1.000  C
  C454     1.0000 0.01324  0.31171  0.38909  Biso   1.000  C
  C455     1.0000 0.82489  0.47278  0.70790  Biso   1.000  C
  C456     1.0000 0.17551  0.63424  0.57553  Biso   1.000  C
  C457     1.0000 0.02928  0.60928  0.39426  Biso   1.000  C
  C458     1.0000 0.32162  0.96229  0.71828  Biso   1.000  C
  C459     1.0000 0.66496  0.29046  0.05984  Biso   1.000  C
  C460     1.0000 0.53243  0.60235  0.26155  Biso   1.000  C
  C461     1.0000 0.81644  0.95979  0.93612  Biso   1.000  C
  C462     1.0000 0.15838  0.27087  0.58672  Biso   1.000  C
  C463     1.0000 0.52468  0.10391  0.39083  Biso   1.000  C
  C464     1.0000 0.19060  0.44889  0.73820  Biso   1.000  C
  C465     1.0000 0.85863  0.79812  0.08332  Biso   1.000  C
  C466     1.0000 0.03420  0.11872  0.24393  Biso   1.000  C
  C467     1.0000 0.68890  0.47542  0.91212  Biso   1.000  C
  C468     1.0000 0.37901  0.77044  0.57251  Biso   1.000  C
  C469     1.0000 0.01766  0.32072  0.75324  Biso   1.000  C
  C470     1.0000 0.70347  0.98010  0.43027  Biso   1.000  C
  C471     1.0000 0.35854  0.64989  0.08940  Biso   1.000  C
  C472     1.0000 0.50132  0.33349  0.88448  Biso   1.000  C
  C473     1.0000 0.20674  0.94421  0.21342  Biso   1.000  C
  C474     1.0000 0.87387  0.66303  0.57315  Biso   1.000  C
  C475     1.0000 0.50249  0.83491  0.75970  Biso   1.000  C
  C476     1.0000 0.84793  0.47711  0.40956  Biso   1.000  C
  C477     1.0000 0.16814  0.14289  0.09050  Biso   1.000  C
  C478     1.0000 0.00110  0.81396  0.89941  Biso   1.000  C
  C479     1.0000 0.34374  0.47662  0.23735  Biso   1.000  C
  C480     1.0000 0.65359  0.16118  0.58191  Biso   1.000  C
  C481     1.0000 0.39693  0.74575  0.57431  Biso   1.000  C
  C482     1.0000 0.50589  0.34992  0.85686  Biso   1.000  C
  C483     1.0000 0.81972  0.48109  0.42593  Biso   1.000  C
  C484     1.0000 0.87398  0.77062  0.07788  Biso   1.000  C
  C485     1.0000 0.01563  0.33427  0.78137  Biso   1.000  C
  C486     1.0000 0.31509  0.48165  0.22326  Biso   1.000  C
  C487     1.0000 0.13883  0.24667  0.58858  Biso   1.000  C
  C488     1.0000 0.99941  0.82865  0.87141  Biso   1.000  C
  C489     1.0000 0.73138  0.98084  0.44697  Biso   1.000  C
  C490     1.0000 0.65033  0.26266  0.06460  Biso   1.000  C
  C491     1.0000 0.49973  0.85111  0.78695  Biso   1.000  C
  C492     1.0000 0.23193  0.93641  0.19548  Biso   1.000  C
  C493     1.0000 0.63387  0.18585  0.58442  Biso   1.000  C
  C494     1.0000 0.53441  0.58436  0.28809  Biso   1.000  C
  C495     1.0000 0.21809  0.44324  0.72339  Biso   1.000  C
  C496     1.0000 0.15213  0.16977  0.09424  Biso   1.000  C
  C497     1.0000 0.03763  0.59346  0.36797  Biso   1.000  C
  C498     1.0000 0.71672  0.47373  0.92714  Biso   1.000  C
  C499     1.0000 0.89160  0.68963  0.57732  Biso   1.000  C
  C500     1.0000 0.04304  0.10520  0.27088  Biso   1.000  C
  C501     1.0000 0.29503  0.95491  0.70196  Biso   1.000  C
  C502     1.0000 0.37387  0.67685  0.09687  Biso   1.000  C
  C503     1.0000 0.51982  0.08822  0.36368  Biso   1.000  C
  C504     1.0000 0.79112  0.96053  0.95419  Biso   1.000  C
  C505     1.0000 0.63561  0.47958  0.85405  Biso   1.000  C
  C506     1.0000 0.81322  0.61507  0.56591  Biso   1.000  C
  C507     1.0000 0.51522  0.77241  0.71609  Biso   1.000  C
  C508     1.0000 0.14105  0.46232  0.79302  Biso   1.000  C
  C509     1.0000 0.30211  0.59911  0.07470  Biso   1.000  C
  C510     1.0000 0.01378  0.75872  0.95040  Biso   1.000  C
  C511     1.0000 0.86291  0.95148  0.87298  Biso   1.000  C
  C512     1.0000 0.71749  0.11866  0.58748  Biso   1.000  C
  C513     1.0000 0.02972  0.26113  0.70452  Biso   1.000  C
  C514     1.0000 0.36945  0.97861  0.77719  Biso   1.000  C
  C515     1.0000 0.22998  0.09603  0.08118  Biso   1.000  C
  C516     1.0000 0.49353  0.26928  0.92886  Biso   1.000  C
  C517     1.0000 0.39632  0.46557  0.29117  Biso   1.000  C
  C518     1.0000 0.22372  0.31401  0.58657  Biso   1.000  C
  C519     1.0000 0.53036  0.16605  0.43403  Biso   1.000  C
  C520     1.0000 0.90028  0.46256  0.35485  Biso   1.000  C
  C521     1.0000 0.72309  0.33967  0.05317  Biso   1.000  C
  C522     1.0000 0.01997  0.17894  0.19958  Biso   1.000  C
  C523     1.0000 0.16279  0.95254  0.27569  Biso   1.000  C
  C524     1.0000 0.31260  0.81132  0.57568  Biso   1.000  C
  C525     1.0000 0.00915  0.66666  0.44052  Biso   1.000  C
  C526     1.0000 0.65134  0.97208  0.37081  Biso   1.000  C
  C527     1.0000 0.79876  0.84395  0.09780  Biso   1.000  C
  C528     1.0000 0.53168  0.66539  0.21443  Biso   1.000  C
  C529     1.0000 0.80707  0.11073  0.07139  Biso   1.000  C
  C530     1.0000 0.02846  0.76597  0.21655  Biso   1.000  C
  C531     1.0000 0.13074  0.97875  0.86034  Biso   1.000  C
  C532     1.0000 0.29679  0.08101  0.55955  Biso   1.000  C
  C533     1.0000 0.53867  0.74733  0.45288  Biso   1.000  C
  C534     1.0000 0.63446  0.97398  0.78602  Biso   1.000  C
  C535     1.0000 0.71810  0.60699  0.08175  Biso   1.000  C
  C536     1.0000 0.51048  0.25164  0.20121  Biso   1.000  C
  C537     1.0000 0.36897  0.46044  0.87817  Biso   1.000  C
  C538     1.0000 0.23184  0.58118  0.57999  Biso   1.000  C
  C539     1.0000 0.01054  0.25067  0.43939  Biso   1.000  C
  C540     1.0000 0.87130  0.46414  0.77248  Biso   1.000  C
  C541     1.0000 0.21966  0.82985  0.06010  Biso   1.000  C
  C542     1.0000 0.01832  0.17268  0.93382  Biso   1.000  C
  C543     1.0000 0.89818  0.97656  0.28936  Biso   1.000  C
  C544     1.0000 0.73297  0.85207  0.56348  Biso   1.000  C
  C545     1.0000 0.48594  0.19048  0.69489  Biso   1.000  C
  C546     1.0000 0.39239  0.94946  0.36565  Biso   1.000  C
  C547     1.0000 0.31223  0.33327  0.10799  Biso   1.000  C
  C548     1.0000 0.49465  0.68878  0.94940  Biso   1.000  C
  C549     1.0000 0.66339  0.43871  0.27267  Biso   1.000  C
  C550     1.0000 0.80847  0.35204  0.56634  Biso   1.000  C
  C551     1.0000 0.01978  0.67896  0.70746  Biso   1.000  C
  C552     1.0000 0.16344  0.44667  0.37790  Biso   1.000  C
  C553     1.0000 0.99524  0.09683  0.86045  Biso   1.000  C
  C554     1.0000 0.81410  0.97694  0.22146  Biso   1.000  C
  C555     1.0000 0.13939  0.75724  0.06463  Biso   1.000  C
  C556     1.0000 0.50158  0.11963  0.77460  Biso   1.000  C
  C557     1.0000 0.31011  0.93670  0.43489  Biso   1.000  C
  C558     1.0000 0.66111  0.77193  0.57841  Biso   1.000  C
  C559     1.0000 0.49837  0.61668  0.86784  Biso   1.000  C
  C560     1.0000 0.73213  0.45847  0.19243  Biso   1.000  C
  C561     1.0000 0.38527  0.26246  0.07474  Biso   1.000  C
  C562     1.0000 0.00613  0.60227  0.78109  Biso   1.000  C
  C563     1.0000 0.23311  0.46455  0.45953  Biso   1.000  C
  C564     1.0000 0.87613  0.27007  0.57605  Biso   1.000  C
  C565     1.0000 0.02277  0.83990  0.29256  Biso   1.000  C
  C566     1.0000 0.21316  0.96718  0.92990  Biso   1.000  C
  C567     1.0000 0.88853  0.18301  0.05418  Biso   1.000  C
  C568     1.0000 0.52467  0.82128  0.37344  Biso   1.000  C
  C569     1.0000 0.71830  0.97114  0.71899  Biso   1.000  C
  C570     1.0000 0.36853  0.15956  0.55800  Biso   1.000  C
  C571     1.0000 0.53341  0.32201  0.27933  Biso   1.000  C
  C572     1.0000 0.30247  0.44540  0.95890  Biso   1.000  C
  C573     1.0000 0.63933  0.68256  0.06526  Biso   1.000  C
  C574     1.0000 0.01741  0.32868  0.36205  Biso   1.000  C
  C575     1.0000 0.79995  0.47249  0.68845  Biso   1.000  C
  C576     1.0000 0.16119  0.66212  0.57094  Biso   1.000  C
  C577     1.0000 0.31502  0.48434  0.19210  Biso   1.000  C
  C578     1.0000 0.10721  0.24882  0.58514  Biso   1.000  C
  C579     1.0000 0.52035  0.05644  0.36461  Biso   1.000  C
  C580     1.0000 0.81745  0.48743  0.45623  Biso   1.000  C
  C581     1.0000 0.61829  0.26204  0.06226  Biso   1.000  C
  C582     1.0000 0.04855  0.07421  0.26995  Biso   1.000  C
  C583     1.0000 0.22920  0.93837  0.16353  Biso   1.000  C
  C584     1.0000 0.42866  0.75112  0.57301  Biso   1.000  C
  C585     1.0000 0.03925  0.56235  0.36743  Biso   1.000  C
  C586     1.0000 0.73000  0.98376  0.47838  Biso   1.000  C
  C587     1.0000 0.90570  0.77074  0.07863  Biso   1.000  C
  C588     1.0000 0.53280  0.55336  0.28498  Biso   1.000  C
  C589     1.0000 0.71805  0.47450  0.95931  Biso   1.000  C
  C590     1.0000 0.92325  0.68758  0.57952  Biso   1.000  C
  C591     1.0000 0.49694  0.88301  0.78397  Biso   1.000  C
  C592     1.0000 0.21927  0.44332  0.69210  Biso   1.000  C
  C593     1.0000 0.40630  0.67656  0.10100  Biso   1.000  C
  C594     1.0000 0.99707  0.86003  0.86847  Biso   1.000  C
  C595     1.0000 0.79350  0.96635  0.98515  Biso   1.000  C
  C596     1.0000 0.60205  0.18040  0.58344  Biso   1.000  C
  C597     1.0000 0.01284  0.36674  0.78142  Biso   1.000  C
  C598     1.0000 0.29711  0.95306  0.67044  Biso   1.000  C
  C599     1.0000 0.12089  0.16892  0.09181  Biso   1.000  C
  C600     1.0000 0.50858  0.38194  0.86087  Biso   1.000  C
  C601     1.0000 0.21532  0.96705  0.96208  Biso   1.000  C
  C602     1.0000 0.91973  0.18174  0.05423  Biso   1.000  C
  C603     1.0000 0.02685  0.87190  0.29150  Biso   1.000  C
  C604     1.0000 0.72323  0.97229  0.68763  Biso   1.000  C
  C605     1.0000 0.39972  0.16251  0.55568  Biso   1.000  C
  C606     1.0000 0.52464  0.85159  0.37333  Biso   1.000  C
  C607     1.0000 0.30520  0.44516  0.99073  Biso   1.000  C
  C608     1.0000 0.60757  0.68042  0.06139  Biso   1.000  C
  C609     1.0000 0.53811  0.35254  0.27953  Biso   1.000  C
  C610     1.0000 0.80383  0.47286  0.65761  Biso   1.000  C
  C611     1.0000 0.13060  0.66408  0.57056  Biso   1.000  C
  C612     1.0000 0.02086  0.36021  0.36354  Biso   1.000  C
  C613     1.0000 0.81079  0.97526  0.18922  Biso   1.000  C
  C614     1.0000 0.10776  0.75872  0.07183  Biso   1.000  C
  C615     1.0000 0.99041  0.06593  0.86161  Biso   1.000  C
  C616     1.0000 0.30875  0.93167  0.46754  Biso   1.000  C
  C617     1.0000 0.62887  0.77182  0.58240  Biso   1.000  C
  C618     1.0000 0.50457  0.08703  0.77322  Biso   1.000  C
  C619     1.0000 0.72704  0.46509  0.16206  Biso   1.000  C
  C620     1.0000 0.41616  0.26450  0.06866  Biso   1.000  C
  C621     1.0000 0.49684  0.58605  0.86780  Biso   1.000  C
  C622     1.0000 0.23081  0.45886  0.49065  Biso   1.000  C
  C623     1.0000 0.90720  0.26830  0.57771  Biso   1.000  C
  C624     1.0000 0.00453  0.57129  0.78293  Biso   1.000  C
  C625     1.0000 0.02418  0.17178  0.96500  Biso   1.000  C
  C626     1.0000 0.93034  0.97574  0.28688  Biso   1.000  C
  C627     1.0000 0.22051  0.86100  0.06284  Biso   1.000  C
  C628     1.0000 0.48810  0.18845  0.66303  Biso   1.000  C
  C629     1.0000 0.42305  0.95365  0.36810  Biso   1.000  C
  C630     1.0000 0.72993  0.88293  0.55952  Biso   1.000  C
  C631     1.0000 0.49175  0.68588  0.98078  Biso   1.000  C
  C632     1.0000 0.63052  0.43700  0.27423  Biso   1.000  C
  C633     1.0000 0.31481  0.36467  0.11316  Biso   1.000  C
  C634     1.0000 0.02089  0.68061  0.67570  Biso   1.000  C
  C635     1.0000 0.13249  0.44349  0.37818  Biso   1.000  C
  C636     1.0000 0.81036  0.38315  0.56371  Biso   1.000  C
  C637     1.0000 0.02388  0.76557  0.18448  Biso   1.000  C
  C638     1.0000 0.09930  0.97962  0.86334  Biso   1.000  C
  C639     1.0000 0.80668  0.07900  0.07270  Biso   1.000  C
  C640     1.0000 0.54423  0.75081  0.48448  Biso   1.000  C
  C641     1.0000 0.60304  0.97717  0.78239  Biso   1.000  C
  C642     1.0000 0.29969  0.04969  0.56217  Biso   1.000  C
  C643     1.0000 0.51148  0.25315  0.16974  Biso   1.000  C
  C644     1.0000 0.40012  0.46992  0.87667  Biso   1.000  C
  C645     1.0000 0.71875  0.57634  0.07890  Biso   1.000  C
  C646     1.0000 0.01009  0.25159  0.47041  Biso   1.000  C
  C647     1.0000 0.90344  0.46517  0.77457  Biso   1.000  C
  C648     1.0000 0.22813  0.55086  0.58099  Biso   1.000  C
  C649     1.0000 0.00783  0.66589  0.47289  Biso   1.000  C
  C650     1.0000 0.40046  0.98105  0.77613  Biso   1.000  C
  C651     1.0000 0.72138  0.37147  0.04872  Biso   1.000  C
  C652     1.0000 0.52566  0.66672  0.18340  Biso   1.000  C
  C653     1.0000 0.89514  0.94765  0.87108  Biso   1.000  C
  C654     1.0000 0.22493  0.34617  0.58666  Biso   1.000  C
  C655     1.0000 0.52957  0.16774  0.46596  Biso   1.000  C
  C656     1.0000 0.10994  0.46937  0.79191  Biso   1.000  C
  C657     1.0000 0.79885  0.87555  0.10047  Biso   1.000  C
  C658     1.0000 0.01286  0.17895  0.17006  Biso   1.000  C
  C659     1.0000 0.60387  0.48013  0.85892  Biso   1.000  C
  C660     1.0000 0.30949  0.84280  0.57567  Biso   1.000  C
  C661     1.0000 0.03210  0.26311  0.67319  Biso   1.000  C
  C662     1.0000 0.61929  0.96993  0.37207  Biso   1.000  C
  C663     1.0000 0.30248  0.56734  0.07259  Biso   1.000  C
  C664     1.0000 0.49597  0.26795  0.96181  Biso   1.000  C
  C665     1.0000 0.13193  0.95686  0.27759  Biso   1.000  C
  C666     1.0000 0.81322  0.58419  0.56650  Biso   1.000  C
  C667     1.0000 0.51891  0.77201  0.68414  Biso   1.000  C
  C668     1.0000 0.93240  0.46559  0.35610  Biso   1.000  C
  C669     1.0000 0.23026  0.06534  0.07412  Biso   1.000  C
  C670     1.0000 0.01592  0.76105  0.98076  Biso   1.000  C
  C671     1.0000 0.42729  0.46019  0.28951  Biso   1.000  C
  C672     1.0000 0.72058  0.08777  0.59199  Biso   1.000  C
  C673     1.0000 0.19718  0.97569  0.86940  Biso   1.000  C
  C674     1.0000 0.82508  0.17405  0.06198  Biso   1.000  C
  C675     1.0000 0.02310  0.77672  0.27923  Biso   1.000  C
  C676     1.0000 0.69943  0.96155  0.78004  Biso   1.000  C
  C677     1.0000 0.30689  0.14204  0.56088  Biso   1.000  C
  C678     1.0000 0.52994  0.75809  0.38896  Biso   1.000  C
  C679     1.0000 0.30964  0.45180  0.89503  Biso   1.000  C
  C680     1.0000 0.70188  0.67148  0.08008  Biso   1.000  C
  C681     1.0000 0.51805  0.26141  0.26158  Biso   1.000  C
  C682     1.0000 0.80940  0.47143  0.75454  Biso   1.000  C
  C683     1.0000 0.22282  0.64626  0.57746  Biso   1.000  C
  C684     1.0000 0.01392  0.26604  0.37340  Biso   1.000  C
  C685     1.0000 0.83296  0.97791  0.28156  Biso   1.000  C
  C686     1.0000 0.20355  0.76673  0.06069  Biso   1.000  C
  C687     1.0000 0.00829  0.15856  0.87054  Biso   1.000  C
  C688     1.0000 0.32652  0.94228  0.37442  Biso   1.000  C
  C689     1.0000 0.72365  0.78814  0.56735  Biso   1.000  C
  C690     1.0000 0.48694  0.17956  0.75976  Biso   1.000  C
  C691     1.0000 0.72581  0.44913  0.25531  Biso   1.000  C
  C692     1.0000 0.32362  0.27204  0.09005  Biso   1.000  C
  C693     1.0000 0.49801  0.67792  0.88372  Biso   1.000  C
  C694     1.0000 0.22418  0.45949  0.39392  Biso   1.000  C
  C695     1.0000 0.81415  0.28601  0.56994  Biso   1.000  C
  C696     1.0000 0.01449  0.66318  0.77289  Biso   1.000  C
  C697     1.0000 0.71835  0.97803  0.38549  Biso   1.000  C
  C698     1.0000 0.31184  0.66151  0.08111  Biso   1.000  C
  C699     1.0000 0.01908  0.27165  0.76641  Biso   1.000  C
  C700     1.0000 0.22293  0.94223  0.25958  Biso   1.000  C
  C701     1.0000 0.82640  0.67863  0.56795  Biso   1.000  C
  C702     1.0000 0.48979  0.28671  0.86863  Biso   1.000  C
  C703     1.0000 0.83476  0.46950  0.36314  Biso   1.000  C
  C704     1.0000 0.21616  0.15852  0.08953  Biso   1.000  C
  C705     1.0000 0.50448  0.78987  0.77638  Biso   1.000  C
  C706     1.0000 0.33302  0.47382  0.28520  Biso   1.000  C
  C707     1.0000 0.69765  0.18100  0.58211  Biso   1.000  C
  C708     1.0000 0.00589  0.76727  0.88593  Biso   1.000  C
  C709     1.0000 0.30558  0.96909  0.76516  Biso   1.000  C
  C710     1.0000 0.71220  0.27728  0.06107  Biso   1.000  C
  C711     1.0000 0.02710  0.65731  0.38077  Biso   1.000  C
  C712     1.0000 0.80203  0.95308  0.88916  Biso   1.000  C
  C713     1.0000 0.20411  0.25258  0.58843  Biso   1.000  C
  C714     1.0000 0.53573  0.64801  0.27739  Biso   1.000  C
  C715     1.0000 0.20425  0.45378  0.78649  Biso   1.000  C
  C716     1.0000 0.81107  0.78291  0.08649  Biso   1.000  C
  C717     1.0000 0.52527  0.15178  0.37539  Biso   1.000  C
  C718     1.0000 0.69925  0.47397  0.86273  Biso   1.000  C
  C719     1.0000 0.33345  0.75152  0.57065  Biso   1.000  C
  C720     1.0000 0.02705  0.16520  0.25985  Biso   1.000  C
  C721     1.0000 0.54789  0.76208  0.36186  Biso   1.000  C
  C722     1.0000 0.30458  0.47599  0.87549  Biso   1.000  C
  C723     1.0000 0.78589  0.29116  0.58403  Biso   1.000  C
  C724     1.0000 0.00488  0.74949  0.27621  Biso   1.000  C
  C725     1.0000 0.78683  0.49262  0.75339  Biso   1.000  C
  C726     1.0000 0.29396  0.27631  0.08217  Biso   1.000  C
  C727     1.0000 0.00261  0.27220  0.34572  Biso   1.000  C
  C728     1.0000 0.22563  0.98924  0.87433  Biso   1.000  C
  C729     1.0000 0.75379  0.79166  0.57696  Biso   1.000  C
  C730     1.0000 0.50333  0.26420  0.29005  Biso   1.000  C
  C731     1.0000 0.72310  0.94069  0.77467  Biso   1.000  C
  C732     1.0000 0.22596  0.76339  0.03919  Biso   1.000  C
  C733     1.0000 0.47347  0.17191  0.78828  Biso   1.000  C
  C734     1.0000 0.73079  0.42907  0.28014  Biso   1.000  C
  C735     1.0000 0.22065  0.67321  0.59424  Biso   1.000  C
  C736     1.0000 0.99750  0.18771  0.87616  Biso   1.000  C
  C737     1.0000 0.25203  0.44756  0.39927  Biso   1.000  C
  C738     1.0000 0.69567  0.69959  0.09233  Biso   1.000  C
  C739     1.0000 0.03068  0.65668  0.79977  Biso   1.000  C
  C740     1.0000 0.80775  0.95821  0.27879  Biso   1.000  C
  C741     1.0000 0.27860  0.14271  0.54568  Biso   1.000  C
  C742     1.0000 0.51504  0.67609  0.85671  Biso   1.000  C
  C743     1.0000 0.33547  0.92912  0.34889  Biso   1.000  C
  C744     1.0000 0.83005  0.20405  0.07093  Biso   1.000  C
  C745     1.0000 0.04217  0.68383  0.38598  Biso   1.000  C
  C746     1.0000 0.27845  0.98035  0.75590  Biso   1.000  C
  C747     1.0000 0.73746  0.28112  0.08150  Biso   1.000  C
  C748     1.0000 0.55362  0.67487  0.27712  Biso   1.000  C
  C749     1.0000 0.77520  0.93765  0.89682  Biso   1.000  C
  C750     1.0000 0.23324  0.25139  0.60187  Biso   1.000  C
  C751     1.0000 0.54292  0.14828  0.34903  Biso   1.000  C
  C752     1.0000 0.19486  0.43795  0.81197  Biso   1.000  C
  C753     1.0000 0.78153  0.79005  0.07708  Biso   1.000  C
  C754     1.0000 0.04824  0.16711  0.28269  Biso   1.000  C
  C755     1.0000 0.69618  0.49166  0.83734  Biso   1.000  C
  C756     1.0000 0.30633  0.75437  0.55299  Biso   1.000  C
  C757     1.0000 0.00279  0.24405  0.75886  Biso   1.000  C
  C758     1.0000 0.71736  0.95850  0.36055  Biso   1.000  C
  C759     1.0000 0.28208  0.65626  0.09233  Biso   1.000  C
  C760     1.0000 0.50424  0.25674  0.86963  Biso   1.000  C
  C761     1.0000 0.25222  0.95328  0.25465  Biso   1.000  C
  C762     1.0000 0.83373  0.70588  0.55414  Biso   1.000  C
  C763     1.0000 0.48237  0.79076  0.79856  Biso   1.000  C
  C764     1.0000 0.80593  0.45623  0.36809  Biso   1.000  C
  C765     1.0000 0.24164  0.15607  0.10914  Biso   1.000  C
  C766     1.0000 0.98487  0.76610  0.86281  Biso   1.000  C
  C767     1.0000 0.33638  0.49177  0.31131  Biso   1.000  C
  C768     1.0000 0.69066  0.20784  0.56524  Biso   1.000  C
  C769     1.0000 0.47861  0.70277  0.88528  Biso   1.000  C
  C770     1.0000 0.80694  0.44997  0.77767  Biso   1.000  C
  C771     1.0000 0.71622  0.76231  0.54945  Biso   1.000  C
  C772     1.0000 0.99459  0.68691  0.77127  Biso   1.000  C
  C773     1.0000 0.28941  0.42691  0.89488  Biso   1.000  C
  C774     1.0000 0.20464  0.74630  0.08454  Biso   1.000  C
  C775     1.0000 0.02011  0.15306  0.84139  Biso   1.000  C
  C776     1.0000 0.69409  0.96904  0.81068  Biso   1.000  C
  C777     1.0000 0.81393  0.25790  0.55401  Biso   1.000  C
  C778     1.0000 0.49837  0.21013  0.75450  Biso   1.000  C
  C779     1.0000 0.19152  0.96407  0.84116  Biso   1.000  C
  C780     1.0000 0.33120  0.24413  0.10220  Biso   1.000  C
  C781     1.0000 0.53492  0.23484  0.25833  Biso   1.000  C
  C782     1.0000 0.21776  0.47376  0.36476  Biso   1.000  C
  C783     1.0000 0.31142  0.16134  0.58541  Biso   1.000  C
  C784     1.0000 0.03127  0.23916  0.37747  Biso   1.000  C
  C785     1.0000 0.74500  0.47411  0.25262  Biso   1.000  C
  C786     1.0000 0.79648  0.16805  0.04988  Biso   1.000  C
  C787     1.0000 0.04192  0.77711  0.30427  Biso   1.000  C
  C788     1.0000 0.29814  0.95824  0.37439  Biso   1.000  C
  C789     1.0000 0.24960  0.64114  0.56195  Biso   1.000  C
  C790     1.0000 0.51429  0.73012  0.39162  Biso   1.000  C
  C791     1.0000 0.83608  0.99409  0.30922  Biso   1.000  C
  C792     1.0000 0.73131  0.66882  0.07001  Biso   1.000  C
  C793     1.0000 0.50594  0.17628  0.37572  Biso   1.000  C
  C794     1.0000 0.30725  0.45424  0.28235  Biso   1.000  C
  C795     1.0000 0.19525  0.22852  0.56987  Biso   1.000  C
  C796     1.0000 0.00266  0.18683  0.25842  Biso   1.000  C
  C797     1.0000 0.84133  0.47616  0.33186  Biso   1.000  C
  C798     1.0000 0.71052  0.25137  0.04321  Biso   1.000  C
  C799     1.0000 0.01567  0.65404  0.35039  Biso   1.000  C
  C800     1.0000 0.21699  0.92835  0.28679  Biso   1.000  C
  C801     1.0000 0.33836  0.72589  0.58899  Biso   1.000  C
  C802     1.0000 0.52143  0.64268  0.30365  Biso   1.000  C
  C803     1.0000 0.74391  0.99804  0.38726  Biso   1.000  C
  C804     1.0000 0.81690  0.75374  0.09904  Biso   1.000  C
  C805     1.0000 0.52580  0.76687  0.77720  Biso   1.000  C
  C806     1.0000 0.72399  0.45453  0.86403  Biso   1.000  C
  C807     1.0000 0.79666  0.67523  0.57849  Biso   1.000  C
  C808     1.0000 0.02981  0.74603  0.88624  Biso   1.000  C
  C809     1.0000 0.23266  0.46587  0.78468  Biso   1.000  C
  C810     1.0000 0.31926  0.68813  0.06569  Biso   1.000  C
  C811     1.0000 0.02972  0.27369  0.79663  Biso   1.000  C
  C812     1.0000 0.80643  0.96052  0.85900  Biso   1.000  C
  C813     1.0000 0.72690  0.17944  0.59615  Biso   1.000  C
  C814     1.0000 0.47053  0.29327  0.84446  Biso   1.000  C
  C815     1.0000 0.31016  0.95830  0.79412  Biso   1.000  C
  C816     1.0000 0.21206  0.18568  0.07197  Biso   1.000  C
  C817     1.0000 0.99781  0.20894  0.85388  Biso   1.000  C
  C818     1.0000 0.78682  0.95708  0.30067  Biso   1.000  C
  C819     1.0000 0.24821  0.74233  0.04118  Biso   1.000  C
  C820     1.0000 0.47097  0.19337  0.80959  Biso   1.000  C
  C821     1.0000 0.31610  0.93066  0.32601  Biso   1.000  C
  C822     1.0000 0.77339  0.76979  0.57328  Biso   1.000  C
  C823     1.0000 0.51237  0.69564  0.83361  Biso   1.000  C
  C824     1.0000 0.75142  0.43447  0.30069  Biso   1.000  C
  C825     1.0000 0.27405  0.25411  0.08387  Biso   1.000  C
  C826     1.0000 0.02746  0.67557  0.82240  Biso   1.000  C
  C827     1.0000 0.27328  0.45099  0.37877  Biso   1.000  C
  C828     1.0000 0.76168  0.27280  0.58250  Biso   1.000  C
  C829     1.0000 0.00625  0.72809  0.29672  Biso   1.000  C
  C830     1.0000 0.24583  0.99025  0.85337  Biso   1.000  C
  C831     1.0000 0.80805  0.22430  0.07240  Biso   1.000  C
  C832     1.0000 0.55136  0.73905  0.34220  Biso   1.000  C
  C833     1.0000 0.73982  0.93104  0.79697  Biso   1.000  C
  C834     1.0000 0.25806  0.16318  0.55185  Biso   1.000  C
  C835     1.0000 0.50315  0.24155  0.30959  Biso   1.000  C
  C836     1.0000 0.27973  0.47584  0.85825  Biso   1.000  C
  C837     1.0000 0.71619  0.72251  0.09147  Biso   1.000  C
  C838     1.0000 0.00479  0.25203  0.32345  Biso   1.000  C
  C839     1.0000 0.76409  0.49298  0.77271  Biso   1.000  C
  C840     1.0000 0.24324  0.69283  0.59397  Biso   1.000  C
  C841     1.0000 0.21306  0.96478  0.82018  Biso   1.000  C
  C842     1.0000 0.77394  0.18806  0.05266  Biso   1.000  C
  C843     1.0000 0.04485  0.75322  0.32349  Biso   1.000  C
  C844     1.0000 0.71243  0.95852  0.83258  Biso   1.000  C
  C845     1.0000 0.28872  0.17810  0.59189  Biso   1.000  C
  C846     1.0000 0.51853  0.70954  0.37098  Biso   1.000  C
  C847     1.0000 0.26888  0.42468  0.87225  Biso   1.000  C
  C848     1.0000 0.75188  0.69083  0.07156  Biso   1.000  C
  C849     1.0000 0.53700  0.21331  0.27961  Biso   1.000  C
  C850     1.0000 0.78230  0.44959  0.79617  Biso   1.000  C
  C851     1.0000 0.27135  0.66184  0.56373  Biso   1.000  C
  C852     1.0000 0.03301  0.22034  0.35371  Biso   1.000  C
  C853     1.0000 0.81315  0.99283  0.32785  Biso   1.000  C
  C854     1.0000 0.22661  0.72690  0.08751  Biso   1.000  C
  C855     1.0000 0.02247  0.17482  0.82168  Biso   1.000  C
  C856     1.0000 0.27930  0.95762  0.35132  Biso   1.000  C
  C857     1.0000 0.73711  0.74055  0.54571  Biso   1.000  C
  C858     1.0000 0.49247  0.23056  0.77674  Biso   1.000  C
  C859     1.0000 0.76656  0.47660  0.27274  Biso   1.000  C
  C860     1.0000 0.31166  0.22154  0.10238  Biso   1.000  C
  C861     1.0000 0.47692  0.72254  0.86188  Biso   1.000  C
  C862     1.0000 0.24047  0.47740  0.34579  Biso   1.000  C
  C863     1.0000 0.79000  0.23908  0.55387  Biso   1.000  C
  C864     1.0000 0.99261  0.70450  0.79561  Biso   1.000  C
  C865     1.0000 0.71487  0.48901  0.81391  Biso   1.000  C
  C866     1.0000 0.81291  0.72699  0.55012  Biso   1.000  C
  C867     1.0000 0.48011  0.76808  0.81834  Biso   1.000  C
  C868     1.0000 0.21642  0.43558  0.83375  Biso   1.000  C
  C869     1.0000 0.26134  0.67615  0.08529  Biso   1.000  C
  C870     1.0000 0.98700  0.74459  0.84187  Biso   1.000  C
  C871     1.0000 0.75303  0.93216  0.87693  Biso   1.000  C
  C872     1.0000 0.71164  0.22885  0.56061  Biso   1.000  C
  C873     1.0000 0.00148  0.22209  0.78013  Biso   1.000  C
  C874     1.0000 0.25877  0.98533  0.77692  Biso   1.000  C
  C875     1.0000 0.26047  0.17917  0.11077  Biso   1.000  C
  C876     1.0000 0.49779  0.23639  0.84867  Biso   1.000  C
  C877     1.0000 0.31447  0.48668  0.33499  Biso   1.000  C
  C878     1.0000 0.25246  0.22953  0.59846  Biso   1.000  C
  C879     1.0000 0.54131  0.16865  0.32633  Biso   1.000  C
  C880     1.0000 0.78554  0.45499  0.34616  Biso   1.000  C
  C881     1.0000 0.75949  0.26052  0.08134  Biso   1.000  C
  C882     1.0000 0.04688  0.18886  0.30373  Biso   1.000  C
  C883     1.0000 0.27442  0.95237  0.27567  Biso   1.000  C
  C884     1.0000 0.28509  0.73146  0.55649  Biso   1.000  C
  C885     1.0000 0.03968  0.70625  0.36774  Biso   1.000  C
  C886     1.0000 0.74082  0.95660  0.34187  Biso   1.000  C
  C887     1.0000 0.76015  0.76818  0.07590  Biso   1.000  C
  C888     1.0000 0.55146  0.69446  0.29866  Biso   1.000  C
  C889     1.0000 0.76712  0.99375  0.36824  Biso   1.000  C
  C890     1.0000 0.29657  0.70754  0.06128  Biso   1.000  C
  C891     1.0000 0.02621  0.25063  0.81528  Biso   1.000  C
  C892     1.0000 0.23778  0.92957  0.30931  Biso   1.000  C
  C893     1.0000 0.77597  0.69721  0.57480  Biso   1.000  C
  C894     1.0000 0.46569  0.27106  0.82323  Biso   1.000  C
  C895     1.0000 0.82012  0.47513  0.31038  Biso   1.000  C
  C896     1.0000 0.23314  0.20765  0.07405  Biso   1.000  C
  C897     1.0000 0.52167  0.74533  0.79732  Biso   1.000  C
  C898     1.0000 0.28686  0.45164  0.30430  Biso   1.000  C
  C899     1.0000 0.74763  0.20054  0.58837  Biso   1.000  C
  C900     1.0000 0.03007  0.72460  0.86535  Biso   1.000  C
  C901     1.0000 0.28967  0.96389  0.81533  Biso   1.000  C
  C902     1.0000 0.73272  0.23166  0.04423  Biso   1.000  C
  C903     1.0000 0.01681  0.67694  0.33091  Biso   1.000  C
  C904     1.0000 0.78400  0.95442  0.83969  Biso   1.000  C
  C905     1.0000 0.21526  0.20610  0.56758  Biso   1.000  C
  C906     1.0000 0.51920  0.66284  0.32553  Biso   1.000  C
  C907     1.0000 0.25244  0.46495  0.80631  Biso   1.000  C
  C908     1.0000 0.79469  0.73420  0.09596  Biso   1.000  C
  C909     1.0000 0.50399  0.19535  0.35225  Biso   1.000  C
  C910     1.0000 0.74367  0.45380  0.84177  Biso   1.000  C
  C911     1.0000 0.31597  0.70530  0.59160  Biso   1.000  C
  C912     1.0000 0.00151  0.20712  0.28123  Biso   1.000  C
  C913     1.0000 0.76128  0.47045  0.79437  Biso   1.000  C
  C914     1.0000 0.76550  0.74514  0.55791  Biso   1.000  C
  C915     1.0000 0.49512  0.72039  0.83768  Biso   1.000  C
  C916     1.0000 0.26353  0.44966  0.85500  Biso   1.000  C
  C917     1.0000 0.24689  0.72475  0.06597  Biso   1.000  C
  C918     1.0000 0.00990  0.70078  0.82044  Biso   1.000  C
  C919     1.0000 0.73508  0.94083  0.82536  Biso   1.000  C
  C920     1.0000 0.76315  0.24712  0.56661  Biso   1.000  C
  C921     1.0000 0.01132  0.20186  0.82755  Biso   1.000  C
  C922     1.0000 0.23815  0.97987  0.82525  Biso   1.000  C
  C923     1.0000 0.28201  0.22619  0.09208  Biso   1.000  C
  C924     1.0000 0.47880  0.22129  0.80199  Biso   1.000  C
  C925     1.0000 0.26865  0.46507  0.35113  Biso   1.000  C
  C926     1.0000 0.26346  0.18185  0.57607  Biso   1.000  C
  C927     1.0000 0.52076  0.21625  0.30485  Biso   1.000  C
  C928     1.0000 0.76950  0.45817  0.29657  Biso   1.000  C
  C929     1.0000 0.78051  0.21531  0.06400  Biso   1.000  C
  C930     1.0000 0.02097  0.22748  0.32733  Biso   1.000  C
  C931     1.0000 0.28834  0.94229  0.32676  Biso   1.000  C
  C932     1.0000 0.26803  0.68693  0.57914  Biso   1.000  C
  C933     1.0000 0.02681  0.72839  0.32004  Biso   1.000  C
  C934     1.0000 0.78870  0.97435  0.32467  Biso   1.000  C
  C935     1.0000 0.74401  0.71766  0.08301  Biso   1.000  C
  C936     1.0000 0.53634  0.71277  0.34627  Biso   1.000  C
  C937     1.0000 0.75631  0.23582  0.06293  Biso   1.000  C
  C938     1.0000 0.02878  0.70261  0.34008  Biso   1.000  C
  C939     1.0000 0.26267  0.97761  0.80542  Biso   1.000  C
  C940     1.0000 0.24293  0.20620  0.58142  Biso   1.000  C
  C941     1.0000 0.53437  0.69021  0.32281  Biso   1.000  C
  C942     1.0000 0.75847  0.94003  0.84869  Biso   1.000  C
  C943     1.0000 0.76783  0.73987  0.08487  Biso   1.000  C
  C944     1.0000 0.52325  0.19305  0.32820  Biso   1.000  C
  C945     1.0000 0.24423  0.44924  0.83061  Biso   1.000  C
  C946     1.0000 0.29102  0.70813  0.57542  Biso   1.000  C
  C947     1.0000 0.02143  0.20694  0.30362  Biso   1.000  C
  C948     1.0000 0.73905  0.47060  0.81676  Biso   1.000  C
  C949     1.0000 0.26863  0.70189  0.07075  Biso   1.000  C
  C950     1.0000 0.01224  0.22561  0.80721  Biso   1.000  C
  C951     1.0000 0.76621  0.97273  0.34642  Biso   1.000  C
  C952     1.0000 0.78576  0.72174  0.56029  Biso   1.000  C
  C953     1.0000 0.47745  0.24327  0.82735  Biso   1.000  C
  C954     1.0000 0.26673  0.94074  0.30342  Biso   1.000  C
  C955     1.0000 0.25798  0.20343  0.09288  Biso   1.000  C
  C956     1.0000 0.49958  0.74540  0.81760  Biso   1.000  C
  C957     1.0000 0.79195  0.46417  0.31752  Biso   1.000  C
  C958     1.0000 0.74038  0.22338  0.56873  Biso   1.000  C
  C959     1.0000 0.00791  0.72298  0.84376  Biso   1.000  C
  C960     1.0000 0.29105  0.46718  0.32959  Biso   1.000  C
  Cu1      1.0000 0.01094  0.47038  0.73033  Biso   1.000  Cu
  Cu2      1.0000 0.67222  0.97921  0.57975  Biso   1.000  Cu
  Cu3      1.0000 0.50701  0.62421  0.07602  Biso   1.000  Cu
  Cu4      1.0000 0.50849  0.48179  0.92187  Biso   1.000  Cu
  Cu5      1.0000 0.16952  0.96412  0.06720  Biso   1.000  Cu
  Cu6      1.0000 0.01993  0.61994  0.57742  Biso   1.000  Cu
  Cu7      1.0000 0.50178  0.98386  0.72124  Biso   1.000  Cu
  Cu8      1.0000 0.86975  0.48331  0.56060  Biso   1.000  Cu
  Cu9      1.0000 0.01928  0.12016  0.06860  Biso   1.000  Cu
  Cu10     1.0000 0.99770  0.96512  0.91844  Biso   1.000  Cu
  Cu11     1.0000 0.36171  0.46898  0.09044  Biso   1.000  Cu
  Cu12     1.0000 0.50680  0.12071  0.56771  Biso   1.000  Cu
  Cu13     1.0000 0.02858  0.46223  0.42036  Biso   1.000  Cu
  Cu14     1.0000 0.35808  0.95061  0.57149  Biso   1.000  Cu
  Cu15     1.0000 0.51881  0.31377  0.06746  Biso   1.000  Cu
  Cu16     1.0000 0.52490  0.45355  0.22912  Biso   1.000  Cu
  Cu17     1.0000 0.85776  0.97557  0.08534  Biso   1.000  Cu
  Cu18     1.0000 0.01519  0.31147  0.56823  Biso   1.000  Cu
  Cu19     1.0000 0.52193  0.95553  0.42692  Biso   1.000  Cu
  Cu20     1.0000 0.17031  0.44847  0.58528  Biso   1.000  Cu
  Cu21     1.0000 0.01170  0.81986  0.08092  Biso   1.000  Cu
  Cu22     1.0000 0.02841  0.96843  0.22823  Biso   1.000  Cu
  Cu23     1.0000 0.66768  0.47351  0.06212  Biso   1.000  Cu
  Cu24     1.0000 0.52540  0.81904  0.57882  Biso   1.000  Cu
  Cu25     1.0000 0.22548  0.96430  0.06372  Biso   1.000  Cu
  Cu26     1.0000 0.02423  0.17493  0.06320  Biso   1.000  Cu
  Cu27     1.0000 0.03188  0.97427  0.28136  Biso   1.000  Cu
  Cu28     1.0000 0.72733  0.98356  0.58325  Biso   1.000  Cu
  Cu29     1.0000 0.50059  0.17485  0.56009  Biso   1.000  Cu
  Cu30     1.0000 0.52220  0.95442  0.37216  Biso   1.000  Cu
  Cu31     1.0000 0.30787  0.46499  0.09077  Biso   1.000  Cu
  Cu32     1.0000 0.50878  0.67585  0.08134  Biso   1.000  Cu
  Cu33     1.0000 0.52816  0.45220  0.28347  Biso   1.000  Cu
  Cu34     1.0000 0.81359  0.48347  0.55689  Biso   1.000  Cu
  Cu35     1.0000 0.02809  0.67458  0.57366  Biso   1.000  Cu
  Cu36     1.0000 0.03303  0.45887  0.36625  Biso   1.000  Cu
  Cu37     1.0000 0.80255  0.97873  0.08805  Biso   1.000  Cu
  Cu38     1.0000 0.00735  0.76488  0.08402  Biso   1.000  Cu
  Cu39     1.0000 0.99705  0.96363  0.86443  Biso   1.000  Cu
  Cu40     1.0000 0.30251  0.94566  0.57001  Biso   1.000  Cu
  Cu41     1.0000 0.52605  0.76350  0.58468  Biso   1.000  Cu
  Cu42     1.0000 0.50317  0.98701  0.77651  Biso   1.000  Cu
  Cu43     1.0000 0.72193  0.47442  0.06294  Biso   1.000  Cu
  Cu44     1.0000 0.51560  0.26067  0.06281  Biso   1.000  Cu
  Cu45     1.0000 0.50283  0.48226  0.86726  Biso   1.000  Cu
  Cu46     1.0000 0.22476  0.44981  0.59016  Biso   1.000  Cu
  Cu47     1.0000 0.00801  0.25817  0.57331  Biso   1.000  Cu
  Cu48     1.0000 0.00549  0.46749  0.78318  Biso   1.000  Cu
  H1       1.0000 0.26530  0.72888  0.54622  Biso   1.000  H
  H2       1.0000 0.50588  0.21403  0.84815  Biso   1.000  H
  H3       1.0000 0.76316  0.45031  0.35063  Biso   1.000  H
  H4       1.0000 0.73868  0.77306  0.06841  Biso   1.000  H
  H5       1.0000 0.99167  0.20170  0.77278  Biso   1.000  H
  H6       1.0000 0.31272  0.49979  0.35324  Biso   1.000  H
  H7       1.0000 0.27416  0.23249  0.60646  Biso   1.000  H
  H8       1.0000 0.97001  0.74164  0.82638  Biso   1.000  H
  H9       1.0000 0.74045  0.93960  0.32634  Biso   1.000  H
  H10      1.0000 0.77712  0.26479  0.09801  Biso   1.000  H
  H11      1.0000 0.46161  0.76942  0.83403  Biso   1.000  H
  H12      1.0000 0.29682  0.96044  0.27021  Biso   1.000  H
  H13      1.0000 0.71002  0.24894  0.54895  Biso   1.000  H
  H14      1.0000 0.57059  0.71082  0.29764  Biso   1.000  H
  H15      1.0000 0.21302  0.42285  0.85275  Biso   1.000  H
  H16      1.0000 0.27933  0.17677  0.12359  Biso   1.000  H
  H17      1.0000 0.04932  0.72687  0.37276  Biso   1.000  H
  H18      1.0000 0.71159  0.50293  0.79542  Biso   1.000  H
  H19      1.0000 0.81956  0.74757  0.53861  Biso   1.000  H
  H20      1.0000 0.06413  0.19296  0.31815  Biso   1.000  H
  H21      1.0000 0.23638  0.99089  0.76895  Biso   1.000  H
  H22      1.0000 0.23880  0.67220  0.09044  Biso   1.000  H
  H23      1.0000 0.55587  0.16752  0.30834  Biso   1.000  H
  H24      1.0000 0.73323  0.92190  0.88403  Biso   1.000  H
  H25      1.0000 0.26790  0.99827  0.85737  Biso   1.000  H
  H26      1.0000 0.81251  0.24561  0.08232  Biso   1.000  H
  H27      1.0000 0.98946  0.71102  0.29482  Biso   1.000  H
  H28      1.0000 0.75725  0.91590  0.79208  Biso   1.000  H
  H29      1.0000 0.23772  0.16334  0.53961  Biso   1.000  H
  H30      1.0000 0.56835  0.74275  0.32583  Biso   1.000  H
  H31      1.0000 0.27154  0.49422  0.84479  Biso   1.000  H
  H32      1.0000 0.71052  0.74244  0.10114  Biso   1.000  H
  H33      1.0000 0.49207  0.24281  0.33028  Biso   1.000  H
  H34      1.0000 0.74786  0.50964  0.77002  Biso   1.000  H
  H35      1.0000 0.24248  0.71190  0.60691  Biso   1.000  H
  H36      1.0000 0.99596  0.25836  0.30249  Biso   1.000  H
  H37      1.0000 0.77007  0.94195  0.29883  Biso   1.000  H
  H38      1.0000 0.26689  0.74003  0.02645  Biso   1.000  H
  H39      1.0000 0.98949  0.23032  0.85685  Biso   1.000  H
  H40      1.0000 0.32337  0.91954  0.30601  Biso   1.000  H
  H41      1.0000 0.79339  0.77099  0.58451  Biso   1.000  H
  H42      1.0000 0.46369  0.18650  0.83134  Biso   1.000  H
  H43      1.0000 0.75197  0.41719  0.31905  Biso   1.000  H
  H44      1.0000 0.25224  0.26135  0.08095  Biso   1.000  H
  H45      1.0000 0.52482  0.69377  0.81439  Biso   1.000  H
  H46      1.0000 0.29491  0.44025  0.38436  Biso   1.000  H
  H47      1.0000 0.74161  0.27662  0.59240  Biso   1.000  H
  H48      1.0000 0.03891  0.66993  0.84294  Biso   1.000  H
  H49      1.0000 0.23659  0.48857  0.32541  Biso   1.000  H
  H50      1.0000 0.29485  0.19368  0.60901  Biso   1.000  H
  H51      1.0000 0.55000  0.19381  0.27524  Biso   1.000  H
  H52      1.0000 0.78334  0.49322  0.26859  Biso   1.000  H
  H53      1.0000 0.75399  0.18270  0.04386  Biso   1.000  H
  H54      1.0000 0.04257  0.19926  0.35644  Biso   1.000  H
  H55      1.0000 0.26100  0.97243  0.35254  Biso   1.000  H
  H56      1.0000 0.29014  0.65788  0.54841  Biso   1.000  H
  H57      1.0000 0.06146  0.75630  0.34039  Biso   1.000  H
  H58      1.0000 0.81779  0.00230  0.34899  Biso   1.000  H
  H59      1.0000 0.77472  0.68533  0.06815  Biso   1.000  H
  H60      1.0000 0.50355  0.68874  0.37396  Biso   1.000  H
  H61      1.0000 0.78248  0.43077  0.81050  Biso   1.000  H
  H62      1.0000 0.73212  0.72090  0.53333  Biso   1.000  H
  H63      1.0000 0.46197  0.74052  0.86591  Biso   1.000  H
  H64      1.0000 0.25319  0.40654  0.86903  Biso   1.000  H
  H65      1.0000 0.22628  0.71301  0.10591  Biso   1.000  H
  H66      1.0000 0.98118  0.72408  0.79510  Biso   1.000  H
  H67      1.0000 0.70992  0.96721  0.85378  Biso   1.000  H
  H68      1.0000 0.78935  0.21904  0.54162  Biso   1.000  H
  H69      1.0000 0.03149  0.16926  0.79994  Biso   1.000  H
  H70      1.0000 0.21029  0.95548  0.79876  Biso   1.000  H
  H71      1.0000 0.31716  0.20087  0.10913  Biso   1.000  H
  H72      1.0000 0.50347  0.25216  0.77407  Biso   1.000  H
  H73      1.0000 0.76132  0.44083  0.84430  Biso   1.000  H
  H74      1.0000 0.75409  0.69304  0.57987  Biso   1.000  H
  H75      1.0000 0.53782  0.72956  0.79829  Biso   1.000  H
  H76      1.0000 0.27249  0.47641  0.80336  Biso   1.000  H
  H77      1.0000 0.29960  0.72817  0.04995  Biso   1.000  H
  H78      1.0000 0.04682  0.70743  0.86653  Biso   1.000  H
  H79      1.0000 0.78591  0.96231  0.81749  Biso   1.000  H
  H80      1.0000 0.77050  0.19889  0.59724  Biso   1.000  H
  H81      1.0000 0.03292  0.25161  0.83717  Biso   1.000  H
  H82      1.0000 0.29364  0.96007  0.83744  Biso   1.000  H
  H83      1.0000 0.22831  0.22678  0.06079  Biso   1.000  H
  H84      1.0000 0.44955  0.27242  0.80628  Biso   1.000  H
  H85      1.0000 0.26810  0.43745  0.30478  Biso   1.000  H
  H86      1.0000 0.20835  0.18860  0.55312  Biso   1.000  H
  H87      1.0000 0.48849  0.21271  0.35270  Biso   1.000  H
  H88      1.0000 0.82436  0.48501  0.28777  Biso   1.000  H
  H89      1.0000 0.73226  0.21537  0.02698  Biso   1.000  H
  H90      1.0000 0.98272  0.22114  0.28273  Biso   1.000  H
  H91      1.0000 0.23395  0.91945  0.32934  Biso   1.000  H
  H92      1.0000 0.31736  0.68711  0.60671  Biso   1.000  H
  H93      1.0000 0.00753  0.67400  0.30943  Biso   1.000  H
  H94      1.0000 0.78651  0.00941  0.37218  Biso   1.000  H
  H95      1.0000 0.79860  0.71180  0.10287  Biso   1.000  H
  H96      1.0000 0.51174  0.65571  0.34662  Biso   1.000  H
  H97      1.0000 0.87056  0.96618  0.99335  Biso   1.000  H
  H98      1.0000 0.91734  0.84664  0.09347  Biso   1.000  H
  H99      1.0000 0.00499  0.87539  0.94328  Biso   1.000  H
  H100     1.0000 0.37186  0.96253  0.66177  Biso   1.000  H
  H101     1.0000 0.42910  0.82700  0.57611  Biso   1.000  H
  H102     1.0000 0.49840  0.88910  0.70690  Biso   1.000  H
  H103     1.0000 0.64421  0.47546  0.97530  Biso   1.000  H
  H104     1.0000 0.60704  0.33654  0.06106  Biso   1.000  H
  H105     1.0000 0.51250  0.38839  0.93518  Biso   1.000  H
  H106     1.0000 0.14374  0.44303  0.67844  Biso   1.000  H
  H107     1.0000 0.10720  0.32326  0.56931  Biso   1.000  H
  H108     1.0000 0.01077  0.37834  0.70468  Biso   1.000  H
  H109     1.0000 0.15927  0.96739  0.16034  Biso   1.000  H
  H110     1.0000 0.11230  0.09471  0.08467  Biso   1.000  H
  H111     1.0000 0.02860  0.05892  0.19897  Biso   1.000  H
  H112     1.0000 0.65401  0.98364  0.48792  Biso   1.000  H
  H113     1.0000 0.59783  0.10705  0.57708  Biso   1.000  H
  H114     1.0000 0.52664  0.04988  0.44188  Biso   1.000  H
  H115     1.0000 0.38673  0.47888  0.17401  Biso   1.000  H
  H116     1.0000 0.41838  0.60072  0.09792  Biso   1.000  H
  H117     1.0000 0.52687  0.54545  0.20927  Biso   1.000  H
  H118     1.0000 0.89331  0.49367  0.46875  Biso   1.000  H
  H119     1.0000 0.93082  0.61225  0.57889  Biso   1.000  H
  H120     1.0000 0.03439  0.55144  0.44074  Biso   1.000  H
  H121     1.0000 0.09533  0.97073  0.93857  Biso   1.000  H
  H122     1.0000 0.88148  0.06546  0.07016  Biso   1.000  H
  H123     1.0000 0.00904  0.84129  0.17466  Biso   1.000  H
  H124     1.0000 0.60201  0.98203  0.70621  Biso   1.000  H
  H125     1.0000 0.37648  0.04198  0.55741  Biso   1.000  H
  H126     1.0000 0.54426  0.82802  0.48906  Biso   1.000  H
  H127     1.0000 0.41985  0.46676  0.95185  Biso   1.000  H
  H128     1.0000 0.64506  0.56540  0.06140  Biso   1.000  H
  H129     1.0000 0.51918  0.33038  0.16327  Biso   1.000  H
  H130     1.0000 0.91790  0.47464  0.69949  Biso   1.000  H
  H131     1.0000 0.15248  0.54647  0.57966  Biso   1.000  H
  H132     1.0000 0.00849  0.32723  0.48014  Biso   1.000  H
  H133     1.0000 0.93215  0.97687  0.21096  Biso   1.000  H
  H134     1.0000 0.14427  0.87195  0.07060  Biso   1.000  H
  H135     1.0000 0.01982  0.09544  0.97896  Biso   1.000  H
  H136     1.0000 0.42819  0.94728  0.44386  Biso   1.000  H
  H137     1.0000 0.65553  0.88937  0.57536  Biso   1.000  H
  H138     1.0000 0.49916  0.11592  0.65540  Biso   1.000  H
  H139     1.0000 0.61412  0.44212  0.19925  Biso   1.000  H
  H140     1.0000 0.38741  0.37856  0.09392  Biso   1.000  H
  H141     1.0000 0.48966  0.60863  0.98595  Biso   1.000  H
  H142     1.0000 0.11496  0.44197  0.45429  Biso   1.000  H
  H143     1.0000 0.88530  0.38800  0.56979  Biso   1.000  H
  H144     1.0000 0.03112  0.60589  0.66392  Biso   1.000  H
  H145     1.0000 0.59795  0.47612  0.93499  Biso   1.000  H
  H146     1.0000 0.88761  0.57317  0.57318  Biso   1.000  H
  H147     1.0000 0.50754  0.84768  0.66892  Biso   1.000  H
  H148     1.0000 0.10199  0.46634  0.71710  Biso   1.000  H
  H149     1.0000 0.37957  0.56124  0.08405  Biso   1.000  H
  H150     1.0000 0.00663  0.83726  0.98660  Biso   1.000  H
  H151     1.0000 0.90840  0.95957  0.94488  Biso   1.000  H
  H152     1.0000 0.64395  0.07243  0.58236  Biso   1.000  H
  H153     1.0000 0.01793  0.33826  0.66132  Biso   1.000  H
  H154     1.0000 0.41329  0.96109  0.70381  Biso   1.000  H
  H155     1.0000 0.15443  0.05285  0.08032  Biso   1.000  H
  H156     1.0000 0.50751  0.34116  0.97781  Biso   1.000  H
  H157     1.0000 0.43498  0.47361  0.21554  Biso   1.000  H
  H158     1.0000 0.14948  0.35994  0.57754  Biso   1.000  H
  H159     1.0000 0.51472  0.09405  0.48292  Biso   1.000  H
  H160     1.0000 0.93826  0.47738  0.43062  Biso   1.000  H
  H161     1.0000 0.64607  0.38009  0.06315  Biso   1.000  H
  H162     1.0000 0.01562  0.10267  0.15748  Biso   1.000  H
  H163     1.0000 0.11781  0.95969  0.20307  Biso   1.000  H
  H164     1.0000 0.38499  0.86381  0.57740  Biso   1.000  H
  H165     1.0000 0.02283  0.59135  0.48319  Biso   1.000  H
  H166     1.0000 0.61130  0.97339  0.44619  Biso   1.000  H
  H167     1.0000 0.87386  0.88752  0.09580  Biso   1.000  H
  H168     1.0000 0.53180  0.59139  0.16839  Biso   1.000  H
  H169     1.0000 0.00814  0.05443  0.93750  Biso   1.000  H
  H170     1.0000 0.88453  0.97622  0.17330  Biso   1.000  H
  H171     1.0000 0.10302  0.83342  0.07701  Biso   1.000  H
  H172     1.0000 0.49288  0.07493  0.70049  Biso   1.000  H
  H173     1.0000 0.38326  0.94506  0.48286  Biso   1.000  H
  H174     1.0000 0.61467  0.84664  0.58544  Biso   1.000  H
  H175     1.0000 0.49447  0.57191  0.94292  Biso   1.000  H
  H176     1.0000 0.65240  0.45100  0.15607  Biso   1.000  H
  H177     1.0000 0.42585  0.33820  0.08753  Biso   1.000  H
  H178     1.0000 0.01955  0.55950  0.71043  Biso   1.000  H
  H179     1.0000 0.15486  0.44246  0.49236  Biso   1.000  H
  H180     1.0000 0.92400  0.34354  0.57502  Biso   1.000  H
  H181     1.0000 0.01834  0.88433  0.21547  Biso   1.000  H
  H182     1.0000 0.14031  0.96592  0.97836  Biso   1.000  H
  H183     1.0000 0.92527  0.10533  0.05616  Biso   1.000  H
  H184     1.0000 0.53752  0.86725  0.44537  Biso   1.000  H
  H185     1.0000 0.64811  0.98213  0.67016  Biso   1.000  H
  H186     1.0000 0.41379  0.08557  0.55482  Biso   1.000  H
  H187     1.0000 0.52814  0.36932  0.20761  Biso   1.000  H
  H188     1.0000 0.38189  0.45400  0.99399  Biso   1.000  H
  H189     1.0000 0.60042  0.60455  0.06004  Biso   1.000  H
  H190     1.0000 0.00862  0.37097  0.43536  Biso   1.000  H
  H191     1.0000 0.88174  0.48012  0.65545  Biso   1.000  H
  H192     1.0000 0.11033  0.59079  0.57881  Biso   1.000  H
  H193     1.0000 0.29380  0.79726  0.57457  Biso   1.000  H
  H194     1.0000 0.48685  0.24906  0.91842  Biso   1.000  H
  H195     1.0000 0.89203  0.45478  0.33459  Biso   1.000  H
  H196     1.0000 0.77910  0.83296  0.10531  Biso   1.000  H
  H197     1.0000 0.03551  0.24192  0.71638  Biso   1.000  H
  H198     1.0000 0.38386  0.46399  0.31169  Biso   1.000  H
  H199     1.0000 0.24290  0.30168  0.58653  Biso   1.000  H
  H200     1.0000 0.01575  0.73737  0.93825  Biso   1.000  H
  H201     1.0000 0.66203  0.97200  0.34996  Biso   1.000  H
  H202     1.0000 0.74261  0.32686  0.05116  Biso   1.000  H
  H203     1.0000 0.51533  0.75245  0.72901  Biso   1.000  H
  H204     1.0000 0.17434  0.95212  0.29556  Biso   1.000  H
  H205     1.0000 0.73630  0.13272  0.58734  Biso   1.000  H
  H206     1.0000 0.53550  0.68527  0.22544  Biso   1.000  H
  H207     1.0000 0.14923  0.46188  0.81536  Biso   1.000  H
  H208     1.0000 0.24980  0.10803  0.07873  Biso   1.000  H
  H209     1.0000 0.00682  0.68730  0.42805  Biso   1.000  H
  H210     1.0000 0.64243  0.48177  0.83149  Biso   1.000  H
  H211     1.0000 0.79193  0.62523  0.56256  Biso   1.000  H
  H212     1.0000 0.02537  0.19746  0.21284  Biso   1.000  H
  H213     1.0000 0.35907  0.98228  0.79755  Biso   1.000  H
  H214     1.0000 0.28231  0.60896  0.06679  Biso   1.000  H
  H215     1.0000 0.53417  0.18514  0.42215  Biso   1.000  H
  H216     1.0000 0.85147  0.94529  0.85308  Biso   1.000  H
  H217     1.0000 0.25332  0.47152  0.44846  Biso   1.000  H
  H218     1.0000 0.35492  0.17894  0.55516  Biso   1.000  H
  H219     1.0000 0.53508  0.30776  0.30002  Biso   1.000  H
  H220     1.0000 0.75372  0.46261  0.20071  Biso   1.000  H
  H221     1.0000 0.88070  0.20563  0.04930  Biso   1.000  H
  H222     1.0000 0.01970  0.32017  0.33980  Biso   1.000  H
  H223     1.0000 0.29020  0.93595  0.42247  Biso   1.000  H
  H224     1.0000 0.17561  0.68033  0.56561  Biso   1.000  H
  H225     1.0000 0.02165  0.82958  0.31328  Biso   1.000  H
  H226     1.0000 0.79389  0.97918  0.23452  Biso   1.000  H
  H227     1.0000 0.65011  0.70258  0.06299  Biso   1.000  H
  H228     1.0000 0.52238  0.81147  0.35336  Biso   1.000  H
  H229     1.0000 0.77911  0.47161  0.69766  Biso   1.000  H
  H230     1.0000 0.67327  0.75249  0.57805  Biso   1.000  H
  H231     1.0000 0.49720  0.62884  0.84741  Biso   1.000  H
  H232     1.0000 0.28199  0.44097  0.94784  Biso   1.000  H
  H233     1.0000 0.15056  0.73736  0.06044  Biso   1.000  H
  H234     1.0000 0.00007  0.61442  0.79974  Biso   1.000  H
  H235     1.0000 0.73753  0.97143  0.73149  Biso   1.000  H
  H236     1.0000 0.86421  0.24972  0.57833  Biso   1.000  H
  H237     1.0000 0.98765  0.11002  0.84093  Biso   1.000  H
  H238     1.0000 0.23329  0.96447  0.91705  Biso   1.000  H
  H239     1.0000 0.37292  0.24263  0.06903  Biso   1.000  H
  H240     1.0000 0.50519  0.13293  0.79375  Biso   1.000  H
  H241     1.0000 0.73760  0.46985  0.91500  Biso   1.000  H
  H242     1.0000 0.88161  0.71122  0.57830  Biso   1.000  H
  H243     1.0000 0.50097  0.84018  0.80748  Biso   1.000  H
  H244     1.0000 0.23961  0.44243  0.73444  Biso   1.000  H
  H245     1.0000 0.36137  0.69645  0.10065  Biso   1.000  H
  H246     1.0000 0.99893  0.81776  0.85117  Biso   1.000  H
  H247     1.0000 0.77005  0.95749  0.94613  Biso   1.000  H
  H248     1.0000 0.64020  0.20784  0.58753  Biso   1.000  H
  H249     1.0000 0.01288  0.32299  0.80294  Biso   1.000  H
  H250     1.0000 0.27443  0.95050  0.71431  Biso   1.000  H
  H251     1.0000 0.16295  0.19011  0.09460  Biso   1.000  H
  H252     1.0000 0.50411  0.34048  0.83543  Biso   1.000  H
  H253     1.0000 0.29331  0.48444  0.23382  Biso   1.000  H
  H254     1.0000 0.14853  0.22528  0.59511  Biso   1.000  H
  H255     1.0000 0.51476  0.10040  0.34324  Biso   1.000  H
  H256     1.0000 0.80009  0.48185  0.41302  Biso   1.000  H
  H257     1.0000 0.66121  0.24225  0.07013  Biso   1.000  H
  H258     1.0000 0.04594  0.11648  0.29070  Biso   1.000  H
  H259     1.0000 0.25127  0.92875  0.20617  Biso   1.000  H
  H260     1.0000 0.38835  0.72446  0.57301  Biso   1.000  H
  H261     1.0000 0.04003  0.60524  0.34729  Biso   1.000  H
  H262     1.0000 0.75338  0.97966  0.43691  Biso   1.000  H
  H263     1.0000 0.86252  0.75058  0.07317  Biso   1.000  H
  H264     1.0000 0.53807  0.59250  0.31000  Biso   1.000  H
  H265     1.0000 0.01744  0.19478  0.92424  Biso   1.000  H
  H266     1.0000 0.88825  0.97202  0.30997  Biso   1.000  H
  H267     1.0000 0.24247  0.81899  0.05805  Biso   1.000  H
  H268     1.0000 0.47972  0.21055  0.70454  Biso   1.000  H
  H269     1.0000 0.38622  0.94846  0.34266  Biso   1.000  H
  H270     1.0000 0.75589  0.84271  0.56174  Biso   1.000  H
  H271     1.0000 0.49656  0.70980  0.93783  Biso   1.000  H
  H272     1.0000 0.67662  0.43657  0.29257  Biso   1.000  H
  H273     1.0000 0.29178  0.32370  0.11558  Biso   1.000  H
  H274     1.0000 0.01856  0.69881  0.71877  Biso   1.000  H
  H275     1.0000 0.17482  0.44735  0.35748  Biso   1.000  H
  H276     1.0000 0.78679  0.34357  0.56564  Biso   1.000  H
  H277     1.0000 0.03574  0.74535  0.22723  Biso   1.000  H
  H278     1.0000 0.14173  0.98538  0.84102  Biso   1.000  H
  H279     1.0000 0.78713  0.12376  0.07331  Biso   1.000  H
  H280     1.0000 0.53753  0.72568  0.44199  Biso   1.000  H
  H281     1.0000 0.64042  0.96673  0.80851  Biso   1.000  H
  H282     1.0000 0.27536  0.09082  0.56056  Biso   1.000  H
  H283     1.0000 0.50899  0.23122  0.21172  Biso   1.000  H
  H284     1.0000 0.35519  0.45727  0.85879  Biso   1.000  H
  H285     1.0000 0.73735  0.61740  0.09112  Biso   1.000  H
  H286     1.0000 0.00888  0.22903  0.42843  Biso   1.000  H
  H287     1.0000 0.85995  0.46268  0.79240  Biso   1.000  H
  H288     1.0000 0.25411  0.59064  0.58209  Biso   1.000  H
  H289     1.0000 0.10864  0.18824  0.09772  Biso   1.000  H
  H290     1.0000 0.05318  0.06191  0.28990  Biso   1.000  H
  H291     1.0000 0.24589  0.93090  0.14915  Biso   1.000  H
  H292     1.0000 0.58783  0.19897  0.58531  Biso   1.000  H
  H293     1.0000 0.51844  0.04527  0.34380  Biso   1.000  H
  H294     1.0000 0.74979  0.98241  0.49099  Biso   1.000  H
  H295     1.0000 0.41941  0.69460  0.10900  Biso   1.000  H
  H296     1.0000 0.53689  0.54054  0.30452  Biso   1.000  H
  H297     1.0000 0.29497  0.48942  0.18059  Biso   1.000  H
  H298     1.0000 0.93703  0.70624  0.58289  Biso   1.000  H
  H299     1.0000 0.04379  0.55215  0.34677  Biso   1.000  H
  H300     1.0000 0.79546  0.48674  0.46597  Biso   1.000  H
  H301     1.0000 0.91760  0.75164  0.07393  Biso   1.000  H
  H302     1.0000 0.99394  0.86942  0.84679  Biso   1.000  H
  H303     1.0000 0.77277  0.96788  0.99448  Biso   1.000  H
  H304     1.0000 0.44362  0.73420  0.56829  Biso   1.000  H
  H305     1.0000 0.49290  0.89483  0.80277  Biso   1.000  H
  H306     1.0000 0.27727  0.94934  0.65854  Biso   1.000  H
  H307     1.0000 0.60604  0.24238  0.06265  Biso   1.000  H
  H308     1.0000 0.51203  0.39516  0.84242  Biso   1.000  H
  H309     1.0000 0.73922  0.46980  0.96791  Biso   1.000  H
  H310     1.0000 0.09349  0.23003  0.58448  Biso   1.000  H
  H311     1.0000 0.01291  0.37760  0.80377  Biso   1.000  H
  H312     1.0000 0.23939  0.43972  0.68010  Biso   1.000  H
  H313     1.0000 0.23553  0.96741  0.97353  Biso   1.000  H
  H314     1.0000 0.93060  0.20303  0.04970  Biso   1.000  H
  H315     1.0000 0.02915  0.88562  0.31131  Biso   1.000  H
  H316     1.0000 0.74404  0.96701  0.67858  Biso   1.000  H
  H317     1.0000 0.41076  0.18446  0.55502  Biso   1.000  H
  H318     1.0000 0.52267  0.86319  0.35261  Biso   1.000  H
  H319     1.0000 0.28696  0.44144  0.00500  Biso   1.000  H
  H320     1.0000 0.59689  0.70048  0.05976  Biso   1.000  H
  H321     1.0000 0.54385  0.36482  0.29842  Biso   1.000  H
  H322     1.0000 0.78574  0.47373  0.64404  Biso   1.000  H
  H323     1.0000 0.12289  0.68715  0.57057  Biso   1.000  H
  H324     1.0000 0.02796  0.37311  0.34349  Biso   1.000  H
  H325     1.0000 0.78870  0.97842  0.18131  Biso   1.000  H
  H326     1.0000 0.09478  0.73801  0.07671  Biso   1.000  H
  H327     1.0000 0.98277  0.05426  0.84206  Biso   1.000  H
  H328     1.0000 0.28899  0.92718  0.47935  Biso   1.000  H
  H329     1.0000 0.61806  0.75086  0.58409  Biso   1.000  H
  H330     1.0000 0.51072  0.07562  0.79249  Biso   1.000  H
  H331     1.0000 0.74568  0.47225  0.14701  Biso   1.000  H
  H332     1.0000 0.42865  0.24721  0.05836  Biso   1.000  H
  H333     1.0000 0.48997  0.57674  0.84679  Biso   1.000  H
  H334     1.0000 0.24963  0.46380  0.50369  Biso   1.000  H
  H335     1.0000 0.91849  0.24843  0.58281  Biso   1.000  H
  H336     1.0000 0.99996  0.56172  0.80308  Biso   1.000  H
  H337     1.0000 0.02395  0.19107  0.97754  Biso   1.000  H
  H338     1.0000 0.94249  0.97439  0.30533  Biso   1.000  H
  H339     1.0000 0.24120  0.87308  0.06326  Biso   1.000  H
  H340     1.0000 0.48426  0.20894  0.65237  Biso   1.000  H
  H341     1.0000 0.43553  0.95654  0.34735  Biso   1.000  H
  H342     1.0000 0.74781  0.89623  0.55308  Biso   1.000  H
  H343     1.0000 0.49275  0.70466  0.99479  Biso   1.000  H
  H344     1.0000 0.62058  0.43766  0.29605  Biso   1.000  H
  H345     1.0000 0.29598  0.37600  0.12196  Biso   1.000  H
  H346     1.0000 0.02280  0.70203  0.66608  Biso   1.000  H
  H347     1.0000 0.12047  0.43866  0.35840  Biso   1.000  H
  H348     1.0000 0.79112  0.39406  0.56026  Biso   1.000  H
  H349     1.0000 0.02936  0.74701  0.17134  Biso   1.000  H
  H350     1.0000 0.08751  0.98613  0.84420  Biso   1.000  H
  H351     1.0000 0.78603  0.06905  0.07699  Biso   1.000  H
  H352     1.0000 0.54741  0.73171  0.49848  Biso   1.000  H
  H353     1.0000 0.58983  0.97918  0.80263  Biso   1.000  H
  H354     1.0000 0.28186  0.03468  0.56514  Biso   1.000  H
  H355     1.0000 0.50986  0.23368  0.15588  Biso   1.000  H
  H356     1.0000 0.40915  0.47211  0.85515  Biso   1.000  H
  H357     1.0000 0.73971  0.56634  0.08303  Biso   1.000  H
  H358     1.0000 0.00883  0.23009  0.48017  Biso   1.000  H
  H359     1.0000 0.91551  0.46193  0.79517  Biso   1.000  H
  H360     1.0000 0.24832  0.53911  0.58296  Biso   1.000  H
  H361     1.0000 0.00458  0.68711  0.48188  Biso   1.000  H
  H362     1.0000 0.41358  0.98696  0.79479  Biso   1.000  H
  H363     1.0000 0.73887  0.38477  0.04246  Biso   1.000  H
  H364     1.0000 0.52230  0.68815  0.17244  Biso   1.000  H
  H365     1.0000 0.90490  0.94010  0.85050  Biso   1.000  H
  H366     1.0000 0.24619  0.35621  0.58977  Biso   1.000  H
  H367     1.0000 0.53148  0.18951  0.47405  Biso   1.000  H
  H368     1.0000 0.10012  0.47559  0.81297  Biso   1.000  H
  H369     1.0000 0.77818  0.88464  0.10080  Biso   1.000  H
  H370     1.0000 0.01185  0.19891  0.15750  Biso   1.000  H
  H371     1.0000 0.58827  0.47912  0.84146  Biso   1.000  H
  H372     1.0000 0.28726  0.85166  0.57317  Biso   1.000  H
  H373     1.0000 0.04009  0.24449  0.66080  Biso   1.000  H
  H374     1.0000 0.60845  0.97073  0.35119  Biso   1.000  H
  H375     1.0000 0.28231  0.55351  0.06960  Biso   1.000  H
  H376     1.0000 0.49071  0.24851  0.97473  Biso   1.000  H
  H377     1.0000 0.12369  0.95675  0.29911  Biso   1.000  H
  H378     1.0000 0.79209  0.57297  0.56389  Biso   1.000  H
  H379     1.0000 0.52093  0.75185  0.67327  Biso   1.000  H
  H380     1.0000 0.94544  0.46297  0.33740  Biso   1.000  H
  H381     1.0000 0.25091  0.05714  0.06942  Biso   1.000  H
  H382     1.0000 0.01777  0.74113  0.99435  Biso   1.000  H
  H383     1.0000 0.43999  0.45835  0.30951  Biso   1.000  H
  H384     1.0000 0.74113  0.07870  0.59518  Biso   1.000  H
  H385     1.0000 0.25745  0.43573  0.41831  Biso   1.000  H
  H386     1.0000 0.27570  0.12700  0.52871  Biso   1.000  H
  H387     1.0000 0.49002  0.28186  0.29544  Biso   1.000  H
  H388     1.0000 0.71759  0.40895  0.28231  Biso   1.000  H
  H389     1.0000 0.85191  0.20778  0.08043  Biso   1.000  H
  H390     1.0000 0.99335  0.29323  0.33956  Biso   1.000  H
  H391     1.0000 0.35498  0.91635  0.35034  Biso   1.000  H
  H392     1.0000 0.20221  0.67723  0.60790  Biso   1.000  H
  H393     1.0000 0.99036  0.74857  0.25797  Biso   1.000  H
  H394     1.0000 0.80461  0.94294  0.26074  Biso   1.000  H
  H395     1.0000 0.67313  0.70437  0.10064  Biso   1.000  H
  H396     1.0000 0.56158  0.78127  0.35862  Biso   1.000  H
  H397     1.0000 0.78793  0.50660  0.73402  Biso   1.000  H
  H398     1.0000 0.76291  0.81127  0.58664  Biso   1.000  H
  H399     1.0000 0.53021  0.65742  0.85556  Biso   1.000  H
  H400     1.0000 0.31698  0.49700  0.87769  Biso   1.000  H
  H401     1.0000 0.22868  0.77720  0.01956  Biso   1.000  H
  H402     1.0000 0.04533  0.63853  0.80217  Biso   1.000  H
  H403     1.0000 0.72714  0.92794  0.75421  Biso   1.000  H
  H404     1.0000 0.78397  0.30988  0.59881  Biso   1.000  H
  H405     1.0000 0.98967  0.19591  0.89632  Biso   1.000  H
  H406     1.0000 0.23008  0.99945  0.89554  Biso   1.000  H
  H407     1.0000 0.28784  0.29831  0.07399  Biso   1.000  H
  H408     1.0000 0.46376  0.15079  0.79306  Biso   1.000  H
  H409     1.0000 0.30341  0.44027  0.26345  Biso   1.000  H
  H410     1.0000 0.17497  0.22787  0.55602  Biso   1.000  H
  H411     1.0000 0.49088  0.17986  0.39413  Biso   1.000  H
  H412     1.0000 0.86294  0.48688  0.32811  Biso   1.000  H
  H413     1.0000 0.69226  0.24764  0.02886  Biso   1.000  H
  H414     1.0000 0.98634  0.18592  0.24091  Biso   1.000  H
  H415     1.0000 0.19615  0.91757  0.28897  Biso   1.000  H
  H416     1.0000 0.35710  0.72464  0.60326  Biso   1.000  H
  H417     1.0000 0.00406  0.63621  0.34112  Biso   1.000  H
  H418     1.0000 0.74391  0.01430  0.40474  Biso   1.000  H
  H419     1.0000 0.83750  0.74735  0.10804  Biso   1.000  H
  H420     1.0000 0.50869  0.62250  0.30651  Biso   1.000  H
  H421     1.0000 0.72642  0.44082  0.88390  Biso   1.000  H
  H422     1.0000 0.79055  0.65616  0.59016  Biso   1.000  H
  H423     1.0000 0.54531  0.76715  0.76454  Biso   1.000  H
  H424     1.0000 0.23916  0.47856  0.76566  Biso   1.000  H
  H425     1.0000 0.34172  0.69409  0.05752  Biso   1.000  H
  H426     1.0000 0.04650  0.74481  0.90406  Biso   1.000  H
  H427     1.0000 0.82652  0.97476  0.85130  Biso   1.000  H
  H428     1.0000 0.73511  0.16422  0.61368  Biso   1.000  H
  H429     1.0000 0.04272  0.29084  0.80609  Biso   1.000  H
  H430     1.0000 0.33016  0.94893  0.80370  Biso   1.000  H
  H431     1.0000 0.19280  0.19109  0.05795  Biso   1.000  H
  H432     1.0000 0.46172  0.31376  0.84367  Biso   1.000  H
  H433     1.0000 0.27353  0.98634  0.73300  Biso   1.000  H
  H434     1.0000 0.73603  0.29977  0.09576  Biso   1.000  H
  H435     1.0000 0.05395  0.68899  0.40692  Biso   1.000  H
  H436     1.0000 0.77297  0.92671  0.91833  Biso   1.000  H
  H437     1.0000 0.24211  0.26879  0.61736  Biso   1.000  H
  H438     1.0000 0.57006  0.67738  0.25915  Biso   1.000  H
  H439     1.0000 0.17491  0.42523  0.81389  Biso   1.000  H
  H440     1.0000 0.77714  0.81182  0.06851  Biso   1.000  H
  H441     1.0000 0.55960  0.13118  0.34533  Biso   1.000  H
  H442     1.0000 0.67907  0.50848  0.83629  Biso   1.000  H
  H443     1.0000 0.30351  0.77043  0.53633  Biso   1.000  H
  H444     1.0000 0.06769  0.15395  0.28594  Biso   1.000  H
  H445     1.0000 0.69778  0.94464  0.35831  Biso   1.000  H
  H446     1.0000 0.27521  0.63642  0.10376  Biso   1.000  H
  H447     1.0000 0.99107  0.24122  0.73845  Biso   1.000  H
  H448     1.0000 0.25958  0.96327  0.23506  Biso   1.000  H
  H449     1.0000 0.85466  0.71129  0.54263  Biso   1.000  H
  H450     1.0000 0.52021  0.25302  0.88612  Biso   1.000  H
  H451     1.0000 0.80061  0.44615  0.38910  Biso   1.000  H
  H452     1.0000 0.24602  0.13457  0.11922  Biso   1.000  H
  H453     1.0000 0.46486  0.80684  0.79813  Biso   1.000  H
  H454     1.0000 0.35398  0.50628  0.31464  Biso   1.000  H
  H455     1.0000 0.67071  0.20977  0.55242  Biso   1.000  H
  H456     1.0000 0.96578  0.78052  0.86153  Biso   1.000  H
  H457     1.0000 0.69503  0.75706  0.53782  Biso   1.000  H
  H458     1.0000 0.46514  0.70775  0.90336  Biso   1.000  H
  H459     1.0000 0.82391  0.43268  0.77908  Biso   1.000  H
  H460     1.0000 0.18627  0.74546  0.09962  Biso   1.000  H
  H461     1.0000 0.98116  0.69057  0.75111  Biso   1.000  H
  H462     1.0000 0.29234  0.40778  0.90868  Biso   1.000  H
  H463     1.0000 0.83365  0.24956  0.54369  Biso   1.000  H
  H464     1.0000 0.02836  0.13178  0.83767  Biso   1.000  H
  H465     1.0000 0.67828  0.98630  0.81624  Biso   1.000  H
  H466     1.0000 0.35258  0.24177  0.11024  Biso   1.000  H
  H467     1.0000 0.50893  0.21805  0.73533  Biso   1.000  H
  H468     1.0000 0.17169  0.95261  0.83572  Biso   1.000  H
  H469     1.0000 0.33214  0.16194  0.59836  Biso   1.000  H
  H470     1.0000 0.54781  0.23260  0.23753  Biso   1.000  H
  H471     1.0000 0.19810  0.48582  0.35873  Biso   1.000  H
  H472     1.0000 0.79060  0.14828  0.04070  Biso   1.000  H
  H473     1.0000 0.04156  0.23532  0.39840  Biso   1.000  H
  H474     1.0000 0.74208  0.49002  0.23554  Biso   1.000  H
  H475     1.0000 0.25433  0.62286  0.54685  Biso   1.000  H
  H476     1.0000 0.05831  0.79385  0.30778  Biso   1.000  H
  H477     1.0000 0.29311  0.97376  0.39306  Biso   1.000  H
  H478     1.0000 0.73602  0.65004  0.05663  Biso   1.000  H
  H479     1.0000 0.50140  0.72332  0.41135  Biso   1.000  H
  H480     1.0000 0.85697  0.00630  0.31331  Biso   1.000  H
  N1       1.0000 0.68130  0.15834  0.58257  Biso   1.000  N
  N2       1.0000 0.53445  0.62976  0.25703  Biso   1.000  N
  N3       1.0000 0.18559  0.45232  0.76547  Biso   1.000  N
  N4       1.0000 0.19658  0.13783  0.08927  Biso   1.000  N
  N5       1.0000 0.02514  0.63684  0.39951  Biso   1.000  N
  N6       1.0000 0.68154  0.47537  0.88438  Biso   1.000  N
  N7       1.0000 0.84563  0.65914  0.57098  Biso   1.000  N
  N8       1.0000 0.02895  0.14606  0.23996  Biso   1.000  N
  N9       1.0000 0.32673  0.96760  0.74517  Biso   1.000  N
  N10      1.0000 0.33180  0.64263  0.08356  Biso   1.000  N
  N11      1.0000 0.52592  0.13087  0.39534  Biso   1.000  N
  N12      1.0000 0.82174  0.95813  0.90845  Biso   1.000  N
  N13      1.0000 0.35114  0.77249  0.57107  Biso   1.000  N
  N14      1.0000 0.49685  0.30560  0.88743  Biso   1.000  N
  N15      1.0000 0.85427  0.47198  0.38314  Biso   1.000  N
  N16      1.0000 0.83031  0.80300  0.08750  Biso   1.000  N
  N17      1.0000 0.02022  0.29303  0.74780  Biso   1.000  N
  N18      1.0000 0.35113  0.47592  0.26464  Biso   1.000  N
  N19      1.0000 0.18679  0.27314  0.58787  Biso   1.000  N
  N20      1.0000 0.00520  0.78752  0.90450  Biso   1.000  N
  N21      1.0000 0.69733  0.97850  0.40273  Biso   1.000  N
  N22      1.0000 0.69236  0.29698  0.05874  Biso   1.000  N
  N23      1.0000 0.50528  0.80767  0.75510  Biso   1.000  N
  N24      1.0000 0.20250  0.94397  0.24112  Biso   1.000  N
  N25      1.0000 0.82879  0.47030  0.73625  Biso   1.000  N
  N26      1.0000 0.70321  0.80743  0.57097  Biso   1.000  N
  N27      1.0000 0.49808  0.65828  0.90349  Biso   1.000  N
  N28      1.0000 0.33105  0.45394  0.91358  Biso   1.000  N
  N29      1.0000 0.18434  0.78738  0.06181  Biso   1.000  N
  N30      1.0000 0.01710  0.64574  0.75174  Biso   1.000  N
  N31      1.0000 0.68172  0.96872  0.75922  Biso   1.000  N
  N32      1.0000 0.83572  0.30496  0.57088  Biso   1.000  N
  N33      1.0000 0.00931  0.13982  0.89131  Biso   1.000  N
  N34      1.0000 0.17688  0.97319  0.88931  Biso   1.000  N
  N35      1.0000 0.34298  0.29188  0.09103  Biso   1.000  N
  N36      1.0000 0.48970  0.15996  0.74061  Biso   1.000  N
  N37      1.0000 0.20479  0.45575  0.41318  Biso   1.000  N
  N38      1.0000 0.32730  0.12449  0.55570  Biso   1.000  N
  N39      1.0000 0.51851  0.28143  0.24383  Biso   1.000  N
  N40      1.0000 0.70473  0.44522  0.23811  Biso   1.000  N
  N41      1.0000 0.84247  0.15311  0.06288  Biso   1.000  N
  N42      1.0000 0.01191  0.28434  0.39494  Biso   1.000  N
  N43      1.0000 0.34576  0.94271  0.39508  Biso   1.000  N
  N44      1.0000 0.20257  0.62820  0.57607  Biso   1.000  N
  N45      1.0000 0.02262  0.79622  0.26007  Biso   1.000  N
  N46      1.0000 0.85232  0.97811  0.26171  Biso   1.000  N
  N47      1.0000 0.68418  0.65082  0.07564  Biso   1.000  N
  N48      1.0000 0.52963  0.77913  0.40734  Biso   1.000  N
  O1       1.0000 0.35881  0.51111  0.08129  Biso   1.000  O
  O2       1.0000 0.01984  0.31339  0.61193  Biso   1.000  O
  O3       1.0000 0.56326  0.95495  0.42567  Biso   1.000  O
  O4       1.0000 0.86601  0.52480  0.56475  Biso   1.000  O
  O5       1.0000 0.51923  0.31271  0.02386  Biso   1.000  O
  O6       1.0000 0.07000  0.96130  0.22839  Biso   1.000  O
  O7       1.0000 0.17669  0.00489  0.07156  Biso   1.000  O
  O8       1.0000 0.51911  0.81961  0.62058  Biso   1.000  O
  O9       1.0000 0.98805  0.47630  0.41163  Biso   1.000  O
  O10      1.0000 0.67226  0.02284  0.58917  Biso   1.000  O
  O11      1.0000 0.00968  0.81516  0.03986  Biso   1.000  O
  O12      1.0000 0.48509  0.45781  0.23705  Biso   1.000  O
  O13      1.0000 0.67003  0.43043  0.05642  Biso   1.000  O
  O14      1.0000 0.01776  0.61921  0.53428  Biso   1.000  O
  O15      1.0000 0.46048  0.98398  0.72568  Biso   1.000  O
  O16      1.0000 0.17584  0.40808  0.58546  Biso   1.000  O
  O17      1.0000 0.51699  0.61991  0.11871  Biso   1.000  O
  O18      1.0000 0.95678  0.95773  0.91744  Biso   1.000  O
  O19      1.0000 0.84877  0.93684  0.09596  Biso   1.000  O
  O20      1.0000 0.50957  0.11925  0.52506  Biso   1.000  O
  O21      1.0000 0.05359  0.46910  0.73430  Biso   1.000  O
  O22      1.0000 0.35470  0.90940  0.58064  Biso   1.000  O
  O23      1.0000 0.01645  0.12516  0.11014  Biso   1.000  O
  O24      1.0000 0.54936  0.48595  0.91551  Biso   1.000  O
  O25      1.0000 0.98466  0.97435  0.23161  Biso   1.000  O
  O26      1.0000 0.17099  0.92280  0.06278  Biso   1.000  O
  O27      1.0000 0.02474  0.11946  0.02645  Biso   1.000  O
  O28      1.0000 0.47963  0.95659  0.42244  Biso   1.000  O
  O29      1.0000 0.67762  0.94119  0.57003  Biso   1.000  O
  O30      1.0000 0.49823  0.13143  0.60667  Biso   1.000  O
  O31      1.0000 0.56598  0.44462  0.22923  Biso   1.000  O
  O32      1.0000 0.36004  0.42829  0.10109  Biso   1.000  O
  O33      1.0000 0.49354  0.62941  0.03591  Biso   1.000  O
  O34      1.0000 0.06551  0.45049  0.42168  Biso   1.000  O
  O35      1.0000 0.86621  0.44039  0.56170  Biso   1.000  O
  O36      1.0000 0.02690  0.62840  0.61949  Biso   1.000  O
  O37      1.0000 0.04030  0.97035  0.91626  Biso   1.000  O
  O38      1.0000 0.85595  0.01829  0.07784  Biso   1.000  O
  O39      1.0000 0.01169  0.81583  0.12397  Biso   1.000  O
  O40      1.0000 0.54536  0.97937  0.72580  Biso   1.000  O
  O41      1.0000 0.35399  0.99191  0.56249  Biso   1.000  O
  O42      1.0000 0.53203  0.81126  0.53702  Biso   1.000  O
  O43      1.0000 0.46509  0.47874  0.92357  Biso   1.000  O
  O44      1.0000 0.66712  0.51329  0.06734  Biso   1.000  O
  O45      1.0000 0.51957  0.30859  0.11086  Biso   1.000  O
  O46      1.0000 0.96861  0.46903  0.72754  Biso   1.000  O
  O47      1.0000 0.17510  0.49029  0.58494  Biso   1.000  O
  O48      1.0000 0.01277  0.30542  0.52885  Biso   1.000  O
  O49      1.0000 0.02298  0.93032  0.23644  Biso   1.000  O
  O50      1.0000 0.16784  0.96759  0.02591  Biso   1.000  O
  O51      1.0000 0.97817  0.12766  0.05709  Biso   1.000  O
  O52      1.0000 0.52235  0.91290  0.42464  Biso   1.000  O
  O53      1.0000 0.67413  0.97094  0.62253  Biso   1.000  O
  O54      1.0000 0.46453  0.11755  0.56112  Biso   1.000  O
  O55      1.0000 0.51547  0.41292  0.23136  Biso   1.000  O
  O56      1.0000 0.35951  0.45670  0.04886  Biso   1.000  O
  O57      1.0000 0.54908  0.62390  0.06386  Biso   1.000  O
  O58      1.0000 0.01831  0.41974  0.41648  Biso   1.000  O
  O59      1.0000 0.86358  0.48216  0.60319  Biso   1.000  O
  O60      1.0000 0.06293  0.61985  0.57381  Biso   1.000  O
  O61      1.0000 0.99250  0.00650  0.91470  Biso   1.000  O
  O62      1.0000 0.85725  0.98216  0.12662  Biso   1.000  O
  O63      1.0000 0.05243  0.81179  0.08164  Biso   1.000  O
  O64      1.0000 0.50552  0.02534  0.72421  Biso   1.000  O
  O65      1.0000 0.35859  0.94080  0.53148  Biso   1.000  O
  O66      1.0000 0.56678  0.82137  0.58337  Biso   1.000  O
  O67      1.0000 0.50493  0.52252  0.91828  Biso   1.000  O
  O68      1.0000 0.67109  0.47015  0.10509  Biso   1.000  O
  O69      1.0000 0.47780  0.31332  0.07178  Biso   1.000  O
  O70      1.0000 0.01241  0.51191  0.73310  Biso   1.000  O
  O71      1.0000 0.17487  0.44555  0.54320  Biso   1.000  O
  O72      1.0000 0.97365  0.31391  0.57237  Biso   1.000  O
  O73      1.0000 0.01178  0.42614  0.73039  Biso   1.000  O
  O74      1.0000 0.67534  0.98609  0.53927  Biso   1.000  O
  O75      1.0000 0.46630  0.62496  0.08902  Biso   1.000  O
  O76      1.0000 0.50957  0.43782  0.91604  Biso   1.000  O
  O77      1.0000 0.17693  0.96019  0.10972  Biso   1.000  O
  O78      1.0000 0.98084  0.63063  0.57731  Biso   1.000  O
  O79      1.0000 0.49800  0.94160  0.72916  Biso   1.000  O
  O80      1.0000 0.86738  0.48468  0.52078  Biso   1.000  O
  O81      1.0000 0.06204  0.11919  0.07290  Biso   1.000  O
  O82      1.0000 0.00721  0.92291  0.91838  Biso   1.000  O
  O83      1.0000 0.35912  0.48496  0.12862  Biso   1.000  O
  O84      1.0000 0.54732  0.12578  0.57163  Biso   1.000  O
  O85      1.0000 0.04036  0.50265  0.41787  Biso   1.000  O
  O86      1.0000 0.35169  0.95659  0.61181  Biso   1.000  O
  O87      1.0000 0.55813  0.30945  0.06636  Biso   1.000  O
  O88      1.0000 0.53328  0.49422  0.23330  Biso   1.000  O
  O89      1.0000 0.84913  0.96627  0.04386  Biso   1.000  O
  O90      1.0000 0.05475  0.30414  0.56502  Biso   1.000  O
  O91      1.0000 0.52464  0.99758  0.42168  Biso   1.000  O
  O92      1.0000 0.17087  0.44832  0.62820  Biso   1.000  O
  O93      1.0000 0.96825  0.82045  0.08036  Biso   1.000  O
  O94      1.0000 0.03612  0.01086  0.22407  Biso   1.000  O
  O95      1.0000 0.66885  0.47186  0.02011  Biso   1.000  O
  O96      1.0000 0.48164  0.81189  0.57751  Biso   1.000  O
  O97      1.0000 0.45926  0.16661  0.55394  Biso   1.000  O
  O98      1.0000 0.52354  0.41134  0.28013  Biso   1.000  O
  O99      1.0000 0.22346  0.44759  0.54928  Biso   1.000  O
  O100     1.0000 0.98316  0.17573  0.05203  Biso   1.000  O
  O101     1.0000 0.02532  0.41639  0.36874  Biso   1.000  O
  O102     1.0000 0.71905  0.47148  0.10334  Biso   1.000  O
  O103     1.0000 0.07133  0.66674  0.57442  Biso   1.000  O
  O104     1.0000 0.02806  0.93315  0.28386  Biso   1.000  O
  O105     1.0000 0.31055  0.94312  0.52876  Biso   1.000  O
  O106     1.0000 0.54921  0.67272  0.07138  Biso   1.000  O
  O107     1.0000 0.52411  0.91336  0.37535  Biso   1.000  O
  O108     1.0000 0.80882  0.98725  0.12800  Biso   1.000  O
  O109     1.0000 0.56852  0.77225  0.58790  Biso   1.000  O
  O110     1.0000 0.50399  0.52278  0.86968  Biso   1.000  O
  O111     1.0000 0.81522  0.48305  0.59900  Biso   1.000  O
  O112     1.0000 0.04826  0.76320  0.08094  Biso   1.000  O
  O113     1.0000 0.00900  0.51079  0.78182  Biso   1.000  O
  O114     1.0000 0.31045  0.45520  0.04927  Biso   1.000  O
  O115     1.0000 0.96650  0.26592  0.57610  Biso   1.000  O
  O116     1.0000 0.99155  0.00557  0.86582  Biso   1.000  O
  O117     1.0000 0.72265  0.97507  0.62749  Biso   1.000  O
  O118     1.0000 0.47426  0.26625  0.06307  Biso   1.000  O
  O119     1.0000 0.50445  0.02681  0.77451  Biso   1.000  O
  O120     1.0000 0.21614  0.96659  0.02084  Biso   1.000  O
  O121     1.0000 0.04815  0.46628  0.78362  Biso   1.000  O
  O122     1.0000 0.72207  0.02520  0.59256  Biso   1.000  O
  O123     1.0000 0.51933  0.66844  0.12338  Biso   1.000  O
  O124     1.0000 0.54343  0.48310  0.86783  Biso   1.000  O
  O125     1.0000 0.22494  0.00662  0.06335  Biso   1.000  O
  O126     1.0000 0.02354  0.66743  0.53117  Biso   1.000  O
  O127     1.0000 0.45987  0.98889  0.77537  Biso   1.000  O
  O128     1.0000 0.81625  0.52436  0.56014  Biso   1.000  O
  O129     1.0000 0.01600  0.17332  0.10486  Biso   1.000  O
  O130     1.0000 0.95548  0.95870  0.86870  Biso   1.000  O
  O131     1.0000 0.30900  0.50688  0.07655  Biso   1.000  O
  O132     1.0000 0.50789  0.16771  0.52104  Biso   1.000  O
  O133     1.0000 0.99398  0.46972  0.36437  Biso   1.000  O
  O134     1.0000 0.30599  0.90386  0.57373  Biso   1.000  O
  O135     1.0000 0.51027  0.26473  0.02091  Biso   1.000  O
  O136     1.0000 0.48680  0.45454  0.28485  Biso   1.000  O
  O137     1.0000 0.80001  0.93629  0.09580  Biso   1.000  O
  O138     1.0000 0.01675  0.26439  0.61673  Biso   1.000  O
  O139     1.0000 0.56142  0.95252  0.37735  Biso   1.000  O
  O140     1.0000 0.22555  0.40968  0.59128  Biso   1.000  O
  O141     1.0000 0.00512  0.76460  0.03987  Biso   1.000  O
  O142     1.0000 0.07347  0.97308  0.27625  Biso   1.000  O
  O143     1.0000 0.71933  0.43105  0.05990  Biso   1.000  O
  O144     1.0000 0.52619  0.77116  0.62701  Biso   1.000  O
  O145     1.0000 0.56975  0.44567  0.27773  Biso   1.000  O
  O146     1.0000 0.22368  0.49115  0.58494  Biso   1.000  O
  O147     1.0000 0.49269  0.17799  0.60071  Biso   1.000  O
  O148     1.0000 0.07364  0.44842  0.37430  Biso   1.000  O
  O149     1.0000 0.71432  0.51588  0.06810  Biso   1.000  O
  O150     1.0000 0.03280  0.16766  0.02196  Biso   1.000  O
  O151     1.0000 0.98798  0.97827  0.28022  Biso   1.000  O
  O152     1.0000 0.30582  0.98851  0.56346  Biso   1.000  O
  O153     1.0000 0.02940  0.67765  0.61479  Biso   1.000  O
  O154     1.0000 0.48087  0.95478  0.37383  Biso   1.000  O
  O155     1.0000 0.80724  0.01974  0.07836  Biso   1.000  O
  O156     1.0000 0.49826  0.67747  0.03937  Biso   1.000  O
  O157     1.0000 0.45927  0.48266  0.87449  Biso   1.000  O
  O158     1.0000 0.81625  0.44209  0.55773  Biso   1.000  O
  O159     1.0000 0.52952  0.76338  0.54212  Biso   1.000  O
  O160     1.0000 0.96454  0.47280  0.77452  Biso   1.000  O
  O161     1.0000 0.31222  0.42138  0.09840  Biso   1.000  O
  O162     1.0000 0.01114  0.76755  0.12442  Biso   1.000  O
  O163     1.0000 0.04067  0.97158  0.86564  Biso   1.000  O
  O164     1.0000 0.72639  0.94087  0.57497  Biso   1.000  O
  O165     1.0000 0.00384  0.25787  0.53089  Biso   1.000  O
  O166     1.0000 0.54639  0.98512  0.77445  Biso   1.000  O
  O167     1.0000 0.21848  0.92337  0.05878  Biso   1.000  O
  O168     1.0000 0.51839  0.26085  0.10622  Biso   1.000  O
  O169     1.0000 0.03575  0.01624  0.27267  Biso   1.000  O
  O170     1.0000 0.22475  0.96430  0.10581  Biso   1.000  O
  O171     1.0000 0.06368  0.16796  0.07386  Biso   1.000  O
  O172     1.0000 0.52578  0.99477  0.37312  Biso   1.000  O
  O173     1.0000 0.72325  0.99481  0.54058  Biso   1.000  O
  O174     1.0000 0.54336  0.17432  0.56789  Biso   1.000  O
  O175     1.0000 0.53259  0.49362  0.28182  Biso   1.000  O
  O176     1.0000 0.31021  0.47604  0.13206  Biso   1.000  O
  O177     1.0000 0.46801  0.67277  0.09227  Biso   1.000  O
  O178     1.0000 0.04562  0.50107  0.36989  Biso   1.000  O
  O179     1.0000 0.81659  0.48760  0.51760  Biso   1.000  O
  O180     1.0000 0.98629  0.67829  0.57881  Biso   1.000  O
  O181     1.0000 0.00098  0.92157  0.86921  Biso   1.000  O
  O182     1.0000 0.80116  0.97346  0.04501  Biso   1.000  O
  O183     1.0000 0.96397  0.77206  0.08423  Biso   1.000  O
  O184     1.0000 0.50090  0.94535  0.77844  Biso   1.000  O
  O185     1.0000 0.30261  0.95047  0.61046  Biso   1.000  O
  O186     1.0000 0.48673  0.76264  0.58232  Biso   1.000  O
  O187     1.0000 0.49895  0.44109  0.86972  Biso   1.000  O
  O188     1.0000 0.71810  0.47807  0.02067  Biso   1.000  O
  O189     1.0000 0.55743  0.26312  0.05722  Biso   1.000  O
  O190     1.0000 0.00257  0.42427  0.77801  Biso   1.000  O
  O191     1.0000 0.21992  0.44855  0.63365  Biso   1.000  O
  O192     1.0000 0.05016  0.25575  0.56838  Biso   1.000  O
