data_image0
_cell_length_a       46.4927
_cell_length_b       46.5486
_cell_length_c       46.5716
_cell_angle_alpha    90
_cell_angle_beta     90
_cell_angle_gamma    90

_symmetry_space_group_name_H-M    "P 1"
_symmetry_int_tables_number       1

loop_
  _symmetry_equiv_pos_as_xyz
  'x, y, z'

loop_
  _atom_site_label
  _atom_site_occupancy
  _atom_site_fract_x
  _atom_site_fract_y
  _atom_site_fract_z
  _atom_site_thermal_displace_type
  _atom_site_B_iso_or_equiv
  _atom_site_type_symbol
  C1       1.0000 0.55050  0.97964  0.33601  Biso   1.000  C
  C2       1.0000 0.32339  0.54361  0.02507  Biso   1.000  C
  C3       1.0000 0.01738  0.30452  0.58384  Biso   1.000  C
  C4       1.0000 0.04853  0.98727  0.21233  Biso   1.000  C
  C5       1.0000 0.82128  0.54526  0.51646  Biso   1.000  C
  C6       1.0000 0.50824  0.30903  0.97265  Biso   1.000  C
  C7       1.0000 0.95078  0.48216  0.34345  Biso   1.000  C
  C8       1.0000 0.18141  0.03963  0.03602  Biso   1.000  C
  C9       1.0000 0.49990  0.80761  0.57842  Biso   1.000  C
  C10      1.0000 0.45125  0.47526  0.20475  Biso   1.000  C
  C11      1.0000 0.68549  0.04954  0.50837  Biso   1.000  C
  C12      1.0000 0.01049  0.80647  0.96365  Biso   1.000  C
  C13      1.0000 0.45637  0.98694  0.70848  Biso   1.000  C
  C14      1.0000 0.68297  0.42365  0.01864  Biso   1.000  C
  C15      1.0000 0.99468  0.66663  0.46372  Biso   1.000  C
  C16      1.0000 0.95363  0.99394  0.84062  Biso   1.000  C
  C17      1.0000 0.18887  0.43400  0.52418  Biso   1.000  C
  C18      1.0000 0.50163  0.66401  0.08386  Biso   1.000  C
  C19      1.0000 0.06155  0.49936  0.70476  Biso   1.000  C
  C20      1.0000 0.82413  0.93144  0.00671  Biso   1.000  C
  C21      1.0000 0.51719  0.17558  0.47053  Biso   1.000  C
  C22      1.0000 0.55528  0.49637  0.84185  Biso   1.000  C
  C23      1.0000 0.32490  0.93023  0.52921  Biso   1.000  C
  C24      1.0000 0.00360  0.16306  0.08818  Biso   1.000  C
  C25      1.0000 0.32600  0.04090  0.52843  Biso   1.000  C
  C26      1.0000 0.49533  0.30370  0.08037  Biso   1.000  C
  C27      1.0000 0.06103  0.48460  0.34037  Biso   1.000  C
  C28      1.0000 0.82130  0.03710  0.02520  Biso   1.000  C
  C29      1.0000 0.99534  0.30490  0.47540  Biso   1.000  C
  C30      1.0000 0.55943  0.49397  0.20611  Biso   1.000  C
  C31      1.0000 0.18341  0.54265  0.52423  Biso   1.000  C
  C32      1.0000 0.00487  0.80419  0.07297  Biso   1.000  C
  C33      1.0000 0.44515  0.00297  0.35208  Biso   1.000  C
  C34      1.0000 0.68195  0.53340  0.02531  Biso   1.000  C
  C35      1.0000 0.50614  0.80545  0.47089  Biso   1.000  C
  C36      1.0000 0.94239  0.96956  0.20529  Biso   1.000  C
  C37      1.0000 0.68516  0.93918  0.51681  Biso   1.000  C
  C38      1.0000 0.51163  0.66529  0.97427  Biso   1.000  C
  C39      1.0000 0.95235  0.48918  0.71045  Biso   1.000  C
  C40      1.0000 0.18615  0.93090  0.02937  Biso   1.000  C
  C41      1.0000 0.00617  0.67198  0.57232  Biso   1.000  C
  C42      1.0000 0.44739  0.47661  0.84335  Biso   1.000  C
  C43      1.0000 0.82889  0.43997  0.53602  Biso   1.000  C
  C44      1.0000 0.99384  0.16819  0.97571  Biso   1.000  C
  C45      1.0000 0.56202  0.97747  0.69366  Biso   1.000  C
  C46      1.0000 0.31764  0.43296  0.02478  Biso   1.000  C
  C47      1.0000 0.49683  0.16798  0.57851  Biso   1.000  C
  C48      1.0000 0.06436  0.99120  0.85020  Biso   1.000  C
  C49      1.0000 0.00805  0.04542  0.84405  Biso   1.000  C
  C50      1.0000 0.82202  0.97436  0.06760  Biso   1.000  C
  C51      1.0000 0.06018  0.80526  0.01736  Biso   1.000  C
  C52      1.0000 0.51257  0.04035  0.70406  Biso   1.000  C
  C53      1.0000 0.32439  0.98348  0.47750  Biso   1.000  C
  C54      1.0000 0.55631  0.80880  0.53221  Biso   1.000  C
  C55      1.0000 0.49552  0.54034  0.84331  Biso   1.000  C
  C56      1.0000 0.68686  0.47393  0.07863  Biso   1.000  C
  C57      1.0000 0.44673  0.31005  0.01773  Biso   1.000  C
  C58      1.0000 0.00415  0.54617  0.70427  Biso   1.000  C
  C59      1.0000 0.18487  0.48911  0.47270  Biso   1.000  C
  C60      1.0000 0.95363  0.30686  0.53878  Biso   1.000  C
  C61      1.0000 0.00394  0.92369  0.20612  Biso   1.000  C
  C62      1.0000 0.18662  0.98992  0.98112  Biso   1.000  C
  C63      1.0000 0.94850  0.16598  0.03625  Biso   1.000  C
  C64      1.0000 0.48906  0.93356  0.34957  Biso   1.000  C
  C65      1.0000 0.68625  0.99826  0.56499  Biso   1.000  C
  C66      1.0000 0.44989  0.17274  0.51434  Biso   1.000  C
  C67      1.0000 0.51740  0.42881  0.20502  Biso   1.000  C
  C68      1.0000 0.32291  0.48698  0.97231  Biso   1.000  C
  C69      1.0000 0.55880  0.66151  0.03374  Biso   1.000  C
  C70      1.0000 0.00857  0.42903  0.34452  Biso   1.000  C
  C71      1.0000 0.82472  0.50143  0.58433  Biso   1.000  C
  C72      1.0000 0.05165  0.66715  0.51282  Biso   1.000  C
  C73      1.0000 0.00486  0.53700  0.34022  Biso   1.000  C
  C74      1.0000 0.32859  0.98583  0.58768  Biso   1.000  C
  C75      1.0000 0.55357  0.30139  0.03204  Biso   1.000  C
  C76      1.0000 0.49243  0.53636  0.20402  Biso   1.000  C
  C77      1.0000 0.82166  0.99014  0.96091  Biso   1.000  C
  C78      1.0000 0.06096  0.30482  0.51753  Biso   1.000  C
  C79      1.0000 0.50672  0.04386  0.34494  Biso   1.000  C
  C80      1.0000 0.18491  0.48847  0.58000  Biso   1.000  C
  C81      1.0000 0.94940  0.80491  0.01415  Biso   1.000  C
  C82      1.0000 0.98849  0.03343  0.21010  Biso   1.000  C
  C83      1.0000 0.68026  0.48390  0.97147  Biso   1.000  C
  C84      1.0000 0.44926  0.80409  0.51770  Biso   1.000  C
  C85      1.0000 0.01273  0.43598  0.70748  Biso   1.000  C
  C86      1.0000 0.68307  0.99407  0.45798  Biso   1.000  C
  C87      1.0000 0.45001  0.67067  0.02286  Biso   1.000  C
  C88      1.0000 0.51168  0.43186  0.84412  Biso   1.000  C
  C89      1.0000 0.18018  0.98491  0.08933  Biso   1.000  C
  C90      1.0000 0.94271  0.66901  0.52233  Biso   1.000  C
  C91      1.0000 0.50547  0.93199  0.70630  Biso   1.000  C
  C92      1.0000 0.82748  0.48375  0.47537  Biso   1.000  C
  C93      1.0000 0.05551  0.16022  0.02232  Biso   1.000  C
  C94      1.0000 0.01231  0.93582  0.84448  Biso   1.000  C
  C95      1.0000 0.31947  0.48824  0.08003  Biso   1.000  C
  C96      1.0000 0.55819  0.17118  0.53450  Biso   1.000  C
  C97      1.0000 0.68623  0.08041  0.51044  Biso   1.000  C
  C98      1.0000 0.50676  0.66368  0.11585  Biso   1.000  C
  C99      1.0000 0.09372  0.49845  0.70534  Biso   1.000  C
  C100     1.0000 0.18088  0.07213  0.03718  Biso   1.000  C
  C101     1.0000 0.99849  0.66655  0.43247  Biso   1.000  C
  C102     1.0000 0.58760  0.50162  0.84272  Biso   1.000  C
  C103     1.0000 0.81766  0.57682  0.51070  Biso   1.000  C
  C104     1.0000 0.00176  0.16355  0.12032  Biso   1.000  C
  C105     1.0000 0.42489  0.98930  0.71166  Biso   1.000  C
  C106     1.0000 0.32219  0.57503  0.02287  Biso   1.000  C
  C107     1.0000 0.51636  0.17477  0.43766  Biso   1.000  C
  C108     1.0000 0.92339  0.00012  0.83930  Biso   1.000  C
  C109     1.0000 0.32373  0.89841  0.52332  Biso   1.000  C
  C110     1.0000 0.51532  0.30867  0.94141  Biso   1.000  C
  C111     1.0000 0.91951  0.48247  0.34467  Biso   1.000  C
  C112     1.0000 0.82503  0.89735  0.00682  Biso   1.000  C
  C113     1.0000 0.01923  0.30573  0.61576  Biso   1.000  C
  C114     1.0000 0.41908  0.47743  0.20429  Biso   1.000  C
  C115     1.0000 0.18968  0.40213  0.51956  Biso   1.000  C
  C116     1.0000 0.01187  0.80608  0.93259  Biso   1.000  C
  C117     1.0000 0.58275  0.98095  0.33352  Biso   1.000  C
  C118     1.0000 0.68252  0.39233  0.01831  Biso   1.000  C
  C119     1.0000 0.50392  0.80600  0.61091  Biso   1.000  C
  C120     1.0000 0.08248  0.99163  0.21329  Biso   1.000  C
  C121     1.0000 0.82242  0.96816  0.09899  Biso   1.000  C
  C122     1.0000 0.09102  0.80672  0.01034  Biso   1.000  C
  C123     1.0000 0.00385  0.07775  0.84336  Biso   1.000  C
  C124     1.0000 0.32240  0.98546  0.44705  Biso   1.000  C
  C125     1.0000 0.58992  0.81015  0.53575  Biso   1.000  C
  C126     1.0000 0.51357  0.07235  0.70636  Biso   1.000  C
  C127     1.0000 0.68752  0.47575  0.11128  Biso   1.000  C
  C128     1.0000 0.41522  0.31093  0.01188  Biso   1.000  C
  C129     1.0000 0.49408  0.57319  0.84513  Biso   1.000  C
  C130     1.0000 0.18569  0.48502  0.44106  Biso   1.000  C
  C131     1.0000 0.92166  0.30883  0.53916  Biso   1.000  C
  C132     1.0000 0.00659  0.57810  0.70226  Biso   1.000  C
  C133     1.0000 0.18839  0.99331  0.94875  Biso   1.000  C
  C134     1.0000 0.91749  0.16525  0.03979  Biso   1.000  C
  C135     1.0000 0.00911  0.89240  0.20422  Biso   1.000  C
  C136     1.0000 0.68818  0.99564  0.59741  Biso   1.000  C
  C137     1.0000 0.41789  0.17101  0.51129  Biso   1.000  C
  C138     1.0000 0.48308  0.90173  0.35015  Biso   1.000  C
  C139     1.0000 0.32412  0.48487  0.94026  Biso   1.000  C
  C140     1.0000 0.59183  0.66077  0.02904  Biso   1.000  C
  C141     1.0000 0.52346  0.39740  0.20417  Biso   1.000  C
  C142     1.0000 0.82429  0.50191  0.61730  Biso   1.000  C
  C143     1.0000 0.08424  0.66677  0.51208  Biso   1.000  C
  C144     1.0000 0.00414  0.39659  0.34615  Biso   1.000  C
  C145     1.0000 0.32139  0.48821  0.11363  Biso   1.000  C
  C146     1.0000 0.09222  0.30518  0.51197  Biso   1.000  C
  C147     1.0000 0.50588  0.07625  0.34526  Biso   1.000  C
  C148     1.0000 0.82852  0.48313  0.44337  Biso   1.000  C
  C149     1.0000 0.58582  0.29918  0.03028  Biso   1.000  C
  C150     1.0000 0.98497  0.06570  0.21039  Biso   1.000  C
  C151     1.0000 0.18090  0.98402  0.12146  Biso   1.000  C
  C152     1.0000 0.41710  0.80359  0.51366  Biso   1.000  C
  C153     1.0000 0.00820  0.56930  0.33955  Biso   1.000  C
  C154     1.0000 0.68205  0.99503  0.42627  Biso   1.000  C
  C155     1.0000 0.91767  0.80331  0.01791  Biso   1.000  C
  C156     1.0000 0.49138  0.56884  0.20763  Biso   1.000  C
  C157     1.0000 0.68115  0.48365  0.93971  Biso   1.000  C
  C158     1.0000 0.91150  0.67041  0.51642  Biso   1.000  C
  C159     1.0000 0.50225  0.89975  0.70709  Biso   1.000  C
  C160     1.0000 0.18438  0.48387  0.61075  Biso   1.000  C
  C161     1.0000 0.41793  0.67189  0.02119  Biso   1.000  C
  C162     1.0000 0.01739  0.90342  0.84321  Biso   1.000  C
  C163     1.0000 0.82309  0.98793  0.92813  Biso   1.000  C
  C164     1.0000 0.59017  0.17077  0.53868  Biso   1.000  C
  C165     1.0000 0.01377  0.40399  0.70838  Biso   1.000  C
  C166     1.0000 0.32608  0.98227  0.61930  Biso   1.000  C
  C167     1.0000 0.08604  0.16007  0.01454  Biso   1.000  C
  C168     1.0000 0.52074  0.40210  0.84372  Biso   1.000  C
  C169     1.0000 0.00871  0.80243  0.10450  Biso   1.000  C
  C170     1.0000 0.09594  0.98965  0.85069  Biso   1.000  C
  C171     1.0000 0.82081  0.06801  0.03345  Biso   1.000  C
  C172     1.0000 0.50455  0.80468  0.43940  Biso   1.000  C
  C173     1.0000 0.59395  0.96932  0.69076  Biso   1.000  C
  C174     1.0000 0.32511  0.07245  0.52444  Biso   1.000  C
  C175     1.0000 0.49824  0.30250  0.11275  Biso   1.000  C
  C176     1.0000 0.41495  0.47497  0.84254  Biso   1.000  C
  C177     1.0000 0.67924  0.56285  0.01431  Biso   1.000  C
  C178     1.0000 0.99535  0.30409  0.44404  Biso   1.000  C
  C179     1.0000 0.92010  0.49076  0.71147  Biso   1.000  C
  C180     1.0000 0.18030  0.57430  0.52240  Biso   1.000  C
  C181     1.0000 0.98772  0.16898  0.94334  Biso   1.000  C
  C182     1.0000 0.90987  0.96637  0.20431  Biso   1.000  C
  C183     1.0000 0.18796  0.89874  0.02655  Biso   1.000  C
  C184     1.0000 0.49818  0.16792  0.61077  Biso   1.000  C
  C185     1.0000 0.41357  0.00973  0.35384  Biso   1.000  C
  C186     1.0000 0.68543  0.90601  0.51869  Biso   1.000  C
  C187     1.0000 0.51501  0.66489  0.94144  Biso   1.000  C
  C188     1.0000 0.59127  0.49307  0.20607  Biso   1.000  C
  C189     1.0000 0.31704  0.40021  0.02328  Biso   1.000  C
  C190     1.0000 0.00837  0.67292  0.60383  Biso   1.000  C
  C191     1.0000 0.09347  0.48218  0.33961  Biso   1.000  C
  C192     1.0000 0.82803  0.40780  0.53419  Biso   1.000  C
  C193     1.0000 0.84978  0.99460  0.91417  Biso   1.000  C
  C194     1.0000 0.90188  0.83086  0.01611  Biso   1.000  C
  C195     1.0000 0.01471  0.88532  0.86857  Biso   1.000  C
  C196     1.0000 0.35331  0.97988  0.63677  Biso   1.000  C
  C197     1.0000 0.39969  0.83044  0.51242  Biso   1.000  C
  C198     1.0000 0.50323  0.88384  0.67959  Biso   1.000  C
  C199     1.0000 0.65472  0.48805  0.92310  Biso   1.000  C
  C200     1.0000 0.60170  0.32654  0.02664  Biso   1.000  C
  C201     1.0000 0.52445  0.38597  0.87012  Biso   1.000  C
  C202     1.0000 0.15814  0.48343  0.62761  Biso   1.000  C
  C203     1.0000 0.10738  0.33384  0.51312  Biso   1.000  C
  C204     1.0000 0.01239  0.38744  0.68185  Biso   1.000  C
  C205     1.0000 0.15180  0.98360  0.13552  Biso   1.000  C
  C206     1.0000 0.10210  0.13414  0.01821  Biso   1.000  C
  C207     1.0000 0.98649  0.08257  0.18256  Biso   1.000  C
  C208     1.0000 0.65464  0.99382  0.41011  Biso   1.000  C
  C209     1.0000 0.60568  0.14286  0.53352  Biso   1.000  C
  C210     1.0000 0.50683  0.09191  0.37225  Biso   1.000  C
  C211     1.0000 0.34838  0.48531  0.12862  Biso   1.000  C
  C212     1.0000 0.40222  0.64378  0.02007  Biso   1.000  C
  C213     1.0000 0.49415  0.58549  0.18158  Biso   1.000  C
  C214     1.0000 0.85459  0.48623  0.42820  Biso   1.000  C
  C215     1.0000 0.89481  0.64369  0.51324  Biso   1.000  C
  C216     1.0000 0.00135  0.58549  0.36472  Biso   1.000  C
  C217     1.0000 0.11174  0.98739  0.87905  Biso   1.000  C
  C218     1.0000 0.84907  0.08528  0.03695  Biso   1.000  C
  C219     1.0000 0.00899  0.82952  0.12046  Biso   1.000  C
  C220     1.0000 0.60923  0.97341  0.66523  Biso   1.000  C
  C221     1.0000 0.35278  0.08911  0.52242  Biso   1.000  C
  C222     1.0000 0.50404  0.83306  0.42288  Biso   1.000  C
  C223     1.0000 0.40204  0.47904  0.86984  Biso   1.000  C
  C224     1.0000 0.65442  0.58190  0.01880  Biso   1.000  C
  C225     1.0000 0.50489  0.32994  0.12780  Biso   1.000  C
  C226     1.0000 0.90447  0.49546  0.68449  Biso   1.000  C
  C227     1.0000 0.15184  0.58933  0.52232  Biso   1.000  C
  C228     1.0000 0.99791  0.33141  0.42749  Biso   1.000  C
  C229     1.0000 0.89670  0.96414  0.17469  Biso   1.000  C
  C230     1.0000 0.16141  0.88266  0.02199  Biso   1.000  C
  C231     1.0000 0.98883  0.14184  0.92635  Biso   1.000  C
  C232     1.0000 0.39864  0.00505  0.38083  Biso   1.000  C
  C233     1.0000 0.65779  0.89077  0.52316  Biso   1.000  C
  C234     1.0000 0.50328  0.14104  0.62727  Biso   1.000  C
  C235     1.0000 0.60665  0.48732  0.18045  Biso   1.000  C
  C236     1.0000 0.34543  0.38552  0.02063  Biso   1.000  C
  C237     1.0000 0.51358  0.63809  0.92549  Biso   1.000  C
  C238     1.0000 0.10806  0.48324  0.36883  Biso   1.000  C
  C239     1.0000 0.85475  0.39120  0.53280  Biso   1.000  C
  C240     1.0000 0.01013  0.64530  0.61971  Biso   1.000  C
  C241     1.0000 0.60279  0.49922  0.86936  Biso   1.000  C
  C242     1.0000 0.84405  0.59458  0.51185  Biso   1.000  C
  C243     1.0000 0.50366  0.83238  0.62686  Biso   1.000  C
  C244     1.0000 0.10866  0.49612  0.67749  Biso   1.000  C
  C245     1.0000 0.35073  0.58898  0.01981  Biso   1.000  C
  C246     1.0000 0.01226  0.83352  0.91626  Biso   1.000  C
  C247     1.0000 0.90549  0.99833  0.86613  Biso   1.000  C
  C248     1.0000 0.65852  0.09590  0.51732  Biso   1.000  C
  C249     1.0000 0.01584  0.33375  0.63100  Biso   1.000  C
  C250     1.0000 0.40634  0.98531  0.68515  Biso   1.000  C
  C251     1.0000 0.15366  0.08614  0.03132  Biso   1.000  C
  C252     1.0000 0.51764  0.33545  0.92373  Biso   1.000  C
  C253     1.0000 0.40055  0.47867  0.17751  Biso   1.000  C
  C254     1.0000 0.16204  0.38695  0.51653  Biso   1.000  C
  C255     1.0000 0.51183  0.14717  0.42356  Biso   1.000  C
  C256     1.0000 0.90509  0.48213  0.37228  Biso   1.000  C
  C257     1.0000 0.65439  0.37627  0.02015  Biso   1.000  C
  C258     1.0000 0.99964  0.13553  0.13535  Biso   1.000  C
  C259     1.0000 0.09901  0.98999  0.18587  Biso   1.000  C
  C260     1.0000 0.35062  0.88174  0.52006  Biso   1.000  C
  C261     1.0000 0.99884  0.63989  0.41642  Biso   1.000  C
  C262     1.0000 0.60063  0.98476  0.35876  Biso   1.000  C
  C263     1.0000 0.85120  0.88106  0.01027  Biso   1.000  C
  C264     1.0000 0.50364  0.63676  0.13151  Biso   1.000  C
  C265     1.0000 0.99956  0.09352  0.87154  Biso   1.000  C
  C266     1.0000 0.84796  0.96742  0.11688  Biso   1.000  C
  C267     1.0000 0.10816  0.83323  0.01183  Biso   1.000  C
  C268     1.0000 0.50762  0.08794  0.68114  Biso   1.000  C
  C269     1.0000 0.34904  0.99373  0.43125  Biso   1.000  C
  C270     1.0000 0.60608  0.83775  0.53364  Biso   1.000  C
  C271     1.0000 0.50053  0.58837  0.87163  Biso   1.000  C
  C272     1.0000 0.66198  0.48263  0.12660  Biso   1.000  C
  C273     1.0000 0.39867  0.33719  0.00901  Biso   1.000  C
  C274     1.0000 0.01133  0.59174  0.67529  Biso   1.000  C
  C275     1.0000 0.15826  0.48621  0.42317  Biso   1.000  C
  C276     1.0000 0.90668  0.33653  0.53798  Biso   1.000  C
  C277     1.0000 0.00839  0.87878  0.17594  Biso   1.000  C
  C278     1.0000 0.16214  0.99622  0.93075  Biso   1.000  C
  C279     1.0000 0.90169  0.13873  0.04317  Biso   1.000  C
  C280     1.0000 0.49003  0.88369  0.37508  Biso   1.000  C
  C281     1.0000 0.66103  0.98791  0.61321  Biso   1.000  C
  C282     1.0000 0.40212  0.14436  0.51660  Biso   1.000  C
  C283     1.0000 0.51560  0.38161  0.17861  Biso   1.000  C
  C284     1.0000 0.35106  0.48566  0.92314  Biso   1.000  C
  C285     1.0000 0.60604  0.63446  0.02476  Biso   1.000  C
  C286     1.0000 0.00080  0.38207  0.37468  Biso   1.000  C
  C287     1.0000 0.85087  0.50198  0.63400  Biso   1.000  C
  C288     1.0000 0.10185  0.63987  0.51548  Biso   1.000  C
  C289     1.0000 0.34915  0.85063  0.51823  Biso   1.000  C
  C290     1.0000 0.51794  0.33281  0.89226  Biso   1.000  C
  C291     1.0000 0.87322  0.48574  0.37141  Biso   1.000  C
  C292     1.0000 0.84819  0.85152  0.01456  Biso   1.000  C
  C293     1.0000 0.01925  0.33457  0.66153  Biso   1.000  C
  C294     1.0000 0.36955  0.48151  0.17922  Biso   1.000  C
  C295     1.0000 0.16139  0.35595  0.51252  Biso   1.000  C
  C296     1.0000 0.01263  0.83135  0.88509  Biso   1.000  C
  C297     1.0000 0.63210  0.98502  0.35850  Biso   1.000  C
  C298     1.0000 0.65593  0.34476  0.02266  Biso   1.000  C
  C299     1.0000 0.50445  0.83102  0.65883  Biso   1.000  C
  C300     1.0000 0.12993  0.98921  0.18736  Biso   1.000  C
  C301     1.0000 0.65989  0.12646  0.52397  Biso   1.000  C
  C302     1.0000 0.49842  0.63707  0.16191  Biso   1.000  C
  C303     1.0000 0.13971  0.49267  0.67892  Biso   1.000  C
  C304     1.0000 0.15515  0.11650  0.02449  Biso   1.000  C
  C305     1.0000 0.00505  0.63989  0.38561  Biso   1.000  C
  C306     1.0000 0.63360  0.49880  0.87028  Biso   1.000  C
  C307     1.0000 0.84182  0.62519  0.51221  Biso   1.000  C
  C308     1.0000 0.99449  0.13638  0.16598  Biso   1.000  C
  C309     1.0000 0.37571  0.98017  0.68836  Biso   1.000  C
  C310     1.0000 0.35001  0.62020  0.01712  Biso   1.000  C
  C311     1.0000 0.51212  0.14620  0.39209  Biso   1.000  C
  C312     1.0000 0.87395  0.99716  0.86393  Biso   1.000  C
  C313     1.0000 0.15997  0.48421  0.39160  Biso   1.000  C
  C314     1.0000 0.37127  0.14353  0.51834  Biso   1.000  C
  C315     1.0000 0.51665  0.35058  0.17938  Biso   1.000  C
  C316     1.0000 0.66055  0.48736  0.15799  Biso   1.000  C
  C317     1.0000 0.87011  0.13972  0.04040  Biso   1.000  C
  C318     1.0000 0.99546  0.35067  0.37426  Biso   1.000  C
  C319     1.0000 0.34712  0.99869  0.40063  Biso   1.000  C
  C320     1.0000 0.13218  0.64188  0.51884  Biso   1.000  C
  C321     1.0000 0.01412  0.84833  0.17420  Biso   1.000  C
  C322     1.0000 0.84483  0.96488  0.14824  Biso   1.000  C
  C323     1.0000 0.63719  0.63531  0.02229  Biso   1.000  C
  C324     1.0000 0.48942  0.85251  0.37250  Biso   1.000  C
  C325     1.0000 0.85060  0.50087  0.66502  Biso   1.000  C
  C326     1.0000 0.63660  0.83737  0.53196  Biso   1.000  C
  C327     1.0000 0.50510  0.62043  0.87167  Biso   1.000  C
  C328     1.0000 0.34921  0.48426  0.89180  Biso   1.000  C
  C329     1.0000 0.13899  0.83221  0.01321  Biso   1.000  C
  C330     1.0000 0.01154  0.62499  0.67369  Biso   1.000  C
  C331     1.0000 0.66228  0.98519  0.64374  Biso   1.000  C
  C332     1.0000 0.87416  0.33709  0.53868  Biso   1.000  C
  C333     1.0000 0.99276  0.12349  0.87163  Biso   1.000  C
  C334     1.0000 0.16531  0.99387  0.89996  Biso   1.000  C
  C335     1.0000 0.36681  0.33413  0.01156  Biso   1.000  C
  C336     1.0000 0.50842  0.11953  0.68044  Biso   1.000  C
  C337     1.0000 0.65638  0.49474  0.89166  Biso   1.000  C
  C338     1.0000 0.86345  0.64567  0.51231  Biso   1.000  C
  C339     1.0000 0.50361  0.85220  0.68038  Biso   1.000  C
  C340     1.0000 0.16112  0.48787  0.65882  Biso   1.000  C
  C341     1.0000 0.37073  0.64294  0.01726  Biso   1.000  C
  C342     1.0000 0.01346  0.85449  0.86520  Biso   1.000  C
  C343     1.0000 0.85130  0.99687  0.88387  Biso   1.000  C
  C344     1.0000 0.63749  0.14610  0.53052  Biso   1.000  C
  C345     1.0000 0.01604  0.35623  0.68336  Biso   1.000  C
  C346     1.0000 0.35321  0.98087  0.66798  Biso   1.000  C
  C347     1.0000 0.13400  0.13646  0.01726  Biso   1.000  C
  C348     1.0000 0.52051  0.35368  0.86985  Biso   1.000  C
  C349     1.0000 0.34604  0.48283  0.15913  Biso   1.000  C
  C350     1.0000 0.13919  0.33413  0.51255  Biso   1.000  C
  C351     1.0000 0.50972  0.12385  0.37135  Biso   1.000  C
  C352     1.0000 0.85371  0.48600  0.39539  Biso   1.000  C
  C353     1.0000 0.63379  0.32360  0.02640  Biso   1.000  C
  C354     1.0000 0.98923  0.11333  0.18627  Biso   1.000  C
  C355     1.0000 0.15292  0.98752  0.16636  Biso   1.000  C
  C356     1.0000 0.37001  0.82945  0.51602  Biso   1.000  C
  C357     1.0000 0.00589  0.61726  0.36363  Biso   1.000  C
  C358     1.0000 0.65416  0.98768  0.37971  Biso   1.000  C
  C359     1.0000 0.87013  0.83116  0.01627  Biso   1.000  C
  C360     1.0000 0.49451  0.61660  0.18269  Biso   1.000  C
  C361     1.0000 0.98830  0.14287  0.89426  Biso   1.000  C
  C362     1.0000 0.86599  0.96430  0.17155  Biso   1.000  C
  C363     1.0000 0.16243  0.85274  0.01854  Biso   1.000  C
  C364     1.0000 0.50652  0.14154  0.65805  Biso   1.000  C
  C365     1.0000 0.36732  0.00281  0.37824  Biso   1.000  C
  C366     1.0000 0.65795  0.85979  0.52786  Biso   1.000  C
  C367     1.0000 0.51021  0.64108  0.89353  Biso   1.000  C
  C368     1.0000 0.63828  0.48891  0.18005  Biso   1.000  C
  C369     1.0000 0.34464  0.35346  0.01841  Biso   1.000  C
  C370     1.0000 0.01034  0.64500  0.65058  Biso   1.000  C
  C371     1.0000 0.13911  0.48258  0.36890  Biso   1.000  C
  C372     1.0000 0.85192  0.35928  0.53594  Biso   1.000  C
  C373     1.0000 0.01478  0.82831  0.15219  Biso   1.000  C
  C374     1.0000 0.14390  0.98918  0.87853  Biso   1.000  C
  C375     1.0000 0.84851  0.11663  0.03789  Biso   1.000  C
  C376     1.0000 0.49468  0.83206  0.39330  Biso   1.000  C
  C377     1.0000 0.64186  0.97855  0.66483  Biso   1.000  C
  C378     1.0000 0.35117  0.12063  0.52098  Biso   1.000  C
  C379     1.0000 0.51121  0.32944  0.15902  Biso   1.000  C
  C380     1.0000 0.37014  0.48221  0.87003  Biso   1.000  C
  C381     1.0000 0.65760  0.61243  0.01991  Biso   1.000  C
  C382     1.0000 0.99251  0.33013  0.39721  Biso   1.000  C
  C383     1.0000 0.87313  0.49919  0.68692  Biso   1.000  C
  C384     1.0000 0.15410  0.62086  0.52142  Biso   1.000  C
  C385     1.0000 0.18185  0.13417  0.02354  Biso   1.000  C
  C386     1.0000 0.99473  0.16226  0.18174  Biso   1.000  C
  C387     1.0000 0.14494  0.99261  0.21499  Biso   1.000  C
  C388     1.0000 0.68607  0.14395  0.52416  Biso   1.000  C
  C389     1.0000 0.51699  0.17242  0.37572  Biso   1.000  C
  C390     1.0000 0.64705  0.97862  0.33253  Biso   1.000  C
  C391     1.0000 0.32238  0.63568  0.01615  Biso   1.000  C
  C392     1.0000 0.49334  0.66375  0.17751  Biso   1.000  C
  C393     1.0000 0.35489  0.48154  0.20571  Biso   1.000  C
  C394     1.0000 0.81545  0.63996  0.51071  Biso   1.000  C
  C395     1.0000 0.01200  0.66658  0.37055  Biso   1.000  C
  C396     1.0000 0.85611  0.48509  0.34597  Biso   1.000  C
  C397     1.0000 0.82126  0.83568  0.01531  Biso   1.000  C
  C398     1.0000 0.01227  0.80507  0.86891  Biso   1.000  C
  C399     1.0000 0.86004  0.99487  0.83528  Biso   1.000  C
  C400     1.0000 0.32254  0.83515  0.52268  Biso   1.000  C
  C401     1.0000 0.50158  0.80346  0.67405  Biso   1.000  C
  C402     1.0000 0.36137  0.98279  0.71548  Biso   1.000  C
  C403     1.0000 0.68215  0.32867  0.02333  Biso   1.000  C
  C404     1.0000 0.51546  0.30620  0.87758  Biso   1.000  C
  C405     1.0000 0.65095  0.50421  0.84459  Biso   1.000  C
  C406     1.0000 0.18946  0.34090  0.51050  Biso   1.000  C
  C407     1.0000 0.02245  0.30853  0.67938  Biso   1.000  C
  C408     1.0000 0.15453  0.49155  0.70659  Biso   1.000  C
  C409     1.0000 0.16034  0.98494  0.85212  Biso   1.000  C
  C410     1.0000 0.82184  0.13179  0.03608  Biso   1.000  C
  C411     1.0000 0.01724  0.80009  0.16638  Biso   1.000  C
  C412     1.0000 0.65687  0.97979  0.69249  Biso   1.000  C
  C413     1.0000 0.32316  0.13470  0.52084  Biso   1.000  C
  C414     1.0000 0.49123  0.80473  0.37832  Biso   1.000  C
  C415     1.0000 0.35344  0.47987  0.84390  Biso   1.000  C
  C416     1.0000 0.68566  0.62645  0.01191  Biso   1.000  C
  C417     1.0000 0.51230  0.30298  0.17399  Biso   1.000  C
  C418     1.0000 0.85752  0.49736  0.71399  Biso   1.000  C
  C419     1.0000 0.18066  0.63701  0.52210  Biso   1.000  C
  C420     1.0000 0.98791  0.30476  0.38090  Biso   1.000  C
  C421     1.0000 0.84716  0.96264  0.19660  Biso   1.000  C
  C422     1.0000 0.18885  0.83546  0.01782  Biso   1.000  C
  C423     1.0000 0.98864  0.17099  0.88015  Biso   1.000  C
  C424     1.0000 0.35023  0.00405  0.35269  Biso   1.000  C
  C425     1.0000 0.68605  0.84434  0.52651  Biso   1.000  C
  C426     1.0000 0.50668  0.16871  0.67351  Biso   1.000  C
  C427     1.0000 0.65394  0.49233  0.20664  Biso   1.000  C
  C428     1.0000 0.31765  0.33596  0.01903  Biso   1.000  C
  C429     1.0000 0.50980  0.66863  0.87826  Biso   1.000  C
  C430     1.0000 0.15683  0.48066  0.34325  Biso   1.000  C
  C431     1.0000 0.82521  0.34337  0.53910  Biso   1.000  C
  C432     1.0000 0.00923  0.67289  0.66661  Biso   1.000  C
  C433     1.0000 0.99259  0.14098  0.84605  Biso   1.000  C
  C434     1.0000 0.81723  0.96293  0.16123  Biso   1.000  C
  C435     1.0000 0.15298  0.80529  0.00866  Biso   1.000  C
  C436     1.0000 0.51148  0.13509  0.70619  Biso   1.000  C
  C437     1.0000 0.31949  0.99385  0.38484  Biso   1.000  C
  C438     1.0000 0.65269  0.81200  0.53457  Biso   1.000  C
  C439     1.0000 0.50147  0.63677  0.84520  Biso   1.000  C
  C440     1.0000 0.68679  0.48569  0.17471  Biso   1.000  C
  C441     1.0000 0.35088  0.30539  0.01257  Biso   1.000  C
  C442     1.0000 0.01038  0.64121  0.69979  Biso   1.000  C
  C443     1.0000 0.18724  0.48375  0.37758  Biso   1.000  C
  C444     1.0000 0.85797  0.31018  0.53996  Biso   1.000  C
  C445     1.0000 0.01689  0.83107  0.19993  Biso   1.000  C
  C446     1.0000 0.19309  0.99113  0.88586  Biso   1.000  C
  C447     1.0000 0.85502  0.16601  0.03434  Biso   1.000  C
  C448     1.0000 0.48309  0.83683  0.34584  Biso   1.000  C
  C449     1.0000 0.68799  0.99031  0.66024  Biso   1.000  C
  C450     1.0000 0.35484  0.16880  0.51647  Biso   1.000  C
  C451     1.0000 0.52379  0.33504  0.20562  Biso   1.000  C
  C452     1.0000 0.32173  0.48408  0.87797  Biso   1.000  C
  C453     1.0000 0.65525  0.66122  0.01816  Biso   1.000  C
  C454     1.0000 0.99482  0.33448  0.34736  Biso   1.000  C
  C455     1.0000 0.82429  0.50002  0.68196  Biso   1.000  C
  C456     1.0000 0.14768  0.67004  0.52001  Biso   1.000  C
  C457     1.0000 0.01395  0.63302  0.33906  Biso   1.000  C
  C458     1.0000 0.32630  0.98274  0.68314  Biso   1.000  C
  C459     1.0000 0.64904  0.29574  0.02648  Biso   1.000  C
  C460     1.0000 0.48736  0.63115  0.20840  Biso   1.000  C
  C461     1.0000 0.82517  0.99494  0.86559  Biso   1.000  C
  C462     1.0000 0.15543  0.30754  0.50685  Biso   1.000  C
  C463     1.0000 0.51243  0.13753  0.34429  Biso   1.000  C
  C464     1.0000 0.18828  0.48781  0.67511  Biso   1.000  C
  C465     1.0000 0.85341  0.80519  0.02119  Biso   1.000  C
  C466     1.0000 0.98852  0.12863  0.21501  Biso   1.000  C
  C467     1.0000 0.68422  0.49694  0.87699  Biso   1.000  C
  C468     1.0000 0.35397  0.80197  0.51973  Biso   1.000  C
  C469     1.0000 0.01728  0.34105  0.71109  Biso   1.000  C
  C470     1.0000 0.68098  0.98356  0.36458  Biso   1.000  C
  C471     1.0000 0.35476  0.66944  0.01691  Biso   1.000  C
  C472     1.0000 0.51783  0.33741  0.84339  Biso   1.000  C
  C473     1.0000 0.17866  0.99117  0.18233  Biso   1.000  C
  C474     1.0000 0.84788  0.67269  0.51100  Biso   1.000  C
  C475     1.0000 0.50276  0.83746  0.70619  Biso   1.000  C
  C476     1.0000 0.82477  0.48513  0.38115  Biso   1.000  C
  C477     1.0000 0.14848  0.16476  0.01293  Biso   1.000  C
  C478     1.0000 0.01593  0.84156  0.83717  Biso   1.000  C
  C479     1.0000 0.32013  0.48414  0.17521  Biso   1.000  C
  C480     1.0000 0.65236  0.17352  0.53205  Biso   1.000  C
  C481     1.0000 0.37093  0.77516  0.52036  Biso   1.000  C
  C482     1.0000 0.51433  0.35290  0.81585  Biso   1.000  C
  C483     1.0000 0.79874  0.48444  0.39821  Biso   1.000  C
  C484     1.0000 0.86822  0.77788  0.02364  Biso   1.000  C
  C485     1.0000 0.01951  0.35748  0.73680  Biso   1.000  C
  C486     1.0000 0.29256  0.48779  0.15971  Biso   1.000  C
  C487     1.0000 0.13975  0.27955  0.50255  Biso   1.000  C
  C488     1.0000 0.01827  0.85868  0.81134  Biso   1.000  C
  C489     1.0000 0.70918  0.98865  0.37945  Biso   1.000  C
  C490     1.0000 0.63154  0.26846  0.02885  Biso   1.000  C
  C491     1.0000 0.49929  0.85293  0.73330  Biso   1.000  C
  C492     1.0000 0.20701  0.99069  0.16811  Biso   1.000  C
  C493     1.0000 0.63738  0.20014  0.53923  Biso   1.000  C
  C494     1.0000 0.48502  0.61564  0.23539  Biso   1.000  C
  C495     1.0000 0.21538  0.48403  0.66032  Biso   1.000  C
  C496     1.0000 0.13133  0.19031  0.00862  Biso   1.000  C
  C497     1.0000 0.02128  0.61558  0.31380  Biso   1.000  C
  C498     1.0000 0.71051  0.49085  0.89354  Biso   1.000  C
  C499     1.0000 0.86596  0.70021  0.51350  Biso   1.000  C
  C500     1.0000 0.98561  0.11052  0.24194  Biso   1.000  C
  C501     1.0000 0.29901  0.98440  0.66648  Biso   1.000  C
  C502     1.0000 0.37071  0.69791  0.01967  Biso   1.000  C
  C503     1.0000 0.50983  0.12151  0.31700  Biso   1.000  C
  C504     1.0000 0.79611  0.98826  0.87987  Biso   1.000  C
  C505     1.0000 0.63539  0.51055  0.81818  Biso   1.000  C
  C506     1.0000 0.78855  0.62238  0.50788  Biso   1.000  C
  C507     1.0000 0.50444  0.77679  0.65666  Biso   1.000  C
  C508     1.0000 0.13994  0.49335  0.73404  Biso   1.000  C
  C509     1.0000 0.29502  0.62213  0.01528  Biso   1.000  C
  C510     1.0000 0.01314  0.77736  0.88542  Biso   1.000  C
  C511     1.0000 0.87837  0.99567  0.80911  Biso   1.000  C
  C512     1.0000 0.71343  0.13025  0.51484  Biso   1.000  C
  C513     1.0000 0.02796  0.28161  0.66490  Biso   1.000  C
  C514     1.0000 0.37911  0.98895  0.74122  Biso   1.000  C
  C515     1.0000 0.20852  0.11819  0.03090  Biso   1.000  C
  C516     1.0000 0.51364  0.27904  0.89349  Biso   1.000  C
  C517     1.0000 0.37267  0.48162  0.23332  Biso   1.000  C
  C518     1.0000 0.21712  0.35585  0.51245  Biso   1.000  C
  C519     1.0000 0.52422  0.20063  0.39027  Biso   1.000  C
  C520     1.0000 0.86949  0.48564  0.31685  Biso   1.000  C
  C521     1.0000 0.70910  0.34303  0.01869  Biso   1.000  C
  C522     1.0000 0.99955  0.19032  0.16753  Biso   1.000  C
  C523     1.0000 0.12903  0.99614  0.24144  Biso   1.000  C
  C524     1.0000 0.29553  0.85083  0.52214  Biso   1.000  C
  C525     1.0000 0.01213  0.69347  0.38708  Biso   1.000  C
  C526     1.0000 0.62889  0.97270  0.30673  Biso   1.000  C
  C527     1.0000 0.79384  0.85044  0.01020  Biso   1.000  C
  C528     1.0000 0.49546  0.69079  0.16147  Biso   1.000  C
  C529     1.0000 0.79368  0.11474  0.03706  Biso   1.000  C
  C530     1.0000 0.01901  0.77283  0.14919  Biso   1.000  C
  C531     1.0000 0.14357  0.98600  0.82503  Biso   1.000  C
  C532     1.0000 0.29601  0.11821  0.52534  Biso   1.000  C
  C533     1.0000 0.49667  0.77829  0.39344  Biso   1.000  C
  C534     1.0000 0.64227  0.97249  0.71897  Biso   1.000  C
  C535     1.0000 0.70989  0.60828  0.00565  Biso   1.000  C
  C536     1.0000 0.50173  0.27655  0.16026  Biso   1.000  C
  C537     1.0000 0.36664  0.47440  0.81464  Biso   1.000  C
  C538     1.0000 0.20807  0.62270  0.52025  Biso   1.000  C
  C539     1.0000 0.98446  0.27759  0.39797  Biso   1.000  C
  C540     1.0000 0.87414  0.49388  0.74140  Biso   1.000  C
  C541     1.0000 0.21542  0.85094  0.02535  Biso   1.000  C
  C542     1.0000 0.98628  0.19827  0.89666  Biso   1.000  C
  C543     1.0000 0.85923  0.96460  0.22713  Biso   1.000  C
  C544     1.0000 0.71300  0.86058  0.52229  Biso   1.000  C
  C545     1.0000 0.50055  0.19660  0.65746  Biso   1.000  C
  C546     1.0000 0.36504  0.01487  0.32642  Biso   1.000  C
  C547     1.0000 0.29039  0.35129  0.02227  Biso   1.000  C
  C548     1.0000 0.51484  0.69457  0.89573  Biso   1.000  C
  C549     1.0000 0.63868  0.50057  0.23408  Biso   1.000  C
  C550     1.0000 0.79796  0.36099  0.53897  Biso   1.000  C
  C551     1.0000 0.00824  0.70051  0.65231  Biso   1.000  C
  C552     1.0000 0.14238  0.47765  0.31533  Biso   1.000  C
  C553     1.0000 0.99239  0.12492  0.81848  Biso   1.000  C
  C554     1.0000 0.79028  0.96280  0.14405  Biso   1.000  C
  C555     1.0000 0.13684  0.77772  0.00412  Biso   1.000  C
  C556     1.0000 0.51922  0.11935  0.73330  Biso   1.000  C
  C557     1.0000 0.29256  0.98435  0.40088  Biso   1.000  C
  C558     1.0000 0.63764  0.78408  0.54039  Biso   1.000  C
  C559     1.0000 0.49355  0.62076  0.81756  Biso   1.000  C
  C560     1.0000 0.71345  0.47547  0.16067  Biso   1.000  C
  C561     1.0000 0.36887  0.28005  0.01166  Biso   1.000  C
  C562     1.0000 0.01086  0.62596  0.72705  Biso   1.000  C
  C563     1.0000 0.21450  0.48357  0.39613  Biso   1.000  C
  C564     1.0000 0.87428  0.28187  0.54204  Biso   1.000  C
  C565     1.0000 0.02017  0.84572  0.22964  Biso   1.000  C
  C566     1.0000 0.21892  0.98950  0.90395  Biso   1.000  C
  C567     1.0000 0.87130  0.19330  0.03173  Biso   1.000  C
  C568     1.0000 0.47756  0.85479  0.32043  Biso   1.000  C
  C569     1.0000 0.71471  0.00132  0.64588  Biso   1.000  C
  C570     1.0000 0.36965  0.19549  0.50884  Biso   1.000  C
  C571     1.0000 0.53258  0.35058  0.23205  Biso   1.000  C
  C572     1.0000 0.29584  0.48488  0.89388  Biso   1.000  C
  C573     1.0000 0.64071  0.68813  0.01969  Biso   1.000  C
  C574     1.0000 0.99562  0.34916  0.31869  Biso   1.000  C
  C575     1.0000 0.79646  0.50014  0.66402  Biso   1.000  C
  C576     1.0000 0.13119  0.69712  0.51628  Biso   1.000  C
  C577     1.0000 0.29390  0.48937  0.12886  Biso   1.000  C
  C578     1.0000 0.10851  0.27782  0.50590  Biso   1.000  C
  C579     1.0000 0.50780  0.09121  0.31757  Biso   1.000  C
  C580     1.0000 0.80078  0.48196  0.42947  Biso   1.000  C
  C581     1.0000 0.59938  0.27078  0.02944  Biso   1.000  C
  C582     1.0000 0.98296  0.07993  0.23976  Biso   1.000  C
  C583     1.0000 0.20836  0.98811  0.13761  Biso   1.000  C
  C584     1.0000 0.40208  0.77531  0.51631  Biso   1.000  C
  C585     1.0000 0.01864  0.58393  0.31415  Biso   1.000  C
  C586     1.0000 0.70866  0.99343  0.41093  Biso   1.000  C
  C587     1.0000 0.90092  0.77640  0.02285  Biso   1.000  C
  C588     1.0000 0.48779  0.58326  0.23460  Biso   1.000  C
  C589     1.0000 0.70928  0.48258  0.92462  Biso   1.000  C
  C590     1.0000 0.89646  0.70001  0.51609  Biso   1.000  C
  C591     1.0000 0.50027  0.88482  0.73368  Biso   1.000  C
  C592     1.0000 0.21219  0.48239  0.62850  Biso   1.000  C
  C593     1.0000 0.40251  0.69995  0.02017  Biso   1.000  C
  C594     1.0000 0.01912  0.89067  0.81490  Biso   1.000  C
  C595     1.0000 0.79508  0.98254  0.91042  Biso   1.000  C
  C596     1.0000 0.60611  0.19806  0.54166  Biso   1.000  C
  C597     1.0000 0.01912  0.38871  0.73543  Biso   1.000  C
  C598     1.0000 0.30002  0.98472  0.63466  Biso   1.000  C
  C599     1.0000 0.10000  0.18786  0.00886  Biso   1.000  C
  C600     1.0000 0.51802  0.38520  0.81590  Biso   1.000  C
  C601     1.0000 0.21730  0.99094  0.93525  Biso   1.000  C
  C602     1.0000 0.90214  0.19183  0.03372  Biso   1.000  C
  C603     1.0000 0.01786  0.87682  0.23025  Biso   1.000  C
  C604     1.0000 0.71485  0.00256  0.61316  Biso   1.000  C
  C605     1.0000 0.40147  0.19773  0.50706  Biso   1.000  C
  C606     1.0000 0.47525  0.88672  0.32281  Biso   1.000  C
  C607     1.0000 0.29629  0.48372  0.92542  Biso   1.000  C
  C608     1.0000 0.60984  0.68823  0.02435  Biso   1.000  C
  C609     1.0000 0.53305  0.38355  0.23181  Biso   1.000  C
  C610     1.0000 0.79684  0.50102  0.63259  Biso   1.000  C
  C611     1.0000 0.09891  0.69459  0.51280  Biso   1.000  C
  C612     1.0000 0.00403  0.37951  0.31976  Biso   1.000  C
  C613     1.0000 0.79370  0.96443  0.11299  Biso   1.000  C
  C614     1.0000 0.10596  0.77914  0.00479  Biso   1.000  C
  C615     1.0000 0.00014  0.09370  0.81677  Biso   1.000  C
  C616     1.0000 0.29276  0.98048  0.43214  Biso   1.000  C
  C617     1.0000 0.60532  0.78262  0.54143  Biso   1.000  C
  C618     1.0000 0.51861  0.08820  0.73276  Biso   1.000  C
  C619     1.0000 0.71356  0.46873  0.12866  Biso   1.000  C
  C620     1.0000 0.39990  0.28330  0.00997  Biso   1.000  C
  C621     1.0000 0.49203  0.58927  0.81840  Biso   1.000  C
  C622     1.0000 0.21363  0.48483  0.42651  Biso   1.000  C
  C623     1.0000 0.90563  0.28224  0.54154  Biso   1.000  C
  C624     1.0000 0.00923  0.59509  0.72905  Biso   1.000  C
  C625     1.0000 0.98435  0.19701  0.92903  Biso   1.000  C
  C626     1.0000 0.89228  0.96735  0.23016  Biso   1.000  C
  C627     1.0000 0.21595  0.88317  0.03029  Biso   1.000  C
  C628     1.0000 0.49529  0.19478  0.62651  Biso   1.000  C
  C629     1.0000 0.39717  0.01517  0.32781  Biso   1.000  C
  C630     1.0000 0.71350  0.89078  0.51664  Biso   1.000  C
  C631     1.0000 0.51818  0.69361  0.92692  Biso   1.000  C
  C632     1.0000 0.60767  0.49935  0.23244  Biso   1.000  C
  C633     1.0000 0.29014  0.38278  0.02468  Biso   1.000  C
  C634     1.0000 0.00664  0.69986  0.62023  Biso   1.000  C
  C635     1.0000 0.11095  0.48041  0.31416  Biso   1.000  C
  C636     1.0000 0.79949  0.39249  0.53555  Biso   1.000  C
  C637     1.0000 0.01420  0.77444  0.11733  Biso   1.000  C
  C638     1.0000 0.11182  0.98717  0.82416  Biso   1.000  C
  C639     1.0000 0.79392  0.08337  0.03440  Biso   1.000  C
  C640     1.0000 0.50503  0.77772  0.42298  Biso   1.000  C
  C641     1.0000 0.61098  0.96639  0.71780  Biso   1.000  C
  C642     1.0000 0.29748  0.08701  0.52545  Biso   1.000  C
  C643     1.0000 0.49549  0.27688  0.12950  Biso   1.000  C
  C644     1.0000 0.39770  0.47215  0.81445  Biso   1.000  C
  C645     1.0000 0.70627  0.57663  0.00599  Biso   1.000  C
  C646     1.0000 0.98846  0.27642  0.42870  Biso   1.000  C
  C647     1.0000 0.90520  0.49038  0.73943  Biso   1.000  C
  C648     1.0000 0.20791  0.59108  0.52162  Biso   1.000  C
  C649     1.0000 0.00523  0.69326  0.41710  Biso   1.000  C
  C650     1.0000 0.41065  0.99199  0.74027  Biso   1.000  C
  C651     1.0000 0.70918  0.37457  0.01700  Biso   1.000  C
  C652     1.0000 0.50797  0.69060  0.13153  Biso   1.000  C
  C653     1.0000 0.90994  0.00189  0.81044  Biso   1.000  C
  C654     1.0000 0.21713  0.38677  0.51953  Biso   1.000  C
  C655     1.0000 0.52228  0.20119  0.42203  Biso   1.000  C
  C656     1.0000 0.10919  0.50031  0.73345  Biso   1.000  C
  C657     1.0000 0.79672  0.88272  0.00692  Biso   1.000  C
  C658     1.0000 0.00126  0.19020  0.13657  Biso   1.000  C
  C659     1.0000 0.60339  0.50978  0.81690  Biso   1.000  C
  C660     1.0000 0.29596  0.88333  0.52262  Biso   1.000  C
  C661     1.0000 0.02349  0.27874  0.63338  Biso   1.000  C
  C662     1.0000 0.59862  0.97677  0.30732  Biso   1.000  C
  C663     1.0000 0.29537  0.59087  0.01824  Biso   1.000  C
  C664     1.0000 0.51323  0.28066  0.92554  Biso   1.000  C
  C665     1.0000 0.09781  0.99637  0.24162  Biso   1.000  C
  C666     1.0000 0.78898  0.59040  0.50977  Biso   1.000  C
  C667     1.0000 0.50665  0.77694  0.62504  Biso   1.000  C
  C668     1.0000 0.90050  0.48243  0.31733  Biso   1.000  C
  C669     1.0000 0.20890  0.08791  0.03961  Biso   1.000  C
  C670     1.0000 0.01291  0.77819  0.91722  Biso   1.000  C
  C671     1.0000 0.40385  0.48027  0.23211  Biso   1.000  C
  C672     1.0000 0.71398  0.09776  0.50864  Biso   1.000  C
  C673     1.0000 0.20584  0.98200  0.84045  Biso   1.000  C
  C674     1.0000 0.80891  0.18078  0.03277  Biso   1.000  C
  C675     1.0000 0.01965  0.78307  0.21132  Biso   1.000  C
  C676     1.0000 0.70299  0.98821  0.70675  Biso   1.000  C
  C677     1.0000 0.30704  0.18063  0.51673  Biso   1.000  C
  C678     1.0000 0.48401  0.78950  0.33258  Biso   1.000  C
  C679     1.0000 0.30667  0.47901  0.83272  Biso   1.000  C
  C680     1.0000 0.69897  0.67509  0.00721  Biso   1.000  C
  C681     1.0000 0.52356  0.28877  0.22014  Biso   1.000  C
  C682     1.0000 0.81104  0.49769  0.72866  Biso   1.000  C
  C683     1.0000 0.19454  0.68380  0.52529  Biso   1.000  C
  C684     1.0000 0.98936  0.28674  0.33537  Biso   1.000  C
  C685     1.0000 0.79894  0.96206  0.20625  Biso   1.000  C
  C686     1.0000 0.20117  0.79089  0.00946  Biso   1.000  C
  C687     1.0000 0.99249  0.18710  0.83182  Biso   1.000  C
  C688     1.0000 0.30098  0.00121  0.33924  Biso   1.000  C
  C689     1.0000 0.69812  0.79744  0.52641  Biso   1.000  C
  C690     1.0000 0.50914  0.18246  0.71929  Biso   1.000  C
  C691     1.0000 0.70181  0.48758  0.22239  Biso   1.000  C
  C692     1.0000 0.30405  0.29035  0.01399  Biso   1.000  C
  C693     1.0000 0.50209  0.68380  0.83288  Biso   1.000  C
  C694     1.0000 0.20421  0.47821  0.33133  Biso   1.000  C
  C695     1.0000 0.80827  0.29899  0.53348  Biso   1.000  C
  C696     1.0000 0.01139  0.68642  0.71555  Biso   1.000  C
  C697     1.0000 0.69295  0.97391  0.31838  Biso   1.000  C
  C698     1.0000 0.30947  0.68309  0.01572  Biso   1.000  C
  C699     1.0000 0.01718  0.29518  0.72611  Biso   1.000  C
  C700     1.0000 0.19206  0.99497  0.22985  Biso   1.000  C
  C701     1.0000 0.80261  0.68687  0.51116  Biso   1.000  C
  C702     1.0000 0.51373  0.29140  0.82889  Biso   1.000  C
  C703     1.0000 0.80723  0.48439  0.33559  Biso   1.000  C
  C704     1.0000 0.19499  0.18032  0.01272  Biso   1.000  C
  C705     1.0000 0.49887  0.78893  0.72011  Biso   1.000  C
  C706     1.0000 0.30857  0.47792  0.22204  Biso   1.000  C
  C707     1.0000 0.69902  0.19004  0.53022  Biso   1.000  C
  C708     1.0000 0.01585  0.79538  0.82219  Biso   1.000  C
  C709     1.0000 0.31432  0.97907  0.73126  Biso   1.000  C
  C710     1.0000 0.69542  0.28318  0.02553  Biso   1.000  C
  C711     1.0000 0.01860  0.67855  0.32392  Biso   1.000  C
  C712     1.0000 0.81465  0.99281  0.81754  Biso   1.000  C
  C713     1.0000 0.20118  0.29229  0.50846  Biso   1.000  C
  C714     1.0000 0.48740  0.68061  0.22238  Biso   1.000  C
  C715     1.0000 0.20075  0.48641  0.72214  Biso   1.000  C
  C716     1.0000 0.80673  0.78834  0.01470  Biso   1.000  C
  C717     1.0000 0.52305  0.18515  0.33043  Biso   1.000  C
  C718     1.0000 0.69854  0.50242  0.83224  Biso   1.000  C
  C719     1.0000 0.30645  0.78879  0.52453  Biso   1.000  C
  C720     1.0000 0.98945  0.17556  0.22821  Biso   1.000  C
  C721     1.0000 0.49297  0.79482  0.30171  Biso   1.000  C
  C722     1.0000 0.30943  0.49873  0.80795  Biso   1.000  C
  C723     1.0000 0.78071  0.30186  0.54909  Biso   1.000  C
  C724     1.0000 0.00346  0.75549  0.20772  Biso   1.000  C
  C725     1.0000 0.78622  0.51606  0.72664  Biso   1.000  C
  C726     1.0000 0.27785  0.29485  0.99645  Biso   1.000  C
  C727     1.0000 0.97137  0.25988  0.33709  Biso   1.000  C
  C728     1.0000 0.23502  0.99858  0.84338  Biso   1.000  C
  C729     1.0000 0.72847  0.80042  0.53707  Biso   1.000  C
  C730     1.0000 0.51535  0.29616  0.24851  Biso   1.000  C
  C731     1.0000 0.73283  0.97601  0.69956  Biso   1.000  C
  C732     1.0000 0.23021  0.79670  0.99640  Biso   1.000  C
  C733     1.0000 0.49814  0.17709  0.74843  Biso   1.000  C
  C734     1.0000 0.69629  0.47573  0.25089  Biso   1.000  C
  C735     1.0000 0.19415  0.71002  0.50720  Biso   1.000  C
  C736     1.0000 0.97799  0.21451  0.83254  Biso   1.000  C
  C737     1.0000 0.22911  0.46096  0.33781  Biso   1.000  C
  C738     1.0000 0.72683  0.67378  0.02329  Biso   1.000  C
  C739     1.0000 0.03123  0.68487  0.74011  Biso   1.000  C
  C740     1.0000 0.79924  0.94118  0.22939  Biso   1.000  C
  C741     1.0000 0.27836  0.17432  0.50678  Biso   1.000  C
  C742     1.0000 0.51320  0.67720  0.80423  Biso   1.000  C
  C743     1.0000 0.30584  0.99191  0.30769  Biso   1.000  C
  C744     1.0000 0.81200  0.21077  0.04349  Biso   1.000  C
  C745     1.0000 0.03530  0.70507  0.32575  Biso   1.000  C
  C746     1.0000 0.28759  0.99404  0.72954  Biso   1.000  C
  C747     1.0000 0.72285  0.28903  0.04173  Biso   1.000  C
  C748     1.0000 0.50779  0.70390  0.22322  Biso   1.000  C
  C749     1.0000 0.82034  0.97694  0.79153  Biso   1.000  C
  C750     1.0000 0.22431  0.29528  0.52878  Biso   1.000  C
  C751     1.0000 0.54337  0.18136  0.30790  Biso   1.000  C
  C752     1.0000 0.22355  0.46478  0.72002  Biso   1.000  C
  C753     1.0000 0.78169  0.79193  0.99470  Biso   1.000  C
  C754     1.0000 0.00266  0.17343  0.25666  Biso   1.000  C
  C755     1.0000 0.69290  0.48819  0.80312  Biso   1.000  C
  C756     1.0000 0.28120  0.79218  0.54385  Biso   1.000  C
  C757     1.0000 0.00077  0.26815  0.71988  Biso   1.000  C
  C758     1.0000 0.68786  0.98386  0.28674  Biso   1.000  C
  C759     1.0000 0.28388  0.68205  0.03524  Biso   1.000  C
  C760     1.0000 0.52619  0.29593  0.80049  Biso   1.000  C
  C761     1.0000 0.21733  0.01260  0.22552  Biso   1.000  C
  C762     1.0000 0.80556  0.71531  0.49552  Biso   1.000  C
  C763     1.0000 0.48149  0.76073  0.71717  Biso   1.000  C
  C764     1.0000 0.78215  0.50377  0.33694  Biso   1.000  C
  C765     1.0000 0.21632  0.18341  0.03594  Biso   1.000  C
  C766     1.0000 0.99683  0.79901  0.79585  Biso   1.000  C
  C767     1.0000 0.31430  0.48947  0.25150  Biso   1.000  C
  C768     1.0000 0.69296  0.21781  0.51727  Biso   1.000  C
  C769     1.0000 0.48738  0.71095  0.83764  Biso   1.000  C
  C770     1.0000 0.81156  0.47768  0.75520  Biso   1.000  C
  C771     1.0000 0.69126  0.77220  0.50739  Biso   1.000  C
  C772     1.0000 0.98981  0.70842  0.71579  Biso   1.000  C
  C773     1.0000 0.28037  0.46137  0.83595  Biso   1.000  C
  C774     1.0000 0.19733  0.76301  0.02278  Biso   1.000  C
  C775     1.0000 0.01675  0.18388  0.80914  Biso   1.000  C
  C776     1.0000 0.69892  0.00081  0.73551  Biso   1.000  C
  C777     1.0000 0.81116  0.27447  0.51516  Biso   1.000  C
  C778     1.0000 0.52195  0.21117  0.71329  Biso   1.000  C
  C779     1.0000 0.20153  0.96475  0.81435  Biso   1.000  C
  C780     1.0000 0.30715  0.26188  0.02781  Biso   1.000  C
  C781     1.0000 0.53596  0.25969  0.21505  Biso   1.000  C
  C782     1.0000 0.20303  0.49518  0.30342  Biso   1.000  C
  C783     1.0000 0.31203  0.20979  0.52797  Biso   1.000  C
  C784     1.0000 0.00792  0.28882  0.31002  Biso   1.000  C
  C785     1.0000 0.73105  0.50035  0.21946  Biso   1.000  C
  C786     1.0000 0.77871  0.17419  0.01761  Biso   1.000  C
  C787     1.0000 0.03947  0.78653  0.23682  Biso   1.000  C
  C788     1.0000 0.27130  0.01136  0.34577  Biso   1.000  C
  C789     1.0000 0.21934  0.67907  0.54448  Biso   1.000  C
  C790     1.0000 0.47324  0.75937  0.33710  Biso   1.000  C
  C791     1.0000 0.77493  0.98136  0.20515  Biso   1.000  C
  C792     1.0000 0.69425  0.70107  0.99152  Biso   1.000  C
  C793     1.0000 0.50675  0.21174  0.33359  Biso   1.000  C
  C794     1.0000 0.28134  0.45902  0.21857  Biso   1.000  C
  C795     1.0000 0.20003  0.26586  0.49070  Biso   1.000  C
  C796     1.0000 0.97493  0.20369  0.22288  Biso   1.000  C
  C797     1.0000 0.80943  0.46293  0.31143  Biso   1.000  C
  C798     1.0000 0.69095  0.25533  0.01153  Biso   1.000  C
  C799     1.0000 0.00057  0.67357  0.29597  Biso   1.000  C
  C800     1.0000 0.18782  0.98122  0.25898  Biso   1.000  C
  C801     1.0000 0.30881  0.76006  0.50937  Biso   1.000  C
  C802     1.0000 0.46615  0.67794  0.24688  Biso   1.000  C
  C803     1.0000 0.71884  0.95508  0.32211  Biso   1.000  C
  C804     1.0000 0.80627  0.76325  0.03377  Biso   1.000  C
  C805     1.0000 0.51523  0.79375  0.74757  Biso   1.000  C
  C806     1.0000 0.72768  0.51557  0.83756  Biso   1.000  C
  C807     1.0000 0.77727  0.68291  0.52860  Biso   1.000  C
  C808     1.0000 0.03212  0.76848  0.82544  Biso   1.000  C
  C809     1.0000 0.20217  0.50637  0.74603  Biso   1.000  C
  C810     1.0000 0.31137  0.70492  0.99429  Biso   1.000  C
  C811     1.0000 0.03173  0.29682  0.75425  Biso   1.000  C
  C812     1.0000 0.78809  0.00769  0.81830  Biso   1.000  C
  C813     1.0000 0.72787  0.18639  0.54442  Biso   1.000  C
  C814     1.0000 0.49647  0.26454  0.83323  Biso   1.000  C
  C815     1.0000 0.31971  0.96348  0.75775  Biso   1.000  C
  C816     1.0000 0.19341  0.20308  0.99041  Biso   1.000  C
  C817     1.0000 0.98283  0.23469  0.81104  Biso   1.000  C
  C818     1.0000 0.77743  0.94057  0.24974  Biso   1.000  C
  C819     1.0000 0.25120  0.77573  0.99538  Biso   1.000  C
  C820     1.0000 0.49809  0.19981  0.76810  Biso   1.000  C
  C821     1.0000 0.28352  0.99280  0.28883  Biso   1.000  C
  C822     1.0000 0.74940  0.77863  0.53225  Biso   1.000  C
  C823     1.0000 0.51179  0.69615  0.78228  Biso   1.000  C
  C824     1.0000 0.71644  0.47615  0.27356  Biso   1.000  C
  C825     1.0000 0.25592  0.27393  0.99602  Biso   1.000  C
  C826     1.0000 0.02863  0.70532  0.76189  Biso   1.000  C
  C827     1.0000 0.24965  0.45769  0.31649  Biso   1.000  C
  C828     1.0000 0.76000  0.27956  0.54898  Biso   1.000  C
  C829     1.0000 0.00523  0.73427  0.22803  Biso   1.000  C
  C830     1.0000 0.25646  0.99347  0.82222  Biso   1.000  C
  C831     1.0000 0.79164  0.23165  0.04034  Biso   1.000  C
  C832     1.0000 0.49221  0.77261  0.28082  Biso   1.000  C
  C833     1.0000 0.75585  0.97894  0.72052  Biso   1.000  C
  C834     1.0000 0.25836  0.19744  0.50788  Biso   1.000  C
  C835     1.0000 0.51828  0.27646  0.27285  Biso   1.000  C
  C836     1.0000 0.28947  0.49412  0.78534  Biso   1.000  C
  C837     1.0000 0.74753  0.69457  0.02299  Biso   1.000  C
  C838     1.0000 0.97111  0.23932  0.31628  Biso   1.000  C
  C839     1.0000 0.76337  0.51766  0.74680  Biso   1.000  C
  C840     1.0000 0.21661  0.72906  0.50894  Biso   1.000  C
  C841     1.0000 0.22346  0.96225  0.79417  Biso   1.000  C
  C842     1.0000 0.75892  0.19570  0.01604  Biso   1.000  C
  C843     1.0000 0.03992  0.76591  0.25731  Biso   1.000  C
  C844     1.0000 0.72148  0.00222  0.75533  Biso   1.000  C
  C845     1.0000 0.29117  0.23056  0.52999  Biso   1.000  C
  C846     1.0000 0.47466  0.73738  0.31600  Biso   1.000  C
  C847     1.0000 0.25956  0.45950  0.81390  Biso   1.000  C
  C848     1.0000 0.71537  0.72379  0.99150  Biso   1.000  C
  C849     1.0000 0.53538  0.23998  0.23818  Biso   1.000  C
  C850     1.0000 0.78823  0.47755  0.77418  Biso   1.000  C
  C851     1.0000 0.24449  0.69733  0.54351  Biso   1.000  C
  C852     1.0000 0.00652  0.26687  0.28912  Biso   1.000  C
  C853     1.0000 0.75304  0.97869  0.22604  Biso   1.000  C
  C854     1.0000 0.21814  0.74078  0.02288  Biso   1.000  C
  C855     1.0000 0.02157  0.20662  0.78995  Biso   1.000  C
  C856     1.0000 0.24977  0.01229  0.32384  Biso   1.000  C
  C857     1.0000 0.71202  0.75152  0.50306  Biso   1.000  C
  C858     1.0000 0.52326  0.23194  0.73562  Biso   1.000  C
  C859     1.0000 0.75203  0.49824  0.24145  Biso   1.000  C
  C860     1.0000 0.28476  0.24151  0.02773  Biso   1.000  C
  C861     1.0000 0.48731  0.73061  0.81500  Biso   1.000  C
  C862     1.0000 0.22413  0.49058  0.28253  Biso   1.000  C
  C863     1.0000 0.78865  0.25264  0.51272  Biso   1.000  C
  C864     1.0000 0.98776  0.72890  0.73664  Biso   1.000  C
  C865     1.0000 0.71414  0.48787  0.78125  Biso   1.000  C
  C866     1.0000 0.78474  0.73566  0.49976  Biso   1.000  C
  C867     1.0000 0.48337  0.73908  0.73922  Biso   1.000  C
  C868     1.0000 0.24511  0.46243  0.74134  Biso   1.000  C
  C869     1.0000 0.26333  0.70296  0.02922  Biso   1.000  C
  C870     1.0000 0.99499  0.77709  0.77565  Biso   1.000  C
  C871     1.0000 0.80033  0.97581  0.76819  Biso   1.000  C
  C872     1.0000 0.71443  0.23933  0.51950  Biso   1.000  C
  C873     1.0000 0.99499  0.24694  0.74023  Biso   1.000  C
  C874     1.0000 0.26608  0.99113  0.74951  Biso   1.000  C
  C875     1.0000 0.23543  0.20589  0.03579  Biso   1.000  C
  C876     1.0000 0.52256  0.27355  0.78016  Biso   1.000  C
  C877     1.0000 0.29386  0.48550  0.27409  Biso   1.000  C
  C878     1.0000 0.24212  0.27289  0.53335  Biso   1.000  C
  C879     1.0000 0.54643  0.20359  0.28851  Biso   1.000  C
  C880     1.0000 0.76035  0.50179  0.31468  Biso   1.000  C
  C881     1.0000 0.74510  0.27049  0.04281  Biso   1.000  C
  C882     1.0000 0.00208  0.19659  0.27706  Biso   1.000  C
  C883     1.0000 0.23919  0.01428  0.24722  Biso   1.000  C
  C884     1.0000 0.26070  0.76910  0.54399  Biso   1.000  C
  C885     1.0000 0.03528  0.72496  0.30191  Biso   1.000  C
  C886     1.0000 0.70556  0.97715  0.26452  Biso   1.000  C
  C887     1.0000 0.76145  0.77013  0.99048  Biso   1.000  C
  C888     1.0000 0.50839  0.72428  0.24520  Biso   1.000  C
  C889     1.0000 0.73635  0.95019  0.29861  Biso   1.000  C
  C890     1.0000 0.29139  0.72761  0.99234  Biso   1.000  C
  C891     1.0000 0.02760  0.27456  0.77393  Biso   1.000  C
  C892     1.0000 0.20892  0.98419  0.28061  Biso   1.000  C
  C893     1.0000 0.75591  0.70437  0.53017  Biso   1.000  C
  C894     1.0000 0.49455  0.24358  0.81183  Biso   1.000  C
  C895     1.0000 0.78975  0.46345  0.28901  Biso   1.000  C
  C896     1.0000 0.21585  0.22293  0.98989  Biso   1.000  C
  C897     1.0000 0.51612  0.77111  0.76806  Biso   1.000  C
  C898     1.0000 0.26114  0.45747  0.24047  Biso   1.000  C
  C899     1.0000 0.75003  0.20718  0.54365  Biso   1.000  C
  C900     1.0000 0.02832  0.74812  0.80295  Biso   1.000  C
  C901     1.0000 0.29838  0.96279  0.77908  Biso   1.000  C
  C902     1.0000 0.71478  0.23781  0.01087  Biso   1.000  C
  C903     1.0000 0.00273  0.69207  0.27262  Biso   1.000  C
  C904     1.0000 0.76841  0.00746  0.79563  Biso   1.000  C
  C905     1.0000 0.21917  0.24413  0.49543  Biso   1.000  C
  C906     1.0000 0.46658  0.69915  0.26798  Biso   1.000  C
  C907     1.0000 0.22173  0.50216  0.76877  Biso   1.000  C
  C908     1.0000 0.78572  0.74095  0.02956  Biso   1.000  C
  C909     1.0000 0.50873  0.23207  0.31239  Biso   1.000  C
  C910     1.0000 0.74832  0.51482  0.81558  Biso   1.000  C
  C911     1.0000 0.28797  0.73999  0.51036  Biso   1.000  C
  C912     1.0000 0.97752  0.22787  0.24198  Biso   1.000  C
  C913     1.0000 0.76651  0.49747  0.77046  Biso   1.000  C
  C914     1.0000 0.74045  0.75511  0.51574  Biso   1.000  C
  C915     1.0000 0.50055  0.72370  0.78856  Biso   1.000  C
  C916     1.0000 0.26519  0.47657  0.78829  Biso   1.000  C
  C917     1.0000 0.24534  0.74871  0.01044  Biso   1.000  C
  C918     1.0000 0.00717  0.72705  0.75968  Biso   1.000  C
  C919     1.0000 0.74955  0.99062  0.74836  Biso   1.000  C
  C920     1.0000 0.76401  0.25666  0.52886  Biso   1.000  C
  C921     1.0000 0.00395  0.23043  0.79062  Biso   1.000  C
  C922     1.0000 0.25073  0.97688  0.79778  Biso   1.000  C
  C923     1.0000 0.26045  0.24681  0.00999  Biso   1.000  C
  C924     1.0000 0.50976  0.22746  0.76225  Biso   1.000  C
  C925     1.0000 0.24524  0.46996  0.28836  Biso   1.000  C
  C926     1.0000 0.26368  0.22523  0.51925  Biso   1.000  C
  C927     1.0000 0.52812  0.24881  0.26618  Biso   1.000  C
  C928     1.0000 0.74375  0.48635  0.26898  Biso   1.000  C
  C929     1.0000 0.76427  0.22364  0.02869  Biso   1.000  C
  C930     1.0000 0.98692  0.24385  0.29116  Biso   1.000  C
  C931     1.0000 0.25577  0.00174  0.29592  Biso   1.000  C
  C932     1.0000 0.24059  0.72242  0.52656  Biso   1.000  C
  C933     1.0000 0.02310  0.74034  0.25268  Biso   1.000  C
  C934     1.0000 0.75349  0.95962  0.24833  Biso   1.000  C
  C935     1.0000 0.74230  0.72016  0.00705  Biso   1.000  C
  C936     1.0000 0.48428  0.74406  0.28881  Biso   1.000  C
  C937     1.0000 0.74116  0.24480  0.02639  Biso   1.000  C
  C938     1.0000 0.01955  0.71746  0.27570  Biso   1.000  C
  C939     1.0000 0.27238  0.97571  0.77492  Biso   1.000  C
  C940     1.0000 0.24215  0.24876  0.51516  Biso   1.000  C
  C941     1.0000 0.48676  0.72147  0.26698  Biso   1.000  C
  C942     1.0000 0.77439  0.99152  0.77100  Biso   1.000  C
  C943     1.0000 0.76273  0.74516  0.00966  Biso   1.000  C
  C944     1.0000 0.52735  0.22686  0.29028  Biso   1.000  C
  C945     1.0000 0.24288  0.48129  0.76565  Biso   1.000  C
  C946     1.0000 0.26494  0.74441  0.52840  Biso   1.000  C
  C947     1.0000 0.98691  0.22154  0.26934  Biso   1.000  C
  C948     1.0000 0.74166  0.49837  0.79039  Biso   1.000  C
  C949     1.0000 0.26605  0.72541  0.00989  Biso   1.000  C
  C950     1.0000 0.00882  0.25116  0.76762  Biso   1.000  C
  C951     1.0000 0.73125  0.96278  0.27097  Biso   1.000  C
  C952     1.0000 0.75939  0.73049  0.51527  Biso   1.000  C
  C953     1.0000 0.50681  0.24833  0.78591  Biso   1.000  C
  C954     1.0000 0.23452  0.00004  0.27292  Biso   1.000  C
  C955     1.0000 0.23743  0.22362  0.01142  Biso   1.000  C
  C956     1.0000 0.49936  0.74456  0.76394  Biso   1.000  C
  C957     1.0000 0.76543  0.48276  0.29121  Biso   1.000  C
  C958     1.0000 0.74275  0.23313  0.52766  Biso   1.000  C
  C959     1.0000 0.01114  0.75316  0.77833  Biso   1.000  C
  C960     1.0000 0.26941  0.46806  0.26755  Biso   1.000  C
  Cu1      1.0000 0.00756  0.49006  0.67872  Biso   1.000  Cu
  Cu2      1.0000 0.65914  0.99424  0.51320  Biso   1.000  Cu
  Cu3      1.0000 0.50153  0.63886  0.02802  Biso   1.000  Cu
  Cu4      1.0000 0.50096  0.48705  0.86872  Biso   1.000  Cu
  Cu5      1.0000 0.15537  0.98327  0.03288  Biso   1.000  Cu
  Cu6      1.0000 0.99745  0.63848  0.51791  Biso   1.000  Cu
  Cu7      1.0000 0.50715  0.98481  0.67628  Biso   1.000  Cu
  Cu8      1.0000 0.85298  0.49425  0.53065  Biso   1.000  Cu
  Cu9      1.0000 0.00118  0.13974  0.02960  Biso   1.000  Cu
  Cu10     1.0000 0.00721  0.99068  0.87345  Biso   1.000  Cu
  Cu11     1.0000 0.34825  0.48557  0.02815  Biso   1.000  Cu
  Cu12     1.0000 0.50537  0.14316  0.52301  Biso   1.000  Cu
  Cu13     1.0000 0.00727  0.48470  0.37000  Biso   1.000  Cu
  Cu14     1.0000 0.35298  0.98495  0.53153  Biso   1.000  Cu
  Cu15     1.0000 0.50263  0.33245  0.02669  Biso   1.000  Cu
  Cu16     1.0000 0.50556  0.48400  0.17907  Biso   1.000  Cu
  Cu17     1.0000 0.84874  0.98426  0.01485  Biso   1.000  Cu
  Cu18     1.0000 0.00820  0.33152  0.53049  Biso   1.000  Cu
  Cu19     1.0000 0.49985  0.98888  0.37458  Biso   1.000  Cu
  Cu20     1.0000 0.15830  0.48473  0.52551  Biso   1.000  Cu
  Cu21     1.0000 0.00609  0.83376  0.01911  Biso   1.000  Cu
  Cu22     1.0000 0.99589  0.97818  0.18325  Biso   1.000  Cu
  Cu23     1.0000 0.65601  0.47842  0.02634  Biso   1.000  Cu
  Cu24     1.0000 0.50228  0.83276  0.52444  Biso   1.000  Cu
  Cu25     1.0000 0.20972  0.98785  0.03622  Biso   1.000  Cu
  Cu26     1.0000 0.00419  0.19296  0.03205  Biso   1.000  Cu
  Cu27     1.0000 0.99410  0.97842  0.23601  Biso   1.000  Cu
  Cu28     1.0000 0.71282  0.99507  0.51299  Biso   1.000  Cu
  Cu29     1.0000 0.50584  0.19918  0.52584  Biso   1.000  Cu
  Cu30     1.0000 0.49329  0.98861  0.31959  Biso   1.000  Cu
  Cu31     1.0000 0.29438  0.48917  0.02597  Biso   1.000  Cu
  Cu32     1.0000 0.50737  0.69335  0.02917  Biso   1.000  Cu
  Cu33     1.0000 0.50600  0.48197  0.23267  Biso   1.000  Cu
  Cu34     1.0000 0.79727  0.48970  0.52939  Biso   1.000  Cu
  Cu35     1.0000 0.99826  0.69398  0.51595  Biso   1.000  Cu
  Cu36     1.0000 0.00556  0.48356  0.31389  Biso   1.000  Cu
  Cu37     1.0000 0.79476  0.98358  0.01191  Biso   1.000  Cu
  Cu38     1.0000 0.00390  0.77879  0.01715  Biso   1.000  Cu
  Cu39     1.0000 0.00935  0.99276  0.81920  Biso   1.000  Cu
  Cu40     1.0000 0.29992  0.98678  0.53271  Biso   1.000  Cu
  Cu41     1.0000 0.50455  0.77875  0.52600  Biso   1.000  Cu
  Cu42     1.0000 0.51467  0.98516  0.72908  Biso   1.000  Cu
  Cu43     1.0000 0.70958  0.47790  0.02427  Biso   1.000  Cu
  Cu44     1.0000 0.49937  0.27779  0.02708  Biso   1.000  Cu
  Cu45     1.0000 0.50308  0.48677  0.81513  Biso   1.000  Cu
  Cu46     1.0000 0.21220  0.49065  0.52600  Biso   1.000  Cu
  Cu47     1.0000 0.00610  0.27799  0.52887  Biso   1.000  Cu
  Cu48     1.0000 0.00768  0.49203  0.73379  Biso   1.000  Cu
  H1       1.0000 0.23894  0.77082  0.55253  Biso   1.000  H
  H2       1.0000 0.53319  0.27946  0.75905  Biso   1.000  H
  H3       1.0000 0.74126  0.51496  0.31505  Biso   1.000  H
  H4       1.0000 0.74226  0.77592  0.97829  Biso   1.000  H
  H5       1.0000 0.97708  0.23192  0.73771  Biso   1.000  H
  H6       1.0000 0.29794  0.49234  0.29574  Biso   1.000  H
  H7       1.0000 0.25830  0.27694  0.55130  Biso   1.000  H
  H8       1.0000 0.98316  0.78110  0.75545  Biso   1.000  H
  H9       1.0000 0.70157  0.98763  0.24481  Biso   1.000  H
  H10      1.0000 0.76485  0.27664  0.05310  Biso   1.000  H
  H11      1.0000 0.47169  0.71968  0.73789  Biso   1.000  H
  H12      1.0000 0.25782  0.02739  0.24292  Biso   1.000  H
  H13      1.0000 0.71308  0.26130  0.50948  Biso   1.000  H
  H14      1.0000 0.52620  0.74020  0.24614  Biso   1.000  H
  H15      1.0000 0.26002  0.44458  0.73986  Biso   1.000  H
  H16      1.0000 0.25094  0.20781  0.05478  Biso   1.000  H
  H17      1.0000 0.04433  0.74737  0.30825  Biso   1.000  H
  H18      1.0000 0.71205  0.47688  0.75968  Biso   1.000  H
  H19      1.0000 0.78804  0.75687  0.49090  Biso   1.000  H
  H20      1.0000 0.01195  0.19585  0.29773  Biso   1.000  H
  H21      1.0000 0.24663  0.00269  0.74678  Biso   1.000  H
  H22      1.0000 0.24561  0.70200  0.04387  Biso   1.000  H
  H23      1.0000 0.56230  0.20122  0.27073  Biso   1.000  H
  H24      1.0000 0.80568  0.96389  0.74866  Biso   1.000  H
  H25      1.0000 0.27830  0.00323  0.82681  Biso   1.000  H
  H26      1.0000 0.79683  0.25180  0.04973  Biso   1.000  H
  H27      1.0000 0.99533  0.71271  0.22443  Biso   1.000  H
  H28      1.0000 0.77709  0.96971  0.71659  Biso   1.000  H
  H29      1.0000 0.23715  0.19356  0.49975  Biso   1.000  H
  H30      1.0000 0.49897  0.77684  0.25997  Biso   1.000  H
  H31      1.0000 0.29198  0.50447  0.76489  Biso   1.000  H
  H32      1.0000 0.76880  0.69088  0.03208  Biso   1.000  H
  H33      1.0000 0.51457  0.28342  0.29467  Biso   1.000  H
  H34      1.0000 0.74674  0.53308  0.74538  Biso   1.000  H
  H35      1.0000 0.21405  0.74897  0.49679  Biso   1.000  H
  H36      1.0000 0.95857  0.21896  0.32037  Biso   1.000  H
  H37      1.0000 0.78154  0.92620  0.26793  Biso   1.000  H
  H38      1.0000 0.27225  0.78111  0.98676  Biso   1.000  H
  H39      1.0000 0.96709  0.25230  0.81143  Biso   1.000  H
  H40      1.0000 0.28718  0.98544  0.26640  Biso   1.000  H
  H41      1.0000 0.77173  0.78082  0.54201  Biso   1.000  H
  H42      1.0000 0.48915  0.19294  0.78968  Biso   1.000  H
  H43      1.0000 0.71076  0.46544  0.29366  Biso   1.000  H
  H44      1.0000 0.23654  0.27615  0.98123  Biso   1.000  H
  H45      1.0000 0.52179  0.69004  0.76225  Biso   1.000  H
  H46      1.0000 0.26918  0.44694  0.32004  Biso   1.000  H
  H47      1.0000 0.73974  0.27935  0.56325  Biso   1.000  H
  H48      1.0000 0.04315  0.70256  0.78069  Biso   1.000  H
  H49      1.0000 0.22529  0.50382  0.26347  Biso   1.000  H
  H50      1.0000 0.29628  0.25277  0.53796  Biso   1.000  H
  H51      1.0000 0.53792  0.21774  0.23293  Biso   1.000  H
  H52      1.0000 0.77423  0.50534  0.23861  Biso   1.000  H
  H53      1.0000 0.73870  0.19061  0.00466  Biso   1.000  H
  H54      1.0000 0.01883  0.26982  0.26950  Biso   1.000  H
  H55      1.0000 0.22933  0.02245  0.32704  Biso   1.000  H
  H56      1.0000 0.26273  0.69566  0.55676  Biso   1.000  H
  H57      1.0000 0.05507  0.76509  0.27589  Biso   1.000  H
  H58      1.0000 0.73654  0.99436  0.22407  Biso   1.000  H
  H59      1.0000 0.71194  0.74302  0.97991  Biso   1.000  H
  H60      1.0000 0.46725  0.71659  0.32250  Biso   1.000  H
  H61      1.0000 0.78609  0.45977  0.78987  Biso   1.000  H
  H62      1.0000 0.70635  0.73202  0.49027  Biso   1.000  H
  H63      1.0000 0.47764  0.75203  0.81767  Biso   1.000  H
  H64      1.0000 0.24072  0.44555  0.81562  Biso   1.000  H
  H65      1.0000 0.21124  0.71825  0.02978  Biso   1.000  H
  H66      1.0000 0.97413  0.74810  0.73049  Biso   1.000  H
  H67      1.0000 0.71420  0.01066  0.77709  Biso   1.000  H
  H68      1.0000 0.79203  0.23195  0.50118  Biso   1.000  H
  H69      1.0000 0.03966  0.20524  0.77720  Biso   1.000  H
  H70      1.0000 0.22025  0.94847  0.77536  Biso   1.000  H
  H71      1.0000 0.28766  0.22094  0.03778  Biso   1.000  H
  H72      1.0000 0.53511  0.25106  0.73157  Biso   1.000  H
  H73      1.0000 0.77066  0.52415  0.81788  Biso   1.000  H
  H74      1.0000 0.73668  0.70144  0.54351  Biso   1.000  H
  H75      1.0000 0.53027  0.77231  0.78761  Biso   1.000  H
  H76      1.0000 0.22343  0.51927  0.78658  Biso   1.000  H
  H77      1.0000 0.29230  0.74516  0.97614  Biso   1.000  H
  H78      1.0000 0.03970  0.72725  0.80640  Biso   1.000  H
  H79      1.0000 0.74835  0.01843  0.80142  Biso   1.000  H
  H80      1.0000 0.77191  0.20327  0.55244  Biso   1.000  H
  H81      1.0000 0.03834  0.27426  0.79567  Biso   1.000  H
  H82      1.0000 0.30324  0.95423  0.80076  Biso   1.000  H
  H83      1.0000 0.21711  0.23757  0.97082  Biso   1.000  H
  H84      1.0000 0.48269  0.22298  0.81185  Biso   1.000  H
  H85      1.0000 0.24224  0.44644  0.23880  Biso   1.000  H
  H86      1.0000 0.21804  0.22551  0.48379  Biso   1.000  H
  H87      1.0000 0.49237  0.24945  0.31216  Biso   1.000  H
  H88      1.0000 0.79402  0.44981  0.26974  Biso   1.000  H
  H89      1.0000 0.70969  0.21650  0.00097  Biso   1.000  H
  H90      1.0000 0.96942  0.24815  0.23475  Biso   1.000  H
  H91      1.0000 0.20830  0.97515  0.30154  Biso   1.000  H
  H92      1.0000 0.28910  0.72212  0.49611  Biso   1.000  H
  H93      1.0000 0.98839  0.68572  0.25363  Biso   1.000  H
  H94      1.0000 0.75556  0.93717  0.30462  Biso   1.000  H
  H95      1.0000 0.78753  0.72394  0.04589  Biso   1.000  H
  H96      1.0000 0.45270  0.69839  0.28606  Biso   1.000  H
  H97      1.0000 0.86898  0.99353  0.92775  Biso   1.000  H
  H98      1.0000 0.91308  0.85259  0.01692  Biso   1.000  H
  H99      1.0000 0.01164  0.89421  0.89153  Biso   1.000  H
  H100     1.0000 0.37402  0.97618  0.62775  Biso   1.000  H
  H101     1.0000 0.41128  0.84977  0.51219  Biso   1.000  H
  H102     1.0000 0.50430  0.89739  0.66049  Biso   1.000  H
  H103     1.0000 0.63309  0.48712  0.93256  Biso   1.000  H
  H104     1.0000 0.59197  0.34771  0.02570  Biso   1.000  H
  H105     1.0000 0.52887  0.39851  0.88837  Biso   1.000  H
  H106     1.0000 0.13470  0.48350  0.61884  Biso   1.000  H
  H107     1.0000 0.09470  0.35155  0.51824  Biso   1.000  H
  H108     1.0000 0.01431  0.39794  0.66118  Biso   1.000  H
  H109     1.0000 0.13127  0.98262  0.12425  Biso   1.000  H
  H110     1.0000 0.09158  0.11388  0.01843  Biso   1.000  H
  H111     1.0000 0.98490  0.07233  0.16188  Biso   1.000  H
  H112     1.0000 0.63381  0.99741  0.41862  Biso   1.000  H
  H113     1.0000 0.59573  0.12149  0.53570  Biso   1.000  H
  H114     1.0000 0.50603  0.07802  0.39192  Biso   1.000  H
  H115     1.0000 0.37112  0.48350  0.12113  Biso   1.000  H
  H116     1.0000 0.41527  0.62370  0.02326  Biso   1.000  H
  H117     1.0000 0.49740  0.57458  0.16121  Biso   1.000  H
  H118     1.0000 0.87467  0.48628  0.44181  Biso   1.000  H
  H119     1.0000 0.90260  0.62184  0.51523  Biso   1.000  H
  H120     1.0000 0.99378  0.57453  0.38433  Biso   1.000  H
  H121     1.0000 0.10010  0.98640  0.89949  Biso   1.000  H
  H122     1.0000 0.86907  0.07449  0.03534  Biso   1.000  H
  H123     1.0000 0.00385  0.84915  0.10833  Biso   1.000  H
  H124     1.0000 0.59644  0.97410  0.64490  Biso   1.000  H
  H125     1.0000 0.37226  0.07649  0.52499  Biso   1.000  H
  H126     1.0000 0.50970  0.85582  0.43202  Biso   1.000  H
  H127     1.0000 0.41403  0.47641  0.88979  Biso   1.000  H
  H128     1.0000 0.63417  0.57117  0.01919  Biso   1.000  H
  H129     1.0000 0.50504  0.34966  0.11535  Biso   1.000  H
  H130     1.0000 0.91462  0.49454  0.66372  Biso   1.000  H
  H131     1.0000 0.13245  0.57680  0.52425  Biso   1.000  H
  H132     1.0000 0.00151  0.35138  0.43945  Biso   1.000  H
  H133     1.0000 0.91142  0.96165  0.15688  Biso   1.000  H
  H134     1.0000 0.14082  0.89601  0.02314  Biso   1.000  H
  H135     1.0000 0.99164  0.12081  0.93835  Biso   1.000  H
  H136     1.0000 0.41191  0.00240  0.40018  Biso   1.000  H
  H137     1.0000 0.63766  0.90034  0.52018  Biso   1.000  H
  H138     1.0000 0.50124  0.12085  0.61589  Biso   1.000  H
  H139     1.0000 0.59483  0.48063  0.16079  Biso   1.000  H
  H140     1.0000 0.36660  0.39674  0.01901  Biso   1.000  H
  H141     1.0000 0.51468  0.61853  0.93919  Biso   1.000  H
  H142     1.0000 0.09772  0.48803  0.38877  Biso   1.000  H
  H143     1.0000 0.87581  0.40279  0.53180  Biso   1.000  H
  H144     1.0000 0.01234  0.62547  0.60623  Biso   1.000  H
  H145     1.0000 0.58991  0.49983  0.88906  Biso   1.000  H
  H146     1.0000 0.86469  0.58453  0.50984  Biso   1.000  H
  H147     1.0000 0.50173  0.85299  0.61523  Biso   1.000  H
  H148     1.0000 0.09812  0.49441  0.65523  Biso   1.000  H
  H149     1.0000 0.37281  0.57882  0.02136  Biso   1.000  H
  H150     1.0000 0.01561  0.85577  0.92614  Biso   1.000  H
  H151     1.0000 0.91556  0.99821  0.88789  Biso   1.000  H
  H152     1.0000 0.63698  0.08338  0.51726  Biso   1.000  H
  H153     1.0000 0.00750  0.35369  0.62041  Biso   1.000  H
  H154     1.0000 0.41618  0.98388  0.66414  Biso   1.000  H
  H155     1.0000 0.13245  0.07347  0.03264  Biso   1.000  H
  H156     1.0000 0.51604  0.35570  0.93422  Biso   1.000  H
  H157     1.0000 0.40969  0.47855  0.15660  Biso   1.000  H
  H158     1.0000 0.14086  0.39754  0.52131  Biso   1.000  H
  H159     1.0000 0.51114  0.12737  0.43698  Biso   1.000  H
  H160     1.0000 0.91607  0.48014  0.39279  Biso   1.000  H
  H161     1.0000 0.63424  0.38733  0.01944  Biso   1.000  H
  H162     1.0000 0.00323  0.11454  0.12426  Biso   1.000  H
  H163     1.0000 0.08703  0.99231  0.16509  Biso   1.000  H
  H164     1.0000 0.37045  0.89268  0.51800  Biso   1.000  H
  H165     1.0000 0.99409  0.62037  0.42752  Biso   1.000  H
  H166     1.0000 0.58937  0.99003  0.37902  Biso   1.000  H
  H167     1.0000 0.87227  0.89176  0.00806  Biso   1.000  H
  H168     1.0000 0.50508  0.61634  0.12065  Biso   1.000  H
  H169     1.0000 0.99911  0.08231  0.89223  Biso   1.000  H
  H170     1.0000 0.87038  0.97141  0.10888  Biso   1.000  H
  H171     1.0000 0.09902  0.85393  0.01348  Biso   1.000  H
  H172     1.0000 0.50709  0.07669  0.66083  Biso   1.000  H
  H173     1.0000 0.36864  0.99669  0.44436  Biso   1.000  H
  H174     1.0000 0.59281  0.85671  0.53378  Biso   1.000  H
  H175     1.0000 0.50326  0.57681  0.89125  Biso   1.000  H
  H176     1.0000 0.64084  0.48665  0.11442  Biso   1.000  H
  H177     1.0000 0.41079  0.35775  0.01130  Biso   1.000  H
  H178     1.0000 0.01273  0.58200  0.65458  Biso   1.000  H
  H179     1.0000 0.13880  0.48756  0.43469  Biso   1.000  H
  H180     1.0000 0.91782  0.35767  0.53517  Biso   1.000  H
  H181     1.0000 0.00513  0.89057  0.15570  Biso   1.000  H
  H182     1.0000 0.13983  0.99518  0.94064  Biso   1.000  H
  H183     1.0000 0.91206  0.11892  0.04902  Biso   1.000  H
  H184     1.0000 0.49768  0.89415  0.39486  Biso   1.000  H
  H185     1.0000 0.63988  0.98401  0.60232  Biso   1.000  H
  H186     1.0000 0.41587  0.12464  0.51505  Biso   1.000  H
  H187     1.0000 0.51024  0.39360  0.15863  Biso   1.000  H
  H188     1.0000 0.37173  0.48960  0.93512  Biso   1.000  H
  H189     1.0000 0.59380  0.61410  0.02585  Biso   1.000  H
  H190     1.0000 0.00105  0.39296  0.39684  Biso   1.000  H
  H191     1.0000 0.87129  0.50321  0.62162  Biso   1.000  H
  H192     1.0000 0.08854  0.62033  0.51475  Biso   1.000  H
  H193     1.0000 0.27545  0.83944  0.51870  Biso   1.000  H
  H194     1.0000 0.51262  0.25770  0.88379  Biso   1.000  H
  H195     1.0000 0.85671  0.49165  0.29743  Biso   1.000  H
  H196     1.0000 0.77158  0.83894  0.00940  Biso   1.000  H
  H197     1.0000 0.03393  0.26227  0.67685  Biso   1.000  H
  H198     1.0000 0.36359  0.48350  0.25520  Biso   1.000  H
  H199     1.0000 0.23870  0.34398  0.50980  Biso   1.000  H
  H200     1.0000 0.01215  0.75697  0.87379  Biso   1.000  H
  H201     1.0000 0.63846  0.96643  0.28656  Biso   1.000  H
  H202     1.0000 0.72948  0.33305  0.01484  Biso   1.000  H
  H203     1.0000 0.50462  0.75437  0.66643  Biso   1.000  H
  H204     1.0000 0.14077  0.99865  0.26247  Biso   1.000  H
  H205     1.0000 0.73215  0.14449  0.51192  Biso   1.000  H
  H206     1.0000 0.49090  0.71163  0.17265  Biso   1.000  H
  H207     1.0000 0.15079  0.49045  0.75479  Biso   1.000  H
  H208     1.0000 0.22931  0.12796  0.02730  Biso   1.000  H
  H209     1.0000 0.01451  0.71458  0.37864  Biso   1.000  H
  H210     1.0000 0.64793  0.51690  0.79964  Biso   1.000  H
  H211     1.0000 0.76646  0.63359  0.50449  Biso   1.000  H
  H212     1.0000 0.00381  0.20943  0.18058  Biso   1.000  H
  H213     1.0000 0.37024  0.99022  0.76201  Biso   1.000  H
  H214     1.0000 0.27476  0.63275  0.01027  Biso   1.000  H
  H215     1.0000 0.53247  0.21888  0.38013  Biso   1.000  H
  H216     1.0000 0.86665  0.99667  0.78753  Biso   1.000  H
  H217     1.0000 0.23680  0.48494  0.38695  Biso   1.000  H
  H218     1.0000 0.35603  0.21474  0.50351  Biso   1.000  H
  H219     1.0000 0.54079  0.34050  0.25086  Biso   1.000  H
  H220     1.0000 0.73284  0.47173  0.17419  Biso   1.000  H
  H221     1.0000 0.86167  0.21375  0.02750  Biso   1.000  H
  H222     1.0000 0.99242  0.33685  0.29873  Biso   1.000  H
  H223     1.0000 0.27227  0.98066  0.38921  Biso   1.000  H
  H224     1.0000 0.14003  0.71937  0.51681  Biso   1.000  H
  H225     1.0000 0.02172  0.83558  0.25095  Biso   1.000  H
  H226     1.0000 0.76755  0.96201  0.15261  Biso   1.000  H
  H227     1.0000 0.65125  0.70864  0.01549  Biso   1.000  H
  H228     1.0000 0.47720  0.84548  0.30023  Biso   1.000  H
  H229     1.0000 0.77694  0.49933  0.67595  Biso   1.000  H
  H230     1.0000 0.64937  0.76489  0.54336  Biso   1.000  H
  H231     1.0000 0.48682  0.63278  0.79801  Biso   1.000  H
  H232     1.0000 0.27514  0.48719  0.88376  Biso   1.000  H
  H233     1.0000 0.14448  0.75670  0.99711  Biso   1.000  H
  H234     1.0000 0.01334  0.63621  0.74738  Biso   1.000  H
  H235     1.0000 0.73394  0.01105  0.65771  Biso   1.000  H
  H236     1.0000 0.86073  0.26294  0.54257  Biso   1.000  H
  H237     1.0000 0.98803  0.13637  0.79812  Biso   1.000  H
  H238     1.0000 0.23991  0.98643  0.89445  Biso   1.000  H
  H239     1.0000 0.35958  0.25784  0.01193  Biso   1.000  H
  H240     1.0000 0.52332  0.13152  0.75368  Biso   1.000  H
  H241     1.0000 0.73284  0.49155  0.88127  Biso   1.000  H
  H242     1.0000 0.85691  0.72169  0.51674  Biso   1.000  H
  H243     1.0000 0.49401  0.84207  0.75459  Biso   1.000  H
  H244     1.0000 0.23691  0.48473  0.67100  Biso   1.000  H
  H245     1.0000 0.35692  0.71715  0.02385  Biso   1.000  H
  H246     1.0000 0.01671  0.85068  0.78952  Biso   1.000  H
  H247     1.0000 0.77692  0.98272  0.86759  Biso   1.000  H
  H248     1.0000 0.64774  0.22187  0.53840  Biso   1.000  H
  H249     1.0000 0.02268  0.34794  0.75842  Biso   1.000  H
  H250     1.0000 0.27792  0.98534  0.67553  Biso   1.000  H
  H251     1.0000 0.14148  0.21233  0.00684  Biso   1.000  H
  H252     1.0000 0.50772  0.34207  0.79403  Biso   1.000  H
  H253     1.0000 0.27141  0.48664  0.16998  Biso   1.000  H
  H254     1.0000 0.14886  0.25714  0.50061  Biso   1.000  H
  H255     1.0000 0.50995  0.13069  0.29591  Biso   1.000  H
  H256     1.0000 0.77705  0.48261  0.38847  Biso   1.000  H
  H257     1.0000 0.64156  0.24672  0.03112  Biso   1.000  H
  H258     1.0000 0.98231  0.12042  0.26211  Biso   1.000  H
  H259     1.0000 0.22671  0.99227  0.18083  Biso   1.000  H
  H260     1.0000 0.36123  0.75447  0.52233  Biso   1.000  H
  H261     1.0000 0.02910  0.62789  0.29540  Biso   1.000  H
  H262     1.0000 0.72961  0.99000  0.36841  Biso   1.000  H
  H263     1.0000 0.85440  0.75762  0.02217  Biso   1.000  H
  H264     1.0000 0.48185  0.62739  0.25598  Biso   1.000  H
  H265     1.0000 0.99068  0.21914  0.88588  Biso   1.000  H
  H266     1.0000 0.84421  0.96627  0.24609  Biso   1.000  H
  H267     1.0000 0.23564  0.83927  0.02700  Biso   1.000  H
  H268     1.0000 0.49783  0.21848  0.66906  Biso   1.000  H
  H269     1.0000 0.34981  0.02061  0.30728  Biso   1.000  H
  H270     1.0000 0.73394  0.85083  0.52063  Biso   1.000  H
  H271     1.0000 0.51787  0.71547  0.88453  Biso   1.000  H
  H272     1.0000 0.64899  0.50858  0.25341  Biso   1.000  H
  H273     1.0000 0.26923  0.33924  0.02576  Biso   1.000  H
  H274     1.0000 0.00744  0.71969  0.66409  Biso   1.000  H
  H275     1.0000 0.15455  0.47559  0.29614  Biso   1.000  H
  H276     1.0000 0.77710  0.35212  0.53727  Biso   1.000  H
  H277     1.0000 0.02229  0.75262  0.16084  Biso   1.000  H
  H278     1.0000 0.15302  0.98795  0.80422  Biso   1.000  H
  H279     1.0000 0.77282  0.12462  0.04148  Biso   1.000  H
  H280     1.0000 0.50029  0.75981  0.37976  Biso   1.000  H
  H281     1.0000 0.65218  0.96983  0.74012  Biso   1.000  H
  H282     1.0000 0.27456  0.12773  0.52636  Biso   1.000  H
  H283     1.0000 0.49700  0.25672  0.17231  Biso   1.000  H
  H284     1.0000 0.35555  0.47095  0.79366  Biso   1.000  H
  H285     1.0000 0.73000  0.61877  0.99892  Biso   1.000  H
  H286     1.0000 0.98072  0.25637  0.38888  Biso   1.000  H
  H287     1.0000 0.86501  0.49559  0.76217  Biso   1.000  H
  H288     1.0000 0.22879  0.63501  0.51756  Biso   1.000  H
  H289     1.0000 0.08821  0.20806  0.00308  Biso   1.000  H
  H290     1.0000 0.97791  0.06701  0.25739  Biso   1.000  H
  H291     1.0000 0.22802  0.98816  0.12540  Biso   1.000  H
  H292     1.0000 0.59610  0.21838  0.54654  Biso   1.000  H
  H293     1.0000 0.50475  0.07760  0.29717  Biso   1.000  H
  H294     1.0000 0.72927  0.99562  0.42313  Biso   1.000  H
  H295     1.0000 0.41220  0.72087  0.02324  Biso   1.000  H
  H296     1.0000 0.48382  0.57106  0.25461  Biso   1.000  H
  H297     1.0000 0.27399  0.49173  0.11480  Biso   1.000  H
  H298     1.0000 0.90617  0.72112  0.51952  Biso   1.000  H
  H299     1.0000 0.02165  0.57173  0.29432  Biso   1.000  H
  H300     1.0000 0.78011  0.47917  0.44031  Biso   1.000  H
  H301     1.0000 0.91124  0.75561  0.02614  Biso   1.000  H
  H302     1.0000 0.01856  0.90509  0.79572  Biso   1.000  H
  H303     1.0000 0.77428  0.97870  0.92088  Biso   1.000  H
  H304     1.0000 0.41440  0.75543  0.51733  Biso   1.000  H
  H305     1.0000 0.49511  0.89564  0.75486  Biso   1.000  H
  H306     1.0000 0.28050  0.98786  0.62274  Biso   1.000  H
  H307     1.0000 0.58593  0.25198  0.03186  Biso   1.000  H
  H308     1.0000 0.51416  0.39296  0.79463  Biso   1.000  H
  H309     1.0000 0.72946  0.48114  0.93698  Biso   1.000  H
  H310     1.0000 0.09559  0.25755  0.50345  Biso   1.000  H
  H311     1.0000 0.02330  0.39905  0.75739  Biso   1.000  H
  H312     1.0000 0.23102  0.47799  0.61697  Biso   1.000  H
  H313     1.0000 0.23694  0.99350  0.94855  Biso   1.000  H
  H314     1.0000 0.91419  0.21045  0.02727  Biso   1.000  H
  H315     1.0000 0.02126  0.88797  0.25002  Biso   1.000  H
  H316     1.0000 0.73531  0.01203  0.60418  Biso   1.000  H
  H317     1.0000 0.41342  0.21887  0.50321  Biso   1.000  H
  H318     1.0000 0.46817  0.90137  0.30528  Biso   1.000  H
  H319     1.0000 0.27586  0.48548  0.93970  Biso   1.000  H
  H320     1.0000 0.59809  0.70925  0.02363  Biso   1.000  H
  H321     1.0000 0.54274  0.39622  0.25040  Biso   1.000  H
  H322     1.0000 0.77484  0.50161  0.62331  Biso   1.000  H
  H323     1.0000 0.09012  0.71506  0.50814  Biso   1.000  H
  H324     1.0000 0.00603  0.38926  0.29783  Biso   1.000  H
  H325     1.0000 0.77357  0.96534  0.10038  Biso   1.000  H
  H326     1.0000 0.09268  0.76035  0.00697  Biso   1.000  H
  H327     1.0000 0.00022  0.08558  0.79558  Biso   1.000  H
  H328     1.0000 0.27236  0.97509  0.44337  Biso   1.000  H
  H329     1.0000 0.59222  0.76412  0.54475  Biso   1.000  H
  H330     1.0000 0.52504  0.07479  0.74998  Biso   1.000  H
  H331     1.0000 0.73353  0.46015  0.11822  Biso   1.000  H
  H332     1.0000 0.41302  0.26407  0.01029  Biso   1.000  H
  H333     1.0000 0.48401  0.58045  0.79798  Biso   1.000  H
  H334     1.0000 0.23443  0.48597  0.43875  Biso   1.000  H
  H335     1.0000 0.91570  0.25977  0.54295  Biso   1.000  H
  H336     1.0000 0.01191  0.58346  0.74845  Biso   1.000  H
  H337     1.0000 0.97927  0.21689  0.94053  Biso   1.000  H
  H338     1.0000 0.90225  0.97180  0.25074  Biso   1.000  H
  H339     1.0000 0.23659  0.89503  0.03317  Biso   1.000  H
  H340     1.0000 0.48823  0.21315  0.61530  Biso   1.000  H
  H341     1.0000 0.40921  0.02232  0.30782  Biso   1.000  H
  H342     1.0000 0.73333  0.90384  0.51252  Biso   1.000  H
  H343     1.0000 0.52321  0.71328  0.93769  Biso   1.000  H
  H344     1.0000 0.59736  0.50281  0.25254  Biso   1.000  H
  H345     1.0000 0.27008  0.39441  0.02927  Biso   1.000  H
  H346     1.0000 0.00350  0.71979  0.60793  Biso   1.000  H
  H347     1.0000 0.10229  0.47845  0.29170  Biso   1.000  H
  H348     1.0000 0.77916  0.40269  0.53251  Biso   1.000  H
  H349     1.0000 0.01490  0.75507  0.10465  Biso   1.000  H
  H350     1.0000 0.10171  0.98809  0.80401  Biso   1.000  H
  H351     1.0000 0.77333  0.07000  0.03511  Biso   1.000  H
  H352     1.0000 0.50988  0.75660  0.43342  Biso   1.000  H
  H353     1.0000 0.59935  0.96219  0.73772  Biso   1.000  H
  H354     1.0000 0.27929  0.07348  0.52646  Biso   1.000  H
  H355     1.0000 0.48617  0.25803  0.12011  Biso   1.000  H
  H356     1.0000 0.40585  0.46639  0.79387  Biso   1.000  H
  H357     1.0000 0.72276  0.56243  0.99711  Biso   1.000  H
  H358     1.0000 0.98554  0.25721  0.44063  Biso   1.000  H
  H359     1.0000 0.91886  0.48589  0.75881  Biso   1.000  H
  H360     1.0000 0.22929  0.58259  0.51933  Biso   1.000  H
  H361     1.0000 0.00642  0.71320  0.43010  Biso   1.000  H
  H362     1.0000 0.42249  0.99961  0.75901  Biso   1.000  H
  H363     1.0000 0.73171  0.38401  0.01265  Biso   1.000  H
  H364     1.0000 0.51690  0.71177  0.12336  Biso   1.000  H
  H365     1.0000 0.92052  0.00322  0.78875  Biso   1.000  H
  H366     1.0000 0.23875  0.39752  0.52003  Biso   1.000  H
  H367     1.0000 0.52642  0.21997  0.43407  Biso   1.000  H
  H368     1.0000 0.09900  0.50809  0.75355  Biso   1.000  H
  H369     1.0000 0.77679  0.89497  0.00294  Biso   1.000  H
  H370     1.0000 0.00458  0.21006  0.12594  Biso   1.000  H
  H371     1.0000 0.59286  0.51738  0.79766  Biso   1.000  H
  H372     1.0000 0.27628  0.89580  0.52325  Biso   1.000  H
  H373     1.0000 0.02291  0.25624  0.62395  Biso   1.000  H
  H374     1.0000 0.58569  0.97365  0.28720  Biso   1.000  H
  H375     1.0000 0.27411  0.57993  0.01625  Biso   1.000  H
  H376     1.0000 0.51211  0.25932  0.93841  Biso   1.000  H
  H377     1.0000 0.08584  0.99771  0.26061  Biso   1.000  H
  H378     1.0000 0.77124  0.57404  0.51018  Biso   1.000  H
  H379     1.0000 0.50891  0.75678  0.61330  Biso   1.000  H
  H380     1.0000 0.90820  0.47700  0.29501  Biso   1.000  H
  H381     1.0000 0.22772  0.07582  0.04312  Biso   1.000  H
  H382     1.0000 0.01399  0.75841  0.92819  Biso   1.000  H
  H383     1.0000 0.41410  0.48188  0.25327  Biso   1.000  H
  H384     1.0000 0.73545  0.08792  0.50278  Biso   1.000  H
  H385     1.0000 0.23076  0.45012  0.35844  Biso   1.000  H
  H386     1.0000 0.27168  0.15357  0.49818  Biso   1.000  H
  H387     1.0000 0.50243  0.31510  0.25344  Biso   1.000  H
  H388     1.0000 0.67419  0.47140  0.25882  Biso   1.000  H
  H389     1.0000 0.83076  0.21818  0.05737  Biso   1.000  H
  H390     1.0000 0.95749  0.25473  0.35455  Biso   1.000  H
  H391     1.0000 0.32586  0.98181  0.29992  Biso   1.000  H
  H392     1.0000 0.17542  0.71630  0.49397  Biso   1.000  H
  H393     1.0000 0.98794  0.74912  0.18836  Biso   1.000  H
  H394     1.0000 0.81465  0.92374  0.22891  Biso   1.000  H
  H395     1.0000 0.73230  0.65302  0.03231  Biso   1.000  H
  H396     1.0000 0.50402  0.81493  0.29545  Biso   1.000  H
  H397     1.0000 0.78425  0.53062  0.70819  Biso   1.000  H
  H398     1.0000 0.73471  0.81961  0.54820  Biso   1.000  H
  H399     1.0000 0.52329  0.65663  0.79835  Biso   1.000  H
  H400     1.0000 0.32712  0.51629  0.80522  Biso   1.000  H
  H401     1.0000 0.23444  0.81768  0.98647  Biso   1.000  H
  H402     1.0000 0.04766  0.66871  0.74229  Biso   1.000  H
  H403     1.0000 0.73952  0.96503  0.67995  Biso   1.000  H
  H404     1.0000 0.77668  0.31943  0.56395  Biso   1.000  H
  H405     1.0000 0.96281  0.22187  0.85046  Biso   1.000  H
  H406     1.0000 0.23745  0.01422  0.85968  Biso   1.000  H
  H407     1.0000 0.27720  0.31413  0.98326  Biso   1.000  H
  H408     1.0000 0.48734  0.15633  0.75583  Biso   1.000  H
  H409     1.0000 0.27841  0.44851  0.19682  Biso   1.000  H
  H410     1.0000 0.18358  0.26194  0.47322  Biso   1.000  H
  H411     1.0000 0.48955  0.21341  0.34951  Biso   1.000  H
  H412     1.0000 0.82571  0.44725  0.31232  Biso   1.000  H
  H413     1.0000 0.66960  0.25061  0.00030  Biso   1.000  H
  H414     1.0000 0.96028  0.20616  0.20356  Biso   1.000  H
  H415     1.0000 0.16779  0.96861  0.26382  Biso   1.000  H
  H416     1.0000 0.32611  0.75888  0.49301  Biso   1.000  H
  H417     1.0000 0.98597  0.65500  0.29338  Biso   1.000  H
  H418     1.0000 0.72054  0.94125  0.34262  Biso   1.000  H
  H419     1.0000 0.82430  0.76068  0.05087  Biso   1.000  H
  H420     1.0000 0.45167  0.65942  0.24860  Biso   1.000  H
  H421     1.0000 0.73020  0.52896  0.85788  Biso   1.000  H
  H422     1.0000 0.77362  0.66367  0.54246  Biso   1.000  H
  H423     1.0000 0.52690  0.81435  0.75083  Biso   1.000  H
  H424     1.0000 0.18536  0.52253  0.74896  Biso   1.000  H
  H425     1.0000 0.32954  0.70457  0.97829  Biso   1.000  H
  H426     1.0000 0.04671  0.76564  0.84435  Biso   1.000  H
  H427     1.0000 0.77956  0.01742  0.83904  Biso   1.000  H
  H428     1.0000 0.73287  0.16543  0.55623  Biso   1.000  H
  H429     1.0000 0.04519  0.31457  0.76031  Biso   1.000  H
  H430     1.0000 0.33785  0.94968  0.75991  Biso   1.000  H
  H431     1.0000 0.17544  0.20383  0.97451  Biso   1.000  H
  H432     1.0000 0.48627  0.25985  0.85410  Biso   1.000  H
  H433     1.0000 0.28354  0.01115  0.71476  Biso   1.000  H
  H434     1.0000 0.72643  0.30921  0.05389  Biso   1.000  H
  H435     1.0000 0.04615  0.71036  0.34575  Biso   1.000  H
  H436     1.0000 0.84026  0.96380  0.79038  Biso   1.000  H
  H437     1.0000 0.22643  0.31389  0.54355  Biso   1.000  H
  H438     1.0000 0.52375  0.70414  0.20573  Biso   1.000  H
  H439     1.0000 0.22430  0.45066  0.70059  Biso   1.000  H
  H440     1.0000 0.77727  0.81194  0.98132  Biso   1.000  H
  H441     1.0000 0.55713  0.16231  0.30822  Biso   1.000  H
  H442     1.0000 0.67301  0.47990  0.79857  Biso   1.000  H
  H443     1.0000 0.27615  0.81072  0.55799  Biso   1.000  H
  H444     1.0000 0.01252  0.15325  0.26386  Biso   1.000  H
  H445     1.0000 0.66909  0.99702  0.28010  Biso   1.000  H
  H446     1.0000 0.27989  0.66528  0.05143  Biso   1.000  H
  H447     1.0000 0.98791  0.26465  0.70011  Biso   1.000  H
  H448     1.0000 0.21528  0.02618  0.20687  Biso   1.000  H
  H449     1.0000 0.82218  0.71924  0.47958  Biso   1.000  H
  H450     1.0000 0.53955  0.31387  0.79701  Biso   1.000  H
  H451     1.0000 0.78266  0.52054  0.35487  Biso   1.000  H
  H452     1.0000 0.21570  0.16966  0.05623  Biso   1.000  H
  H453     1.0000 0.46778  0.75889  0.69776  Biso   1.000  H
  H454     1.0000 0.33161  0.50580  0.25305  Biso   1.000  H
  H455     1.0000 0.67372  0.22509  0.50643  Biso   1.000  H
  H456     1.0000 0.98231  0.81751  0.79284  Biso   1.000  H
  H457     1.0000 0.67033  0.76938  0.49646  Biso   1.000  H
  H458     1.0000 0.47687  0.71413  0.85685  Biso   1.000  H
  H459     1.0000 0.82733  0.46245  0.75917  Biso   1.000  H
  H460     1.0000 0.17653  0.75657  0.03036  Biso   1.000  H
  H461     1.0000 0.97671  0.71223  0.69585  Biso   1.000  H
  H462     1.0000 0.27512  0.44868  0.85696  Biso   1.000  H
  H463     1.0000 0.83130  0.27011  0.50427  Biso   1.000  H
  H464     1.0000 0.03274  0.16680  0.81095  Biso   1.000  H
  H465     1.0000 0.67808  0.00880  0.74348  Biso   1.000  H
  H466     1.0000 0.32668  0.25678  0.03982  Biso   1.000  H
  H467     1.0000 0.53344  0.21663  0.69349  Biso   1.000  H
  H468     1.0000 0.18240  0.95007  0.81166  Biso   1.000  H
  H469     1.0000 0.33191  0.21494  0.53907  Biso   1.000  H
  H470     1.0000 0.54223  0.25440  0.19258  Biso   1.000  H
  H471     1.0000 0.18344  0.50768  0.29696  Biso   1.000  H
  H472     1.0000 0.77638  0.15407  0.00624  Biso   1.000  H
  H473     1.0000 0.02337  0.30567  0.30656  Biso   1.000  H
  H474     1.0000 0.73871  0.51217  0.19962  Biso   1.000  H
  H475     1.0000 0.22150  0.65914  0.55770  Biso   1.000  H
  H476     1.0000 0.05306  0.80508  0.23924  Biso   1.000  H
  H477     1.0000 0.26593  0.01979  0.36780  Biso   1.000  H
  H478     1.0000 0.67318  0.70726  0.98236  Biso   1.000  H
  H479     1.0000 0.46000  0.75550  0.35707  Biso   1.000  H
  H480     1.0000 0.77411  0.99750  0.18747  Biso   1.000  H
  N1       1.0000 0.67960  0.17026  0.52973  Biso   1.000  N
  N2       1.0000 0.48758  0.65932  0.20454  Biso   1.000  N
  N3       1.0000 0.18221  0.48868  0.70247  Biso   1.000  N
  N4       1.0000 0.17623  0.16129  0.01644  Biso   1.000  N
  N5       1.0000 0.01551  0.66020  0.34328  Biso   1.000  N
  N6       1.0000 0.67881  0.50304  0.85004  Biso   1.000  N
  N7       1.0000 0.82079  0.66687  0.50977  Biso   1.000  N
  N8       1.0000 0.99181  0.15598  0.20913  Biso   1.000  N
  N9       1.0000 0.33349  0.98314  0.71088  Biso   1.000  N
  N10      1.0000 0.32759  0.66356  0.01731  Biso   1.000  N
  N11      1.0000 0.51710  0.16510  0.34884  Biso   1.000  N
  N12      1.0000 0.83242  0.99518  0.83843  Biso   1.000  N
  N13      1.0000 0.32687  0.80757  0.52178  Biso   1.000  N
  N14      1.0000 0.51640  0.30974  0.84871  Biso   1.000  N
  N15      1.0000 0.82871  0.48653  0.35324  Biso   1.000  N
  N16      1.0000 0.82641  0.80765  0.01840  Biso   1.000  N
  N17      1.0000 0.02007  0.31377  0.70645  Biso   1.000  N
  N18      1.0000 0.32716  0.48122  0.20204  Biso   1.000  N
  N19      1.0000 0.18356  0.31359  0.50731  Biso   1.000  N
  N20      1.0000 0.01619  0.81355  0.84255  Biso   1.000  N
  N21      1.0000 0.67507  0.97902  0.33799  Biso   1.000  N
  N22      1.0000 0.67622  0.30169  0.02630  Biso   1.000  N
  N23      1.0000 0.50080  0.80924  0.70078  Biso   1.000  N
  N24      1.0000 0.17242  0.99293  0.20980  Biso   1.000  N
  N25      1.0000 0.83031  0.49839  0.70925  Biso   1.000  N
  N26      1.0000 0.67979  0.81732  0.53100  Biso   1.000  N
  N27      1.0000 0.50439  0.66409  0.85130  Biso   1.000  N
  N28      1.0000 0.32698  0.48125  0.85088  Biso   1.000  N
  N29      1.0000 0.18149  0.80957  0.01121  Biso   1.000  N
  N30      1.0000 0.01063  0.66868  0.69424  Biso   1.000  N
  N31      1.0000 0.68332  0.98568  0.68714  Biso   1.000  N
  N32      1.0000 0.83040  0.31657  0.53739  Biso   1.000  N
  N33      1.0000 0.99145  0.16753  0.85220  Biso   1.000  N
  N34      1.0000 0.18681  0.98688  0.85956  Biso   1.000  N
  N35      1.0000 0.32328  0.30939  0.01606  Biso   1.000  N
  N36      1.0000 0.50850  0.16284  0.69986  Biso   1.000  N
  N37      1.0000 0.18388  0.48106  0.34947  Biso   1.000  N
  N38      1.0000 0.32738  0.16227  0.51842  Biso   1.000  N
  N39      1.0000 0.51954  0.30775  0.20042  Biso   1.000  N
  N40      1.0000 0.68149  0.48799  0.20276  Biso   1.000  N
  N41      1.0000 0.82787  0.15948  0.03521  Biso   1.000  N
  N42      1.0000 0.98999  0.30772  0.35429  Biso   1.000  N
  N43      1.0000 0.32262  0.99984  0.35802  Biso   1.000  N
  N44      1.0000 0.17499  0.66426  0.52250  Biso   1.000  N
  N45      1.0000 0.01775  0.80465  0.19360  Biso   1.000  N
  N46      1.0000 0.82074  0.96245  0.18906  Biso   1.000  N
  N47      1.0000 0.68135  0.65479  0.01283  Biso   1.000  N
  N48      1.0000 0.48538  0.80924  0.35133  Biso   1.000  N
  O1       1.0000 0.34763  0.52973  0.02624  Biso   1.000  O
  O2       1.0000 0.01724  0.32740  0.57019  Biso   1.000  O
  O3       1.0000 0.54125  0.97886  0.36173  Biso   1.000  O
  O4       1.0000 0.84710  0.53666  0.51892  Biso   1.000  O
  O5       1.0000 0.50946  0.33357  0.98654  Biso   1.000  O
  O6       1.0000 0.03681  0.98760  0.18678  Biso   1.000  O
  O7       1.0000 0.15735  0.02555  0.03359  Biso   1.000  O
  O8       1.0000 0.50018  0.83310  0.56672  Biso   1.000  O
  O9       1.0000 0.96499  0.48248  0.36618  Biso   1.000  O
  O10      1.0000 0.66163  0.03618  0.51403  Biso   1.000  O
  O11      1.0000 0.00926  0.83074  0.97537  Biso   1.000  O
  O12      1.0000 0.46329  0.47717  0.18076  Biso   1.000  O
  O13      1.0000 0.65882  0.43532  0.02133  Biso   1.000  O
  O14      1.0000 0.99521  0.64222  0.47544  Biso   1.000  O
  O15      1.0000 0.46590  0.98407  0.68324  Biso   1.000  O
  O16      1.0000 0.16369  0.44565  0.52747  Biso   1.000  O
  O17      1.0000 0.49888  0.63913  0.07052  Biso   1.000  O
  O18      1.0000 0.96476  0.99286  0.86542  Biso   1.000  O
  O19      1.0000 0.84928  0.94407  0.00649  Biso   1.000  O
  O20      1.0000 0.51510  0.15075  0.48440  Biso   1.000  O
  O21      1.0000 0.05018  0.49817  0.68012  Biso   1.000  O
  O22      1.0000 0.34950  0.94336  0.52619  Biso   1.000  O
  O23      1.0000 0.00496  0.13758  0.07404  Biso   1.000  O
  O24      1.0000 0.54199  0.49145  0.86558  Biso   1.000  O
  O25      1.0000 0.95503  0.97252  0.18120  Biso   1.000  O
  O26      1.0000 0.16064  0.94245  0.03012  Biso   1.000  O
  O27      1.0000 0.99413  0.14388  0.98658  Biso   1.000  O
  O28      1.0000 0.45973  0.00218  0.37527  Biso   1.000  O
  O29      1.0000 0.66055  0.95114  0.51528  Biso   1.000  O
  O30      1.0000 0.49861  0.14422  0.56432  Biso   1.000  O
  O31      1.0000 0.54746  0.49285  0.18178  Biso   1.000  O
  O32      1.0000 0.34351  0.44487  0.02630  Biso   1.000  O
  O33      1.0000 0.50371  0.64212  0.98664  Biso   1.000  O
  O34      1.0000 0.04881  0.48542  0.36476  Biso   1.000  O
  O35      1.0000 0.85288  0.45289  0.53608  Biso   1.000  O
  O36      1.0000 0.00099  0.64731  0.56092  Biso   1.000  O
  O37      1.0000 0.05081  0.99080  0.87464  Biso   1.000  O
  O38      1.0000 0.84552  0.02510  0.02646  Biso   1.000  O
  O39      1.0000 0.00234  0.82967  0.05977  Biso   1.000  O
  O40      1.0000 0.54878  0.98016  0.67020  Biso   1.000  O
  O41      1.0000 0.35083  0.02848  0.53062  Biso   1.000  O
  O42      1.0000 0.50403  0.83049  0.48224  Biso   1.000  O
  O43      1.0000 0.45858  0.48128  0.86804  Biso   1.000  O
  O44      1.0000 0.65733  0.52048  0.03036  Biso   1.000  O
  O45      1.0000 0.49841  0.32908  0.06860  Biso   1.000  O
  O46      1.0000 0.96564  0.48863  0.68563  Biso   1.000  O
  O47      1.0000 0.16060  0.52698  0.52029  Biso   1.000  O
  O48      1.0000 0.99590  0.32913  0.48839  Biso   1.000  O
  O49      1.0000 0.00290  0.93696  0.18268  Biso   1.000  O
  O50      1.0000 0.16186  0.98748  0.99235  Biso   1.000  O
  O51      1.0000 0.96129  0.14178  0.03757  Biso   1.000  O
  O52      1.0000 0.49556  0.94552  0.37361  Biso   1.000  O
  O53      1.0000 0.66087  0.99420  0.55391  Biso   1.000  O
  O54      1.0000 0.46349  0.14895  0.51580  Biso   1.000  O
  O55      1.0000 0.51514  0.44288  0.18164  Biso   1.000  O
  O56      1.0000 0.34795  0.48723  0.98557  Biso   1.000  O
  O57      1.0000 0.54428  0.63857  0.03333  Biso   1.000  O
  O58      1.0000 0.00885  0.44255  0.36840  Biso   1.000  O
  O59      1.0000 0.84919  0.50053  0.57135  Biso   1.000  O
  O60      1.0000 0.03860  0.64298  0.51289  Biso   1.000  O
  O61      1.0000 0.00606  0.03292  0.86938  Biso   1.000  O
  O62      1.0000 0.84618  0.97554  0.05614  Biso   1.000  O
  O63      1.0000 0.04890  0.82998  0.02130  Biso   1.000  O
  O64      1.0000 0.51052  0.02714  0.67911  Biso   1.000  O
  O65      1.0000 0.34919  0.98280  0.48849  Biso   1.000  O
  O66      1.0000 0.54358  0.83187  0.52641  Biso   1.000  O
  O67      1.0000 0.49512  0.52707  0.86637  Biso   1.000  O
  O68      1.0000 0.66119  0.47321  0.06839  Biso   1.000  O
  O69      1.0000 0.46099  0.33298  0.01819  Biso   1.000  O
  O70      1.0000 0.00240  0.53403  0.68015  Biso   1.000  O
  O71      1.0000 0.16087  0.48527  0.48514  Biso   1.000  O
  O72      1.0000 0.96620  0.33132  0.54057  Biso   1.000  O
  O73      1.0000 0.01207  0.44755  0.68302  Biso   1.000  O
  O74      1.0000 0.65982  0.99566  0.47063  Biso   1.000  O
  O75      1.0000 0.46118  0.64554  0.02402  Biso   1.000  O
  O76      1.0000 0.50789  0.44407  0.86931  Biso   1.000  O
  O77      1.0000 0.15591  0.98057  0.07654  Biso   1.000  O
  O78      1.0000 0.95449  0.64408  0.52031  Biso   1.000  O
  O79      1.0000 0.50580  0.94446  0.68160  Biso   1.000  O
  O80      1.0000 0.85131  0.48533  0.48982  Biso   1.000  O
  O81      1.0000 0.04212  0.13583  0.02417  Biso   1.000  O
  O82      1.0000 0.00882  0.94728  0.86948  Biso   1.000  O
  O83      1.0000 0.34373  0.48602  0.06898  Biso   1.000  O
  O84      1.0000 0.54821  0.14637  0.53034  Biso   1.000  O
  O85      1.0000 0.00617  0.52572  0.36611  Biso   1.000  O
  O86      1.0000 0.35221  0.98415  0.57507  Biso   1.000  O
  O87      1.0000 0.54365  0.32633  0.03063  Biso   1.000  O
  O88      1.0000 0.49597  0.52451  0.17942  Biso   1.000  O
  O89      1.0000 0.84649  0.99038  0.97453  Biso   1.000  O
  O90      1.0000 0.04789  0.32860  0.52079  Biso   1.000  O
  O91      1.0000 0.50892  0.03098  0.36970  Biso   1.000  O
  O92      1.0000 0.16066  0.48888  0.56767  Biso   1.000  O
  O93      1.0000 0.96299  0.82893  0.01726  Biso   1.000  O
  O94      1.0000 0.99230  0.02169  0.18543  Biso   1.000  O
  O95      1.0000 0.65672  0.48107  0.98448  Biso   1.000  O
  O96      1.0000 0.46092  0.82922  0.52175  Biso   1.000  O
  O97      1.0000 0.46252  0.19767  0.51868  Biso   1.000  O
  O98      1.0000 0.51512  0.44029  0.22931  Biso   1.000  O
  O99      1.0000 0.20965  0.49352  0.48388  Biso   1.000  O
  O100     1.0000 0.96274  0.19068  0.03419  Biso   1.000  O
  O101     1.0000 0.01059  0.44019  0.31895  Biso   1.000  O
  O102     1.0000 0.71075  0.47548  0.06506  Biso   1.000  O
  O103     1.0000 0.04075  0.69115  0.51102  Biso   1.000  O
  O104     1.0000 0.00124  0.93545  0.23101  Biso   1.000  O
  O105     1.0000 0.30122  0.98404  0.49053  Biso   1.000  O
  O106     1.0000 0.54884  0.68723  0.03582  Biso   1.000  O
  O107     1.0000 0.48777  0.94642  0.32581  Biso   1.000  O
  O108     1.0000 0.79761  0.97713  0.05471  Biso   1.000  O
  O109     1.0000 0.54621  0.78377  0.53499  Biso   1.000  O
  O110     1.0000 0.49862  0.52871  0.81839  Biso   1.000  O
  O111     1.0000 0.80064  0.50119  0.57110  Biso   1.000  O
  O112     1.0000 0.04613  0.78093  0.01805  Biso   1.000  O
  O113     1.0000 0.00244  0.53454  0.72988  Biso   1.000  O
  O114     1.0000 0.29781  0.49059  0.98276  Biso   1.000  O
  O115     1.0000 0.96504  0.28275  0.53387  Biso   1.000  O
  O116     1.0000 0.01021  0.03257  0.82071  Biso   1.000  O
  O117     1.0000 0.70949  0.00370  0.55299  Biso   1.000  O
  O118     1.0000 0.45767  0.28545  0.02149  Biso   1.000  O
  O119     1.0000 0.51691  0.02777  0.72831  Biso   1.000  O
  O120     1.0000 0.21090  0.99152  0.99470  Biso   1.000  O
  O121     1.0000 0.04759  0.49557  0.72764  Biso   1.000  O
  O122     1.0000 0.70923  0.03791  0.50370  Biso   1.000  O
  O123     1.0000 0.50150  0.68784  0.07161  Biso   1.000  O
  O124     1.0000 0.54414  0.49529  0.81733  Biso   1.000  O
  O125     1.0000 0.20594  0.02895  0.03713  Biso   1.000  O
  O126     1.0000 0.99282  0.69003  0.47660  Biso   1.000  O
  O127     1.0000 0.47169  0.98963  0.73173  Biso   1.000  O
  O128     1.0000 0.79843  0.53069  0.51997  Biso   1.000  O
  O129     1.0000 0.00713  0.18706  0.07651  Biso   1.000  O
  O130     1.0000 0.96738  0.99196  0.81766  Biso   1.000  O
  O131     1.0000 0.29878  0.53221  0.02532  Biso   1.000  O
  O132     1.0000 0.51541  0.20035  0.48192  Biso   1.000  O
  O133     1.0000 0.96167  0.48277  0.31868  Biso   1.000  O
  O134     1.0000 0.30118  0.94271  0.53411  Biso   1.000  O
  O135     1.0000 0.50226  0.28454  0.98461  Biso   1.000  O
  O136     1.0000 0.46354  0.47444  0.22928  Biso   1.000  O
  O137     1.0000 0.80051  0.94351  0.00401  Biso   1.000  O
  O138     1.0000 0.01627  0.27948  0.57169  Biso   1.000  O
  O139     1.0000 0.53348  0.98033  0.31432  Biso   1.000  O
  O140     1.0000 0.21322  0.44757  0.52378  Biso   1.000  O
  O141     1.0000 0.00985  0.78239  0.97686  Biso   1.000  O
  O142     1.0000 0.03470  0.98554  0.23642  Biso   1.000  O
  O143     1.0000 0.70758  0.43566  0.01859  Biso   1.000  O
  O144     1.0000 0.49825  0.78369  0.56511  Biso   1.000  O
  O145     1.0000 0.54652  0.49352  0.22969  Biso   1.000  O
  O146     1.0000 0.20856  0.53229  0.52863  Biso   1.000  O
  O147     1.0000 0.49806  0.19297  0.56691  Biso   1.000  O
  O148     1.0000 0.04808  0.48265  0.31519  Biso   1.000  O
  O149     1.0000 0.70682  0.52155  0.02878  Biso   1.000  O
  O150     1.0000 0.99738  0.19136  0.98868  Biso   1.000  O
  O151     1.0000 0.95273  0.97017  0.23041  Biso   1.000  O
  O152     1.0000 0.30058  0.02809  0.52893  Biso   1.000  O
  O153     1.0000 0.00669  0.69568  0.55876  Biso   1.000  O
  O154     1.0000 0.45381  0.99653  0.32709  Biso   1.000  O
  O155     1.0000 0.79591  0.02532  0.01687  Biso   1.000  O
  O156     1.0000 0.51574  0.69038  0.98565  Biso   1.000  O
  O157     1.0000 0.46117  0.47675  0.81909  Biso   1.000  O
  O158     1.0000 0.80389  0.44994  0.53755  Biso   1.000  O
  O159     1.0000 0.51158  0.78163  0.48439  Biso   1.000  O
  O160     1.0000 0.96551  0.48764  0.73465  Biso   1.000  O
  O161     1.0000 0.29524  0.44804  0.02287  Biso   1.000  O
  O162     1.0000 1.00000  0.78063  0.06020  Biso   1.000  O
  O163     1.0000 0.05222  0.99435  0.82567  Biso   1.000  O
  O164     1.0000 0.70842  0.95348  0.51993  Biso   1.000  O
  O165     1.0000 0.99446  0.28099  0.48778  Biso   1.000  O
  O166     1.0000 0.55258  0.97964  0.71921  Biso   1.000  O
  O167     1.0000 0.20971  0.94559  0.03334  Biso   1.000  O
  O168     1.0000 0.49156  0.28022  0.06790  Biso   1.000  O
  O169     1.0000 0.98799  0.02071  0.23376  Biso   1.000  O
  O170     1.0000 0.20468  0.98840  0.07793  Biso   1.000  O
  O171     1.0000 0.04419  0.18417  0.02435  Biso   1.000  O
  O172     1.0000 0.50286  0.03073  0.32057  Biso   1.000  O
  O173     1.0000 0.70681  0.99143  0.47084  Biso   1.000  O
  O174     1.0000 0.54559  0.19607  0.53447  Biso   1.000  O
  O175     1.0000 0.49381  0.52186  0.22860  Biso   1.000  O
  O176     1.0000 0.29503  0.48949  0.06755  Biso   1.000  O
  O177     1.0000 0.46436  0.69453  0.02296  Biso   1.000  O
  O178     1.0000 0.00232  0.52393  0.31638  Biso   1.000  O
  O179     1.0000 0.80252  0.48379  0.48682  Biso   1.000  O
  O180     1.0000 0.95682  0.69290  0.52468  Biso   1.000  O
  O181     1.0000 0.01084  0.95011  0.82072  Biso   1.000  O
  O182     1.0000 0.79619  0.98981  0.97159  Biso   1.000  O
  O183     1.0000 0.96149  0.78121  0.01170  Biso   1.000  O
  O184     1.0000 0.50687  0.94487  0.73093  Biso   1.000  O
  O185     1.0000 0.30455  0.99046  0.57615  Biso   1.000  O
  O186     1.0000 0.46267  0.78092  0.51726  Biso   1.000  O
  O187     1.0000 0.51199  0.44471  0.81935  Biso   1.000  O
  O188     1.0000 0.70613  0.48515  0.98340  Biso   1.000  O
  O189     1.0000 0.53994  0.27737  0.03451  Biso   1.000  O
  O190     1.0000 0.01216  0.44962  0.73212  Biso   1.000  O
  O191     1.0000 0.21029  0.49137  0.56898  Biso   1.000  O
  O192     1.0000 0.04820  0.28031  0.52148  Biso   1.000  O
