data_image0
_cell_length_a       47.4644
_cell_length_b       46.6443
_cell_length_c       46.5951
_cell_angle_alpha    90
_cell_angle_beta     90
_cell_angle_gamma    90

_symmetry_space_group_name_H-M    "P 1"
_symmetry_int_tables_number       1

loop_
  _symmetry_equiv_pos_as_xyz
  'x, y, z'

loop_
  _atom_site_label
  _atom_site_occupancy
  _atom_site_fract_x
  _atom_site_fract_y
  _atom_site_fract_z
  _atom_site_thermal_displace_type
  _atom_site_B_iso_or_equiv
  _atom_site_type_symbol
  C1       1.0000 0.57305  0.99071  0.33531  Biso   1.000  C
  C2       1.0000 0.34658  0.54822  0.01493  Biso   1.000  C
  C3       1.0000 0.02351  0.30812  0.56480  Biso   1.000  C
  C4       1.0000 0.07013  0.98428  0.19111  Biso   1.000  C
  C5       1.0000 0.84478  0.54624  0.50187  Biso   1.000  C
  C6       1.0000 0.51041  0.30481  0.95457  Biso   1.000  C
  C7       1.0000 0.96635  0.48734  0.32888  Biso   1.000  C
  C8       1.0000 0.19315  0.04784  0.00978  Biso   1.000  C
  C9       1.0000 0.52651  0.80948  0.56249  Biso   1.000  C
  C10      1.0000 0.46636  0.48223  0.18923  Biso   1.000  C
  C11      1.0000 0.70739  0.04682  0.52294  Biso   1.000  C
  C12      1.0000 0.03188  0.80675  0.95442  Biso   1.000  C
  C13      1.0000 0.47082  0.99446  0.68963  Biso   1.000  C
  C14      1.0000 0.70117  0.43160  0.00249  Biso   1.000  C
  C15      1.0000 0.02521  0.66956  0.45215  Biso   1.000  C
  C16      1.0000 0.97065  0.98408  0.82834  Biso   1.000  C
  C17      1.0000 0.20935  0.42971  0.50855  Biso   1.000  C
  C18      1.0000 0.52591  0.66469  0.05454  Biso   1.000  C
  C19      1.0000 0.08008  0.48411  0.69074  Biso   1.000  C
  C20      1.0000 0.84451  0.93000  0.01752  Biso   1.000  C
  C21      1.0000 0.52614  0.16456  0.45352  Biso   1.000  C
  C22      1.0000 0.58176  0.49201  0.82432  Biso   1.000  C
  C23      1.0000 0.34211  0.92783  0.51571  Biso   1.000  C
  C24      1.0000 0.00538  0.16820  0.06641  Biso   1.000  C
  C25      1.0000 0.34636  0.03429  0.49760  Biso   1.000  C
  C26      1.0000 0.51930  0.30738  0.06135  Biso   1.000  C
  C27      1.0000 0.07410  0.48357  0.33304  Biso   1.000  C
  C28      1.0000 0.83836  0.03576  0.00520  Biso   1.000  C
  C29      1.0000 0.02670  0.30425  0.45718  Biso   1.000  C
  C30      1.0000 0.57679  0.49008  0.19008  Biso   1.000  C
  C31      1.0000 0.21088  0.53816  0.51506  Biso   1.000  C
  C32      1.0000 0.02716  0.81454  0.06144  Biso   1.000  C
  C33      1.0000 0.46474  0.98377  0.32866  Biso   1.000  C
  C34      1.0000 0.70727  0.54116  0.01373  Biso   1.000  C
  C35      1.0000 0.53137  0.80599  0.45654  Biso   1.000  C
  C36      1.0000 0.96060  0.99020  0.19287  Biso   1.000  C
  C37      1.0000 0.70616  0.93958  0.51003  Biso   1.000  C
  C38      1.0000 0.53134  0.66707  0.94737  Biso   1.000  C
  C39      1.0000 0.96868  0.49770  0.69111  Biso   1.000  C
  C40      1.0000 0.20557  0.94004  0.00907  Biso   1.000  C
  C41      1.0000 0.02824  0.66961  0.56044  Biso   1.000  C
  C42      1.0000 0.47044  0.48211  0.82907  Biso   1.000  C
  C43      1.0000 0.84089  0.43791  0.51624  Biso   1.000  C
  C44      1.0000 0.02007  0.16679  0.95892  Biso   1.000  C
  C45      1.0000 0.57648  0.98177  0.69380  Biso   1.000  C
  C46      1.0000 0.33612  0.43955  0.01405  Biso   1.000  C
  C47      1.0000 0.52796  0.16401  0.56098  Biso   1.000  C
  C48      1.0000 0.07955  0.99557  0.82681  Biso   1.000  C
  C49      1.0000 0.01905  0.04540  0.82805  Biso   1.000  C
  C50      1.0000 0.83722  0.99024  0.06433  Biso   1.000  C
  C51      1.0000 0.08356  0.81016  0.01097  Biso   1.000  C
  C52      1.0000 0.52917  0.04119  0.69313  Biso   1.000  C
  C53      1.0000 0.33916  0.97197  0.45155  Biso   1.000  C
  C54      1.0000 0.58218  0.81016  0.51041  Biso   1.000  C
  C55      1.0000 0.52001  0.53978  0.82189  Biso   1.000  C
  C56      1.0000 0.70218  0.48711  0.06225  Biso   1.000  C
  C57      1.0000 0.45943  0.30708  0.00960  Biso   1.000  C
  C58      1.0000 0.02709  0.54227  0.68958  Biso   1.000  C
  C59      1.0000 0.20502  0.48965  0.45770  Biso   1.000  C
  C60      1.0000 0.96959  0.31153  0.51425  Biso   1.000  C
  C61      1.0000 0.01283  0.93301  0.19673  Biso   1.000  C
  C62      1.0000 0.20642  0.99835  0.95659  Biso   1.000  C
  C63      1.0000 0.95658  0.16513  0.00636  Biso   1.000  C
  C64      1.0000 0.51894  0.93226  0.33092  Biso   1.000  C
  C65      1.0000 0.70635  0.98989  0.56765  Biso   1.000  C
  C66      1.0000 0.46968  0.16076  0.50539  Biso   1.000  C
  C67      1.0000 0.52504  0.43454  0.18877  Biso   1.000  C
  C68      1.0000 0.34397  0.49414  0.95943  Biso   1.000  C
  C69      1.0000 0.58092  0.66720  0.00424  Biso   1.000  C
  C70      1.0000 0.02292  0.43113  0.32744  Biso   1.000  C
  C71      1.0000 0.84343  0.50357  0.56502  Biso   1.000  C
  C72      1.0000 0.08433  0.66644  0.50994  Biso   1.000  C
  C73      1.0000 0.01921  0.54131  0.32781  Biso   1.000  C
  C74      1.0000 0.34671  0.98764  0.55911  Biso   1.000  C
  C75      1.0000 0.56871  0.30680  0.00696  Biso   1.000  C
  C76      1.0000 0.52177  0.54427  0.18715  Biso   1.000  C
  C77      1.0000 0.84027  0.97813  0.95722  Biso   1.000  C
  C78      1.0000 0.07889  0.30378  0.51616  Biso   1.000  C
  C79      1.0000 0.51277  0.04196  0.32487  Biso   1.000  C
  C80      1.0000 0.20950  0.48259  0.56634  Biso   1.000  C
  C81      1.0000 0.97516  0.80709  0.00453  Biso   1.000  C
  C82      1.0000 0.01544  0.04079  0.19109  Biso   1.000  C
  C83      1.0000 0.70516  0.49083  0.95209  Biso   1.000  C
  C84      1.0000 0.47368  0.80426  0.50908  Biso   1.000  C
  C85      1.0000 0.01587  0.43514  0.68992  Biso   1.000  C
  C86      1.0000 0.70285  0.99847  0.45908  Biso   1.000  C
  C87      1.0000 0.47453  0.66875  0.00141  Biso   1.000  C
  C88      1.0000 0.52720  0.43255  0.82581  Biso   1.000  C
  C89      1.0000 0.19909  0.98977  0.06212  Biso   1.000  C
  C90      1.0000 0.97452  0.66901  0.50846  Biso   1.000  C
  C91      1.0000 0.51381  0.93257  0.68852  Biso   1.000  C
  C92      1.0000 0.83988  0.48565  0.45493  Biso   1.000  C
  C93      1.0000 0.06373  0.17356  0.01985  Biso   1.000  C
  C94      1.0000 0.03427  0.93725  0.82895  Biso   1.000  C
  C95      1.0000 0.33987  0.49208  0.06624  Biso   1.000  C
  C96      1.0000 0.57737  0.16552  0.50635  Biso   1.000  C
  C97      1.0000 0.70777  0.07788  0.52159  Biso   1.000  C
  C98      1.0000 0.52408  0.66508  0.08581  Biso   1.000  C
  C99      1.0000 0.11143  0.48733  0.69135  Biso   1.000  C
  C100     1.0000 0.19187  0.08012  0.00243  Biso   1.000  C
  C101     1.0000 0.02293  0.66971  0.42022  Biso   1.000  C
  C102     1.0000 0.61220  0.49936  0.82358  Biso   1.000  C
  C103     1.0000 0.84660  0.57696  0.49850  Biso   1.000  C
  C104     1.0000 0.00397  0.16811  0.09871  Biso   1.000  C
  C105     1.0000 0.43946  0.99469  0.68997  Biso   1.000  C
  C106     1.0000 0.34762  0.57999  0.01539  Biso   1.000  C
  C107     1.0000 0.52832  0.16415  0.42105  Biso   1.000  C
  C108     1.0000 0.93783  0.98632  0.82940  Biso   1.000  C
  C109     1.0000 0.34244  0.89597  0.51606  Biso   1.000  C
  C110     1.0000 0.50777  0.30509  0.92156  Biso   1.000  C
  C111     1.0000 0.93470  0.49586  0.32868  Biso   1.000  C
  C112     1.0000 0.84728  0.89820  0.01809  Biso   1.000  C
  C113     1.0000 0.02857  0.30756  0.59740  Biso   1.000  C
  C114     1.0000 0.43446  0.47915  0.18975  Biso   1.000  C
  C115     1.0000 0.20849  0.39813  0.51332  Biso   1.000  C
  C116     1.0000 0.03118  0.80590  0.92257  Biso   1.000  C
  C117     1.0000 0.60592  0.98811  0.33600  Biso   1.000  C
  C118     1.0000 0.70021  0.39951  0.00107  Biso   1.000  C
  C119     1.0000 0.52690  0.80802  0.59613  Biso   1.000  C
  C120     1.0000 0.10259  0.98499  0.19137  Biso   1.000  C
  C121     1.0000 0.83705  0.99660  0.09697  Biso   1.000  C
  C122     1.0000 0.11513  0.80978  0.00627  Biso   1.000  C
  C123     1.0000 0.02346  0.07644  0.82899  Biso   1.000  C
  C124     1.0000 0.33779  0.96876  0.42080  Biso   1.000  C
  C125     1.0000 0.61595  0.81052  0.50670  Biso   1.000  C
  C126     1.0000 0.52531  0.07448  0.69345  Biso   1.000  C
  C127     1.0000 0.70383  0.49188  0.09472  Biso   1.000  C
  C128     1.0000 0.42728  0.30817  0.00547  Biso   1.000  C
  C129     1.0000 0.51570  0.57141  0.82316  Biso   1.000  C
  C130     1.0000 0.20437  0.49050  0.42544  Biso   1.000  C
  C131     1.0000 0.93776  0.31241  0.51913  Biso   1.000  C
  C132     1.0000 0.02358  0.57469  0.68797  Biso   1.000  C
  C133     1.0000 0.20650  0.99725  0.92421  Biso   1.000  C
  C134     1.0000 0.92503  0.16354  0.00341  Biso   1.000  C
  C135     1.0000 0.01431  0.90099  0.19549  Biso   1.000  C
  C136     1.0000 0.70557  0.98822  0.60127  Biso   1.000  C
  C137     1.0000 0.43810  0.16123  0.50169  Biso   1.000  C
  C138     1.0000 0.52125  0.89992  0.33178  Biso   1.000  C
  C139     1.0000 0.34332  0.49319  0.92685  Biso   1.000  C
  C140     1.0000 0.61343  0.66599  0.00930  Biso   1.000  C
  C141     1.0000 0.52290  0.40304  0.18863  Biso   1.000  C
  C142     1.0000 0.84357  0.51174  0.59507  Biso   1.000  C
  C143     1.0000 0.11604  0.66566  0.51273  Biso   1.000  C
  C144     1.0000 0.02434  0.39937  0.33090  Biso   1.000  C
  C145     1.0000 0.34085  0.48781  0.09757  Biso   1.000  C
  C146     1.0000 0.11076  0.30315  0.52273  Biso   1.000  C
  C147     1.0000 0.50885  0.07393  0.32655  Biso   1.000  C
  C148     1.0000 0.83913  0.48291  0.42344  Biso   1.000  C
  C149     1.0000 0.60160  0.30604  0.00627  Biso   1.000  C
  C150     1.0000 0.01459  0.07346  0.19118  Biso   1.000  C
  C151     1.0000 0.19760  0.99410  0.09528  Biso   1.000  C
  C152     1.0000 0.44220  0.80464  0.51041  Biso   1.000  C
  C153     1.0000 0.01911  0.57416  0.32689  Biso   1.000  C
  C154     1.0000 0.70374  0.99419  0.42814  Biso   1.000  C
  C155     1.0000 0.94345  0.80638  0.00748  Biso   1.000  C
  C156     1.0000 0.52817  0.57599  0.18438  Biso   1.000  C
  C157     1.0000 0.70498  0.49716  0.92122  Biso   1.000  C
  C158     1.0000 0.94310  0.66920  0.50495  Biso   1.000  C
  C159     1.0000 0.51062  0.90061  0.68965  Biso   1.000  C
  C160     1.0000 0.20847  0.48697  0.59722  Biso   1.000  C
  C161     1.0000 0.44312  0.67185  0.00964  Biso   1.000  C
  C162     1.0000 0.03596  0.90455  0.82786  Biso   1.000  C
  C163     1.0000 0.84193  0.97243  0.92499  Biso   1.000  C
  C164     1.0000 0.60965  0.16830  0.50738  Biso   1.000  C
  C165     1.0000 0.00807  0.40338  0.68975  Biso   1.000  C
  C166     1.0000 0.34672  0.98958  0.59090  Biso   1.000  C
  C167     1.0000 0.09707  0.17335  0.01959  Biso   1.000  C
  C168     1.0000 0.52548  0.40017  0.82546  Biso   1.000  C
  C169     1.0000 0.02730  0.81289  0.09451  Biso   1.000  C
  C170     1.0000 0.11138  0.99891  0.82721  Biso   1.000  C
  C171     1.0000 0.83597  0.06668  0.99691  Biso   1.000  C
  C172     1.0000 0.53199  0.80561  0.42282  Biso   1.000  C
  C173     1.0000 0.60864  0.97590  0.69406  Biso   1.000  C
  C174     1.0000 0.34790  0.06514  0.48788  Biso   1.000  C
  C175     1.0000 0.51933  0.30745  0.09315  Biso   1.000  C
  C176     1.0000 0.43681  0.48028  0.82939  Biso   1.000  C
  C177     1.0000 0.70791  0.57334  0.01490  Biso   1.000  C
  C178     1.0000 0.02381  0.30361  0.42485  Biso   1.000  C
  C179     1.0000 0.93876  0.50706  0.68993  Biso   1.000  C
  C180     1.0000 0.21027  0.56956  0.50827  Biso   1.000  C
  C181     1.0000 0.03075  0.16788  0.92766  Biso   1.000  C
  C182     1.0000 0.92861  0.99109  0.19201  Biso   1.000  C
  C183     1.0000 0.20786  0.90746  0.00642  Biso   1.000  C
  C184     1.0000 0.53603  0.16369  0.59189  Biso   1.000  C
  C185     1.0000 0.43313  0.97750  0.32768  Biso   1.000  C
  C186     1.0000 0.70723  0.90764  0.51262  Biso   1.000  C
  C187     1.0000 0.53734  0.66430  0.91648  Biso   1.000  C
  C188     1.0000 0.60898  0.48911  0.19023  Biso   1.000  C
  C189     1.0000 0.33391  0.40792  0.01304  Biso   1.000  C
  C190     1.0000 0.02230  0.67107  0.59369  Biso   1.000  C
  C191     1.0000 0.10518  0.47499  0.33344  Biso   1.000  C
  C192     1.0000 0.83974  0.40588  0.51661  Biso   1.000  C
  C193     1.0000 0.86931  0.97753  0.90904  Biso   1.000  C
  C194     1.0000 0.92611  0.83328  0.00890  Biso   1.000  C
  C195     1.0000 0.03337  0.88706  0.85402  Biso   1.000  C
  C196     1.0000 0.37264  0.99119  0.60823  Biso   1.000  C
  C197     1.0000 0.42602  0.83134  0.51304  Biso   1.000  C
  C198     1.0000 0.51404  0.88423  0.66286  Biso   1.000  C
  C199     1.0000 0.67876  0.49771  0.90332  Biso   1.000  C
  C200     1.0000 0.61716  0.33211  0.99914  Biso   1.000  C
  C201     1.0000 0.52364  0.38492  0.85379  Biso   1.000  C
  C202     1.0000 0.18182  0.48869  0.61459  Biso   1.000  C
  C203     1.0000 0.12923  0.33072  0.52362  Biso   1.000  C
  C204     1.0000 0.01257  0.38705  0.66379  Biso   1.000  C
  C205     1.0000 0.17158  0.99192  0.11189  Biso   1.000  C
  C206     1.0000 0.11269  0.14601  0.01588  Biso   1.000  C
  C207     1.0000 0.01062  0.08899  0.16399  Biso   1.000  C
  C208     1.0000 0.67557  0.99115  0.41195  Biso   1.000  C
  C209     1.0000 0.62904  0.14260  0.51039  Biso   1.000  C
  C210     1.0000 0.51224  0.08846  0.35410  Biso   1.000  C
  C211     1.0000 0.36661  0.48673  0.11440  Biso   1.000  C
  C212     1.0000 0.42626  0.64538  0.01429  Biso   1.000  C
  C213     1.0000 0.53009  0.58942  0.15617  Biso   1.000  C
  C214     1.0000 0.86599  0.48611  0.40823  Biso   1.000  C
  C215     1.0000 0.92695  0.64221  0.50253  Biso   1.000  C
  C216     1.0000 0.01917  0.59096  0.35379  Biso   1.000  C
  C217     1.0000 0.12725  0.99885  0.85394  Biso   1.000  C
  C218     1.0000 0.86235  0.08427  0.99757  Biso   1.000  C
  C219     1.0000 0.02704  0.83940  0.11276  Biso   1.000  C
  C220     1.0000 0.62473  0.98075  0.66750  Biso   1.000  C
  C221     1.0000 0.37415  0.08106  0.49006  Biso   1.000  C
  C222     1.0000 0.52692  0.83273  0.40801  Biso   1.000  C
  C223     1.0000 0.42079  0.48429  0.85731  Biso   1.000  C
  C224     1.0000 0.68078  0.58954  0.01333  Biso   1.000  C
  C225     1.0000 0.52333  0.33423  0.10966  Biso   1.000  C
  C226     1.0000 0.92194  0.50771  0.66407  Biso   1.000  C
  C227     1.0000 0.18351  0.58612  0.51249  Biso   1.000  C
  C228     1.0000 0.02182  0.33075  0.40931  Biso   1.000  C
  C229     1.0000 0.91369  0.99411  0.16444  Biso   1.000  C
  C230     1.0000 0.18049  0.89014  0.00592  Biso   1.000  C
  C231     1.0000 0.03096  0.14112  0.91003  Biso   1.000  C
  C232     1.0000 0.41752  0.97486  0.35405  Biso   1.000  C
  C233     1.0000 0.68085  0.89055  0.51149  Biso   1.000  C
  C234     1.0000 0.53463  0.13787  0.60907  Biso   1.000  C
  C235     1.0000 0.62627  0.48812  0.16270  Biso   1.000  C
  C236     1.0000 0.36043  0.39000  0.01024  Biso   1.000  C
  C237     1.0000 0.53410  0.63677  0.90086  Biso   1.000  C
  C238     1.0000 0.12162  0.47920  0.35961  Biso   1.000  C
  C239     1.0000 0.86662  0.38906  0.51681  Biso   1.000  C
  C240     1.0000 0.02069  0.64378  0.60855  Biso   1.000  C
  C241     1.0000 0.62919  0.50015  0.85092  Biso   1.000  C
  C242     1.0000 0.87338  0.59111  0.49833  Biso   1.000  C
  C243     1.0000 0.52300  0.83526  0.61086  Biso   1.000  C
  C244     1.0000 0.12912  0.48431  0.66492  Biso   1.000  C
  C245     1.0000 0.37441  0.59661  0.01538  Biso   1.000  C
  C246     1.0000 0.03243  0.83391  0.90545  Biso   1.000  C
  C247     1.0000 0.92265  0.98491  0.85599  Biso   1.000  C
  C248     1.0000 0.68024  0.09414  0.51848  Biso   1.000  C
  C249     1.0000 0.02598  0.33447  0.61303  Biso   1.000  C
  C250     1.0000 0.42372  0.99076  0.66359  Biso   1.000  C
  C251     1.0000 0.16518  0.09624  0.00859  Biso   1.000  C
  C252     1.0000 0.51246  0.33188  0.90618  Biso   1.000  C
  C253     1.0000 0.41921  0.48115  0.16287  Biso   1.000  C
  C254     1.0000 0.18090  0.38267  0.52243  Biso   1.000  C
  C255     1.0000 0.52451  0.13800  0.40275  Biso   1.000  C
  C256     1.0000 0.91859  0.49241  0.35527  Biso   1.000  C
  C257     1.0000 0.67243  0.38394  0.00032  Biso   1.000  C
  C258     1.0000 0.00498  0.14107  0.11497  Biso   1.000  C
  C259     1.0000 0.11767  0.98723  0.16286  Biso   1.000  C
  C260     1.0000 0.36937  0.88011  0.51874  Biso   1.000  C
  C261     1.0000 0.02246  0.64267  0.40583  Biso   1.000  C
  C262     1.0000 0.62235  0.98669  0.36230  Biso   1.000  C
  C263     1.0000 0.87441  0.88294  0.01533  Biso   1.000  C
  C264     1.0000 0.52756  0.63828  0.10242  Biso   1.000  C
  C265     1.0000 0.02725  0.09054  0.85646  Biso   1.000  C
  C266     1.0000 0.86488  0.99880  0.11332  Biso   1.000  C
  C267     1.0000 0.12980  0.83752  0.00697  Biso   1.000  C
  C268     1.0000 0.52732  0.08855  0.66487  Biso   1.000  C
  C269     1.0000 0.36555  0.96940  0.40382  Biso   1.000  C
  C270     1.0000 0.63154  0.83796  0.50934  Biso   1.000  C
  C271     1.0000 0.52436  0.58659  0.84909  Biso   1.000  C
  C272     1.0000 0.67769  0.49073  0.11062  Biso   1.000  C
  C273     1.0000 0.41158  0.33572  0.00350  Biso   1.000  C
  C274     1.0000 0.02375  0.59154  0.66144  Biso   1.000  C
  C275     1.0000 0.17519  0.48490  0.41063  Biso   1.000  C
  C276     1.0000 0.92082  0.33968  0.51932  Biso   1.000  C
  C277     1.0000 0.01936  0.88686  0.16839  Biso   1.000  C
  C278     1.0000 0.17762  0.99897  0.90971  Biso   1.000  C
  C279     1.0000 0.90883  0.13668  0.00216  Biso   1.000  C
  C280     1.0000 0.52190  0.88136  0.35794  Biso   1.000  C
  C281     1.0000 0.67756  0.98787  0.61653  Biso   1.000  C
  C282     1.0000 0.42251  0.13590  0.49655  Biso   1.000  C
  C283     1.0000 0.52480  0.38553  0.16213  Biso   1.000  C
  C284     1.0000 0.37130  0.49033  0.91060  Biso   1.000  C
  C285     1.0000 0.62927  0.63982  0.01081  Biso   1.000  C
  C286     1.0000 0.02122  0.38428  0.35887  Biso   1.000  C
  C287     1.0000 0.87092  0.51241  0.61034  Biso   1.000  C
  C288     1.0000 0.13140  0.63906  0.51375  Biso   1.000  C
  C289     1.0000 0.37172  0.84945  0.51336  Biso   1.000  C
  C290     1.0000 0.51695  0.33103  0.87460  Biso   1.000  C
  C291     1.0000 0.88791  0.49265  0.35647  Biso   1.000  C
  C292     1.0000 0.87456  0.85144  0.01989  Biso   1.000  C
  C293     1.0000 0.02298  0.33460  0.64403  Biso   1.000  C
  C294     1.0000 0.38754  0.48113  0.16550  Biso   1.000  C
  C295     1.0000 0.18147  0.35044  0.52080  Biso   1.000  C
  C296     1.0000 0.03475  0.83399  0.87431  Biso   1.000  C
  C297     1.0000 0.65345  0.98592  0.35884  Biso   1.000  C
  C298     1.0000 0.67175  0.35249  0.99886  Biso   1.000  C
  C299     1.0000 0.52259  0.83301  0.64195  Biso   1.000  C
  C300     1.0000 0.15001  0.98892  0.16494  Biso   1.000  C
  C301     1.0000 0.68201  0.12469  0.51251  Biso   1.000  C
  C302     1.0000 0.52517  0.64169  0.13372  Biso   1.000  C
  C303     1.0000 0.15936  0.48625  0.66688  Biso   1.000  C
  C304     1.0000 0.16575  0.12713  0.00953  Biso   1.000  C
  C305     1.0000 0.02068  0.64330  0.37364  Biso   1.000  C
  C306     1.0000 0.66058  0.49970  0.85017  Biso   1.000  C
  C307     1.0000 0.87340  0.62169  0.49661  Biso   1.000  C
  C308     1.0000 0.01051  0.14159  0.14478  Biso   1.000  C
  C309     1.0000 0.39183  0.99082  0.66240  Biso   1.000  C
  C310     1.0000 0.37247  0.62772  0.01335  Biso   1.000  C
  C311     1.0000 0.51623  0.14161  0.37269  Biso   1.000  C
  C312     1.0000 0.89166  0.97888  0.85566  Biso   1.000  C
  C313     1.0000 0.17531  0.47902  0.37935  Biso   1.000  C
  C314     1.0000 0.39182  0.13584  0.49542  Biso   1.000  C
  C315     1.0000 0.52115  0.35441  0.16251  Biso   1.000  C
  C316     1.0000 0.67924  0.49054  0.14191  Biso   1.000  C
  C317     1.0000 0.87838  0.13707  0.00078  Biso   1.000  C
  C318     1.0000 0.02428  0.35273  0.35713  Biso   1.000  C
  C319     1.0000 0.36475  0.97005  0.37276  Biso   1.000  C
  C320     1.0000 0.16273  0.63906  0.50891  Biso   1.000  C
  C321     1.0000 0.02376  0.85617  0.16680  Biso   1.000  C
  C322     1.0000 0.86293  0.00008  0.14394  Biso   1.000  C
  C323     1.0000 0.66148  0.64140  0.01505  Biso   1.000  C
  C324     1.0000 0.52264  0.85051  0.35427  Biso   1.000  C
  C325     1.0000 0.86941  0.51525  0.64196  Biso   1.000  C
  C326     1.0000 0.66348  0.83788  0.50819  Biso   1.000  C
  C327     1.0000 0.52103  0.61782  0.84943  Biso   1.000  C
  C328     1.0000 0.36966  0.48910  0.88018  Biso   1.000  C
  C329     1.0000 0.16135  0.83708  0.00721  Biso   1.000  C
  C330     1.0000 0.02152  0.62270  0.66246  Biso   1.000  C
  C331     1.0000 0.67902  0.98501  0.64718  Biso   1.000  C
  C332     1.0000 0.88931  0.33761  0.51916  Biso   1.000  C
  C333     1.0000 0.02939  0.12210  0.85717  Biso   1.000  C
  C334     1.0000 0.18082  0.99951  0.87710  Biso   1.000  C
  C335     1.0000 0.38030  0.33715  0.00687  Biso   1.000  C
  C336     1.0000 0.53001  0.12035  0.66381  Biso   1.000  C
  C337     1.0000 0.68074  0.49967  0.87211  Biso   1.000  C
  C338     1.0000 0.89577  0.64383  0.49869  Biso   1.000  C
  C339     1.0000 0.51659  0.85354  0.66361  Biso   1.000  C
  C340     1.0000 0.18141  0.48742  0.64593  Biso   1.000  C
  C341     1.0000 0.39392  0.64775  0.01217  Biso   1.000  C
  C342     1.0000 0.03644  0.85597  0.85303  Biso   1.000  C
  C343     1.0000 0.86928  0.97675  0.87796  Biso   1.000  C
  C344     1.0000 0.66025  0.14561  0.50964  Biso   1.000  C
  C345     1.0000 0.01862  0.35649  0.66463  Biso   1.000  C
  C346     1.0000 0.37105  0.98910  0.64050  Biso   1.000  C
  C347     1.0000 0.14324  0.14847  0.01272  Biso   1.000  C
  C348     1.0000 0.52049  0.35361  0.85283  Biso   1.000  C
  C349     1.0000 0.36547  0.48237  0.14445  Biso   1.000  C
  C350     1.0000 0.16013  0.32932  0.52314  Biso   1.000  C
  C351     1.0000 0.51026  0.12007  0.35193  Biso   1.000  C
  C352     1.0000 0.86516  0.48933  0.37770  Biso   1.000  C
  C353     1.0000 0.64954  0.33190  0.99907  Biso   1.000  C
  C354     1.0000 0.01215  0.12002  0.16525  Biso   1.000  C
  C355     1.0000 0.17197  0.99190  0.14360  Biso   1.000  C
  C356     1.0000 0.39422  0.82890  0.51111  Biso   1.000  C
  C357     1.0000 0.02036  0.62271  0.35194  Biso   1.000  C
  C358     1.0000 0.67588  0.98750  0.38030  Biso   1.000  C
  C359     1.0000 0.89643  0.83050  0.01593  Biso   1.000  C
  C360     1.0000 0.52525  0.62057  0.15659  Biso   1.000  C
  C361     1.0000 0.03087  0.14244  0.87933  Biso   1.000  C
  C362     1.0000 0.88329  0.99892  0.16624  Biso   1.000  C
  C363     1.0000 0.18301  0.85850  0.00714  Biso   1.000  C
  C364     1.0000 0.53374  0.14023  0.63998  Biso   1.000  C
  C365     1.0000 0.38684  0.97331  0.35219  Biso   1.000  C
  C366     1.0000 0.68471  0.85881  0.50897  Biso   1.000  C
  C367     1.0000 0.52673  0.63831  0.87065  Biso   1.000  C
  C368     1.0000 0.65717  0.49039  0.16242  Biso   1.000  C
  C369     1.0000 0.35893  0.35947  0.00763  Biso   1.000  C
  C370     1.0000 0.01747  0.64429  0.64075  Biso   1.000  C
  C371     1.0000 0.15348  0.47750  0.35765  Biso   1.000  C
  C372     1.0000 0.86783  0.35882  0.51798  Biso   1.000  C
  C373     1.0000 0.02650  0.83582  0.14380  Biso   1.000  C
  C374     1.0000 0.15925  0.99914  0.85460  Biso   1.000  C
  C375     1.0000 0.85834  0.11536  0.99828  Biso   1.000  C
  C376     1.0000 0.52316  0.82986  0.37572  Biso   1.000  C
  C377     1.0000 0.65606  0.98187  0.66863  Biso   1.000  C
  C378     1.0000 0.37171  0.11292  0.48969  Biso   1.000  C
  C379     1.0000 0.52024  0.33273  0.14031  Biso   1.000  C
  C380     1.0000 0.38979  0.48465  0.85708  Biso   1.000  C
  C381     1.0000 0.68249  0.62077  0.01596  Biso   1.000  C
  C382     1.0000 0.02238  0.33071  0.37757  Biso   1.000  C
  C383     1.0000 0.89063  0.51390  0.66286  Biso   1.000  C
  C384     1.0000 0.18399  0.61709  0.50892  Biso   1.000  C
  C385     1.0000 0.19237  0.14256  0.00569  Biso   1.000  C
  C386     1.0000 0.01203  0.16851  0.16026  Biso   1.000  C
  C387     1.0000 0.16545  0.98903  0.19090  Biso   1.000  C
  C388     1.0000 0.70859  0.14004  0.51175  Biso   1.000  C
  C389     1.0000 0.51389  0.16885  0.35822  Biso   1.000  C
  C390     1.0000 0.66928  0.98526  0.33229  Biso   1.000  C
  C391     1.0000 0.34639  0.64340  0.01027  Biso   1.000  C
  C392     1.0000 0.52189  0.66916  0.14869  Biso   1.000  C
  C393     1.0000 0.37216  0.47734  0.19198  Biso   1.000  C
  C394     1.0000 0.84782  0.63860  0.49501  Biso   1.000  C
  C395     1.0000 0.02067  0.67015  0.35876  Biso   1.000  C
  C396     1.0000 0.87217  0.49620  0.33004  Biso   1.000  C
  C397     1.0000 0.84912  0.83637  0.02525  Biso   1.000  C
  C398     1.0000 0.03644  0.80678  0.85940  Biso   1.000  C
  C399     1.0000 0.87472  0.97689  0.82995  Biso   1.000  C
  C400     1.0000 0.34485  0.83235  0.51094  Biso   1.000  C
  C401     1.0000 0.52731  0.80663  0.65794  Biso   1.000  C
  C402     1.0000 0.37464  0.99117  0.68863  Biso   1.000  C
  C403     1.0000 0.69868  0.33590  0.99733  Biso   1.000  C
  C404     1.0000 0.51263  0.30519  0.85910  Biso   1.000  C
  C405     1.0000 0.67616  0.50081  0.82309  Biso   1.000  C
  C406     1.0000 0.20764  0.33431  0.51461  Biso   1.000  C
  C407     1.0000 0.02748  0.30930  0.66004  Biso   1.000  C
  C408     1.0000 0.17405  0.48953  0.69491  Biso   1.000  C
  C409     1.0000 0.17498  0.99890  0.82893  Biso   1.000  C
  C410     1.0000 0.83072  0.13109  0.99804  Biso   1.000  C
  C411     1.0000 0.02573  0.80728  0.15738  Biso   1.000  C
  C412     1.0000 0.67141  0.97448  0.69474  Biso   1.000  C
  C413     1.0000 0.34375  0.12703  0.48848  Biso   1.000  C
  C414     1.0000 0.52497  0.80301  0.35999  Biso   1.000  C
  C415     1.0000 0.37458  0.48346  0.82984  Biso   1.000  C
  C416     1.0000 0.70892  0.63558  0.01987  Biso   1.000  C
  C417     1.0000 0.51621  0.30644  0.15596  Biso   1.000  C
  C418     1.0000 0.87581  0.51818  0.68937  Biso   1.000  C
  C419     1.0000 0.21103  0.63231  0.50128  Biso   1.000  C
  C420     1.0000 0.02493  0.30437  0.36216  Biso   1.000  C
  C421     1.0000 0.86716  0.99757  0.19308  Biso   1.000  C
  C422     1.0000 0.21084  0.84278  0.01008  Biso   1.000  C
  C423     1.0000 0.03121  0.16971  0.86400  Biso   1.000  C
  C424     1.0000 0.37080  0.97357  0.32624  Biso   1.000  C
  C425     1.0000 0.71278  0.84444  0.50809  Biso   1.000  C
  C426     1.0000 0.53642  0.16699  0.65487  Biso   1.000  C
  C427     1.0000 0.67188  0.49230  0.19001  Biso   1.000  C
  C428     1.0000 0.33105  0.34506  0.00773  Biso   1.000  C
  C429     1.0000 0.52249  0.66590  0.85653  Biso   1.000  C
  C430     1.0000 0.16868  0.47513  0.33074  Biso   1.000  C
  C431     1.0000 0.84074  0.34231  0.51902  Biso   1.000  C
  C432     1.0000 0.01634  0.66988  0.65714  Biso   1.000  C
  C433     1.0000 0.02955  0.13825  0.83035  Biso   1.000  C
  C434     1.0000 0.83493  0.00087  0.15960  Biso   1.000  C
  C435     1.0000 0.17817  0.81057  0.00778  Biso   1.000  C
  C436     1.0000 0.53123  0.13646  0.69070  Biso   1.000  C
  C437     1.0000 0.33894  0.96910  0.35779  Biso   1.000  C
  C438     1.0000 0.67945  0.81162  0.50631  Biso   1.000  C
  C439     1.0000 0.51262  0.63358  0.82423  Biso   1.000  C
  C440     1.0000 0.70613  0.49062  0.15768  Biso   1.000  C
  C441     1.0000 0.36300  0.31006  0.00714  Biso   1.000  C
  C442     1.0000 0.01909  0.63789  0.68968  Biso   1.000  C
  C443     1.0000 0.20286  0.47832  0.36265  Biso   1.000  C
  C444     1.0000 0.87391  0.31049  0.51955  Biso   1.000  C
  C445     1.0000 0.02288  0.83913  0.19150  Biso   1.000  C
  C446     1.0000 0.20816  0.99788  0.86130  Biso   1.000  C
  C447     1.0000 0.86147  0.16354  0.00349  Biso   1.000  C
  C448     1.0000 0.52261  0.83598  0.32741  Biso   1.000  C
  C449     1.0000 0.70548  0.97849  0.66288  Biso   1.000  C
  C450     1.0000 0.37438  0.16139  0.49512  Biso   1.000  C
  C451     1.0000 0.51933  0.33885  0.18973  Biso   1.000  C
  C452     1.0000 0.34230  0.48980  0.86462  Biso   1.000  C
  C453     1.0000 0.67658  0.66872  0.01759  Biso   1.000  C
  C454     1.0000 0.02470  0.33775  0.32991  Biso   1.000  C
  C455     1.0000 0.84306  0.52064  0.65800  Biso   1.000  C
  C456     1.0000 0.17851  0.66517  0.50306  Biso   1.000  C
  C457     1.0000 0.01930  0.63850  0.32643  Biso   1.000  C
  C458     1.0000 0.34362  0.98781  0.65470  Biso   1.000  C
  C459     1.0000 0.66535  0.30504  0.00126  Biso   1.000  C
  C460     1.0000 0.52277  0.63800  0.18293  Biso   1.000  C
  C461     1.0000 0.84166  0.97389  0.86208  Biso   1.000  C
  C462     1.0000 0.17330  0.30190  0.51860  Biso   1.000  C
  C463     1.0000 0.50787  0.13667  0.32583  Biso   1.000  C
  C464     1.0000 0.20781  0.48706  0.66163  Biso   1.000  C
  C465     1.0000 0.88259  0.80368  0.01990  Biso   1.000  C
  C466     1.0000 0.01613  0.13614  0.19134  Biso   1.000  C
  C467     1.0000 0.70833  0.50240  0.85755  Biso   1.000  C
  C468     1.0000 0.37978  0.80190  0.50960  Biso   1.000  C
  C469     1.0000 0.01882  0.34196  0.69161  Biso   1.000  C
  C470     1.0000 0.70297  0.98798  0.36483  Biso   1.000  C
  C471     1.0000 0.38018  0.67547  0.00989  Biso   1.000  C
  C472     1.0000 0.51951  0.33825  0.82615  Biso   1.000  C
  C473     1.0000 0.19892  0.99350  0.15810  Biso   1.000  C
  C474     1.0000 0.88094  0.67123  0.49868  Biso   1.000  C
  C475     1.0000 0.51597  0.83735  0.69002  Biso   1.000  C
  C476     1.0000 0.83884  0.48972  0.36057  Biso   1.000  C
  C477     1.0000 0.15955  0.17509  0.01206  Biso   1.000  C
  C478     1.0000 0.03886  0.83986  0.82728  Biso   1.000  C
  C479     1.0000 0.33840  0.47873  0.15989  Biso   1.000  C
  C480     1.0000 0.67465  0.17190  0.50608  Biso   1.000  C
  C481     1.0000 0.39439  0.77493  0.50992  Biso   1.000  C
  C482     1.0000 0.52217  0.35276  0.79808  Biso   1.000  C
  C483     1.0000 0.81200  0.48507  0.37616  Biso   1.000  C
  C484     1.0000 0.89808  0.77714  0.01496  Biso   1.000  C
  C485     1.0000 0.00903  0.35728  0.71760  Biso   1.000  C
  C486     1.0000 0.31111  0.48023  0.14310  Biso   1.000  C
  C487     1.0000 0.15775  0.27498  0.52185  Biso   1.000  C
  C488     1.0000 0.03946  0.85535  0.80003  Biso   1.000  C
  C489     1.0000 0.73160  0.98954  0.38025  Biso   1.000  C
  C490     1.0000 0.65016  0.27978  0.00726  Biso   1.000  C
  C491     1.0000 0.51204  0.85376  0.71613  Biso   1.000  C
  C492     1.0000 0.22677  0.99436  0.14233  Biso   1.000  C
  C493     1.0000 0.65652  0.19848  0.50501  Biso   1.000  C
  C494     1.0000 0.52494  0.62291  0.21059  Biso   1.000  C
  C495     1.0000 0.23487  0.48871  0.64398  Biso   1.000  C
  C496     1.0000 0.14335  0.20171  0.02093  Biso   1.000  C
  C497     1.0000 0.01893  0.62241  0.29833  Biso   1.000  C
  C498     1.0000 0.73462  0.50146  0.87262  Biso   1.000  C
  C499     1.0000 0.89706  0.69845  0.50102  Biso   1.000  C
  C500     1.0000 0.01530  0.12080  0.21939  Biso   1.000  C
  C501     1.0000 0.31875  0.98595  0.63527  Biso   1.000  C
  C502     1.0000 0.39714  0.70242  0.00618  Biso   1.000  C
  C503     1.0000 0.50367  0.12094  0.29866  Biso   1.000  C
  C504     1.0000 0.81422  0.97026  0.87750  Biso   1.000  C
  C505     1.0000 0.66067  0.50216  0.79556  Biso   1.000  C
  C506     1.0000 0.81918  0.62379  0.49176  Biso   1.000  C
  C507     1.0000 0.52988  0.77894  0.64139  Biso   1.000  C
  C508     1.0000 0.15641  0.49061  0.72161  Biso   1.000  C
  C509     1.0000 0.31932  0.62879  0.00652  Biso   1.000  C
  C510     1.0000 0.03208  0.77946  0.87463  Biso   1.000  C
  C511     1.0000 0.89006  0.98148  0.80301  Biso   1.000  C
  C512     1.0000 0.73548  0.12369  0.51119  Biso   1.000  C
  C513     1.0000 0.03483  0.28018  0.64427  Biso   1.000  C
  C514     1.0000 0.39035  0.99672  0.71584  Biso   1.000  C
  C515     1.0000 0.22067  0.12793  0.00078  Biso   1.000  C
  C516     1.0000 0.50757  0.27843  0.87436  Biso   1.000  C
  C517     1.0000 0.38930  0.47271  0.21830  Biso   1.000  C
  C518     1.0000 0.23400  0.34930  0.50778  Biso   1.000  C
  C519     1.0000 0.52190  0.19495  0.37583  Biso   1.000  C
  C520     1.0000 0.88694  0.50114  0.30296  Biso   1.000  C
  C521     1.0000 0.72599  0.35146  0.99408  Biso   1.000  C
  C522     1.0000 0.01020  0.19562  0.14581  Biso   1.000  C
  C523     1.0000 0.14893  0.98613  0.21895  Biso   1.000  C
  C524     1.0000 0.31696  0.84874  0.51002  Biso   1.000  C
  C525     1.0000 0.02039  0.69845  0.37290  Biso   1.000  C
  C526     1.0000 0.65083  0.98701  0.30551  Biso   1.000  C
  C527     1.0000 0.82202  0.85075  0.02953  Biso   1.000  C
  C528     1.0000 0.51938  0.69571  0.13057  Biso   1.000  C
  C529     1.0000 0.80371  0.11302  0.99964  Biso   1.000  C
  C530     1.0000 0.02973  0.78211  0.13918  Biso   1.000  C
  C531     1.0000 0.15991  0.99926  0.80094  Biso   1.000  C
  C532     1.0000 0.31837  0.10952  0.48444  Biso   1.000  C
  C533     1.0000 0.53095  0.77646  0.37548  Biso   1.000  C
  C534     1.0000 0.65587  0.97062  0.72189  Biso   1.000  C
  C535     1.0000 0.73692  0.62054  0.02058  Biso   1.000  C
  C536     1.0000 0.51280  0.27890  0.13897  Biso   1.000  C
  C537     1.0000 0.39212  0.47875  0.80294  Biso   1.000  C
  C538     1.0000 0.23748  0.61542  0.49620  Biso   1.000  C
  C539     1.0000 0.02862  0.27808  0.37753  Biso   1.000  C
  C540     1.0000 0.89195  0.52062  0.71621  Biso   1.000  C
  C541     1.0000 0.23661  0.86035  0.01301  Biso   1.000  C
  C542     1.0000 0.03522  0.19505  0.88127  Biso   1.000  C
  C543     1.0000 0.88179  0.99234  0.21946  Biso   1.000  C
  C544     1.0000 0.73865  0.86290  0.51115  Biso   1.000  C
  C545     1.0000 0.54079  0.19369  0.63785  Biso   1.000  C
  C546     1.0000 0.38734  0.97307  0.29915  Biso   1.000  C
  C547     1.0000 0.30474  0.36171  0.01054  Biso   1.000  C
  C548     1.0000 0.52882  0.69269  0.87107  Biso   1.000  C
  C549     1.0000 0.65545  0.49585  0.21678  Biso   1.000  C
  C550     1.0000 0.81240  0.35760  0.51957  Biso   1.000  C
  C551     1.0000 0.01880  0.69731  0.64238  Biso   1.000  C
  C552     1.0000 0.15228  0.46790  0.30441  Biso   1.000  C
  C553     1.0000 0.02617  0.12345  0.80320  Biso   1.000  C
  C554     1.0000 0.80818  0.00021  0.14298  Biso   1.000  C
  C555     1.0000 0.16141  0.78197  0.00566  Biso   1.000  C
  C556     1.0000 0.52663  0.12236  0.71930  Biso   1.000  C
  C557     1.0000 0.31090  0.97073  0.37353  Biso   1.000  C
  C558     1.0000 0.66427  0.78385  0.50494  Biso   1.000  C
  C559     1.0000 0.50313  0.61810  0.79778  Biso   1.000  C
  C560     1.0000 0.73349  0.49145  0.14158  Biso   1.000  C
  C561     1.0000 0.37871  0.28304  0.00646  Biso   1.000  C
  C562     1.0000 0.01698  0.62131  0.71637  Biso   1.000  C
  C563     1.0000 0.23125  0.48412  0.37694  Biso   1.000  C
  C564     1.0000 0.89197  0.28432  0.52021  Biso   1.000  C
  C565     1.0000 0.01547  0.85221  0.21980  Biso   1.000  C
  C566     1.0000 0.23537  0.99478  0.87650  Biso   1.000  C
  C567     1.0000 0.87735  0.19127  0.00447  Biso   1.000  C
  C568     1.0000 0.51985  0.85350  0.30217  Biso   1.000  C
  C569     1.0000 0.73276  0.98098  0.64760  Biso   1.000  C
  C570     1.0000 0.39011  0.18951  0.49759  Biso   1.000  C
  C571     1.0000 0.52025  0.35601  0.21763  Biso   1.000  C
  C572     1.0000 0.31535  0.49548  0.88032  Biso   1.000  C
  C573     1.0000 0.66019  0.69468  0.01658  Biso   1.000  C
  C574     1.0000 0.02325  0.35264  0.30295  Biso   1.000  C
  C575     1.0000 0.81581  0.51959  0.64161  Biso   1.000  C
  C576     1.0000 0.16325  0.69222  0.50632  Biso   1.000  C
  C577     1.0000 0.31384  0.48491  0.11120  Biso   1.000  C
  C578     1.0000 0.12616  0.27451  0.52467  Biso   1.000  C
  C579     1.0000 0.50321  0.08952  0.29941  Biso   1.000  C
  C580     1.0000 0.81137  0.48181  0.40759  Biso   1.000  C
  C581     1.0000 0.61799  0.27954  0.00969  Biso   1.000  C
  C582     1.0000 0.01582  0.08933  0.21878  Biso   1.000  C
  C583     1.0000 0.22541  0.99712  0.11021  Biso   1.000  C
  C584     1.0000 0.42693  0.77488  0.50723  Biso   1.000  C
  C585     1.0000 0.01974  0.59120  0.29839  Biso   1.000  C
  C586     1.0000 0.73050  0.99214  0.41170  Biso   1.000  C
  C587     1.0000 0.92964  0.77856  0.00774  Biso   1.000  C
  C588     1.0000 0.52693  0.59154  0.21157  Biso   1.000  C
  C589     1.0000 0.73295  0.49897  0.90510  Biso   1.000  C
  C590     1.0000 0.92816  0.69750  0.50346  Biso   1.000  C
  C591     1.0000 0.50988  0.88463  0.71656  Biso   1.000  C
  C592     1.0000 0.23535  0.48870  0.61245  Biso   1.000  C
  C593     1.0000 0.42918  0.69953  0.00661  Biso   1.000  C
  C594     1.0000 0.03828  0.88880  0.80019  Biso   1.000  C
  C595     1.0000 0.81451  0.96815  0.90911  Biso   1.000  C
  C596     1.0000 0.62311  0.19616  0.50607  Biso   1.000  C
  C597     1.0000 0.00486  0.38849  0.71606  Biso   1.000  C
  C598     1.0000 0.31882  0.98690  0.60386  Biso   1.000  C
  C599     1.0000 0.11227  0.20089  0.02325  Biso   1.000  C
  C600     1.0000 0.52490  0.38376  0.79889  Biso   1.000  C
  C601     1.0000 0.23525  0.99461  0.90786  Biso   1.000  C
  C602     1.0000 0.90928  0.19113  0.00574  Biso   1.000  C
  C603     1.0000 0.01342  0.88411  0.22137  Biso   1.000  C
  C604     1.0000 0.73206  0.98771  0.61660  Biso   1.000  C
  C605     1.0000 0.42164  0.18944  0.50286  Biso   1.000  C
  C606     1.0000 0.52007  0.88491  0.30402  Biso   1.000  C
  C607     1.0000 0.31570  0.49635  0.91208  Biso   1.000  C
  C608     1.0000 0.62895  0.69343  0.01282  Biso   1.000  C
  C609     1.0000 0.52023  0.38808  0.21593  Biso   1.000  C
  C610     1.0000 0.81684  0.51420  0.61033  Biso   1.000  C
  C611     1.0000 0.13209  0.69209  0.51078  Biso   1.000  C
  C612     1.0000 0.02565  0.38301  0.30312  Biso   1.000  C
  C613     1.0000 0.80914  0.99979  0.11088  Biso   1.000  C
  C614     1.0000 0.13064  0.78267  0.00534  Biso   1.000  C
  C615     1.0000 0.02364  0.09261  0.80193  Biso   1.000  C
  C616     1.0000 0.31062  0.96845  0.40543  Biso   1.000  C
  C617     1.0000 0.63250  0.78427  0.50433  Biso   1.000  C
  C618     1.0000 0.52517  0.09112  0.72036  Biso   1.000  C
  C619     1.0000 0.73166  0.49185  0.10991  Biso   1.000  C
  C620     1.0000 0.41024  0.28175  0.00779  Biso   1.000  C
  C621     1.0000 0.50536  0.58674  0.79732  Biso   1.000  C
  C622     1.0000 0.23027  0.49145  0.40854  Biso   1.000  C
  C623     1.0000 0.92315  0.28583  0.52141  Biso   1.000  C
  C624     1.0000 0.02050  0.59004  0.71531  Biso   1.000  C
  C625     1.0000 0.03335  0.19519  0.91264  Biso   1.000  C
  C626     1.0000 0.91237  0.98721  0.21842  Biso   1.000  C
  C627     1.0000 0.23476  0.89088  0.01244  Biso   1.000  C
  C628     1.0000 0.54065  0.19211  0.60652  Biso   1.000  C
  C629     1.0000 0.41822  0.97476  0.30037  Biso   1.000  C
  C630     1.0000 0.73469  0.89376  0.51502  Biso   1.000  C
  C631     1.0000 0.53683  0.69196  0.90095  Biso   1.000  C
  C632     1.0000 0.62403  0.49479  0.21829  Biso   1.000  C
  C633     1.0000 0.30622  0.39264  0.01496  Biso   1.000  C
  C634     1.0000 0.02190  0.69749  0.61069  Biso   1.000  C
  C635     1.0000 0.12050  0.46702  0.30642  Biso   1.000  C
  C636     1.0000 0.81204  0.38894  0.51852  Biso   1.000  C
  C637     1.0000 0.02904  0.78416  0.10803  Biso   1.000  C
  C638     1.0000 0.12736  0.99880  0.80027  Biso   1.000  C
  C639     1.0000 0.80784  0.08186  0.99803  Biso   1.000  C
  C640     1.0000 0.53400  0.77759  0.40741  Biso   1.000  C
  C641     1.0000 0.62450  0.97156  0.72093  Biso   1.000  C
  C642     1.0000 0.31919  0.07815  0.48295  Biso   1.000  C
  C643     1.0000 0.51761  0.27935  0.10831  Biso   1.000  C
  C644     1.0000 0.42243  0.48018  0.80240  Biso   1.000  C
  C645     1.0000 0.73569  0.58933  0.01779  Biso   1.000  C
  C646     1.0000 0.02805  0.27686  0.40856  Biso   1.000  C
  C647     1.0000 0.92347  0.51574  0.71698  Biso   1.000  C
  C648     1.0000 0.23801  0.58458  0.49955  Biso   1.000  C
  C649     1.0000 0.02065  0.69803  0.40467  Biso   1.000  C
  C650     1.0000 0.42253  0.99954  0.71721  Biso   1.000  C
  C651     1.0000 0.72761  0.38256  0.99707  Biso   1.000  C
  C652     1.0000 0.51840  0.69398  0.09924  Biso   1.000  C
  C653     1.0000 0.92085  0.98826  0.80363  Biso   1.000  C
  C654     1.0000 0.23398  0.38030  0.50449  Biso   1.000  C
  C655     1.0000 0.52804  0.19262  0.40674  Biso   1.000  C
  C656     1.0000 0.12553  0.49222  0.71944  Biso   1.000  C
  C657     1.0000 0.82007  0.88216  0.02496  Biso   1.000  C
  C658     1.0000 0.00554  0.19572  0.11439  Biso   1.000  C
  C659     1.0000 0.62848  0.50149  0.79664  Biso   1.000  C
  C660     1.0000 0.31490  0.88006  0.51385  Biso   1.000  C
  C661     1.0000 0.03248  0.28057  0.61282  Biso   1.000  C
  C662     1.0000 0.61925  0.98763  0.30675  Biso   1.000  C
  C663     1.0000 0.32025  0.59732  0.00914  Biso   1.000  C
  C664     1.0000 0.50158  0.27918  0.90511  Biso   1.000  C
  C665     1.0000 0.11776  0.98484  0.21894  Biso   1.000  C
  C666     1.0000 0.81974  0.59250  0.49245  Biso   1.000  C
  C667     1.0000 0.53043  0.78016  0.60976  Biso   1.000  C
  C668     1.0000 0.91830  0.50092  0.30170  Biso   1.000  C
  C669     1.0000 0.21837  0.09592  0.99838  Biso   1.000  C
  C670     1.0000 0.02917  0.77942  0.90644  Biso   1.000  C
  C671     1.0000 0.41963  0.47419  0.21823  Biso   1.000  C
  C672     1.0000 0.73474  0.09280  0.51732  Biso   1.000  C
  C673     1.0000 0.22152  0.99431  0.81387  Biso   1.000  C
  C674     1.0000 0.81510  0.17652  0.00164  Biso   1.000  C
  C675     1.0000 0.02415  0.79266  0.20375  Biso   1.000  C
  C676     1.0000 0.71933  0.97061  0.70699  Biso   1.000  C
  C677     1.0000 0.32740  0.17454  0.49398  Biso   1.000  C
  C678     1.0000 0.52523  0.78961  0.31193  Biso   1.000  C
  C679     1.0000 0.32753  0.48458  0.81648  Biso   1.000  C
  C680     1.0000 0.72443  0.68296  0.01881  Biso   1.000  C
  C681     1.0000 0.51609  0.29278  0.20232  Biso   1.000  C
  C682     1.0000 0.83075  0.52213  0.70551  Biso   1.000  C
  C683     1.0000 0.22490  0.68103  0.50004  Biso   1.000  C
  C684     1.0000 0.02742  0.28970  0.31637  Biso   1.000  C
  C685     1.0000 0.82070  0.99828  0.20702  Biso   1.000  C
  C686     1.0000 0.22447  0.79607  0.01155  Biso   1.000  C
  C687     1.0000 0.03317  0.18756  0.81702  Biso   1.000  C
  C688     1.0000 0.32442  0.97484  0.31026  Biso   1.000  C
  C689     1.0000 0.72662  0.79723  0.50130  Biso   1.000  C
  C690     1.0000 0.53218  0.18378  0.70137  Biso   1.000  C
  C691     1.0000 0.71817  0.49237  0.20436  Biso   1.000  C
  C692     1.0000 0.31469  0.29930  0.00736  Biso   1.000  C
  C693     1.0000 0.51540  0.68131  0.81020  Biso   1.000  C
  C694     1.0000 0.21461  0.46885  0.31666  Biso   1.000  C
  C695     1.0000 0.82804  0.29546  0.52132  Biso   1.000  C
  C696     1.0000 0.01977  0.68403  0.70326  Biso   1.000  C
  C697     1.0000 0.71485  0.98856  0.31833  Biso   1.000  C
  C698     1.0000 0.33250  0.69007  0.01098  Biso   1.000  C
  C699     1.0000 0.02779  0.29630  0.70791  Biso   1.000  C
  C700     1.0000 0.21309  0.98900  0.20321  Biso   1.000  C
  C701     1.0000 0.83522  0.68556  0.49704  Biso   1.000  C
  C702     1.0000 0.51960  0.29071  0.81212  Biso   1.000  C
  C703     1.0000 0.82542  0.49853  0.31366  Biso   1.000  C
  C704     1.0000 0.20541  0.19033  0.00482  Biso   1.000  C
  C705     1.0000 0.52249  0.79143  0.70482  Biso   1.000  C
  C706     1.0000 0.32621  0.47325  0.20791  Biso   1.000  C
  C707     1.0000 0.72060  0.18700  0.51035  Biso   1.000  C
  C708     1.0000 0.03863  0.79224  0.81330  Biso   1.000  C
  C709     1.0000 0.32853  0.99116  0.70266  Biso   1.000  C
  C710     1.0000 0.71094  0.28877  0.00005  Biso   1.000  C
  C711     1.0000 0.02145  0.68386  0.31120  Biso   1.000  C
  C712     1.0000 0.82969  0.97283  0.81411  Biso   1.000  C
  C713     1.0000 0.21913  0.28695  0.51025  Biso   1.000  C
  C714     1.0000 0.52287  0.68607  0.19643  Biso   1.000  C
  C715     1.0000 0.22176  0.48822  0.70895  Biso   1.000  C
  C716     1.0000 0.83749  0.78687  0.02462  Biso   1.000  C
  C717     1.0000 0.50932  0.18258  0.31072  Biso   1.000  C
  C718     1.0000 0.72458  0.50782  0.81287  Biso   1.000  C
  C719     1.0000 0.33249  0.78715  0.50782  Biso   1.000  C
  C720     1.0000 0.01829  0.18282  0.20666  Biso   1.000  C
  C721     1.0000 0.54021  0.79648  0.28537  Biso   1.000  C
  C722     1.0000 0.33347  0.49235  0.78655  Biso   1.000  C
  C723     1.0000 0.80238  0.29600  0.53931  Biso   1.000  C
  C724     1.0000 0.00792  0.76562  0.19948  Biso   1.000  C
  C725     1.0000 0.80418  0.54008  0.70302  Biso   1.000  C
  C726     1.0000 0.28696  0.30539  0.99245  Biso   1.000  C
  C727     1.0000 0.01045  0.26348  0.31950  Biso   1.000  C
  C728     1.0000 0.24766  0.01241  0.81539  Biso   1.000  C
  C729     1.0000 0.75404  0.79825  0.51530  Biso   1.000  C
  C730     1.0000 0.49987  0.29520  0.22915  Biso   1.000  C
  C731     1.0000 0.74667  0.95546  0.70072  Biso   1.000  C
  C732     1.0000 0.25268  0.80034  0.99450  Biso   1.000  C
  C733     1.0000 0.50765  0.18373  0.72237  Biso   1.000  C
  C734     1.0000 0.71508  0.47593  0.23166  Biso   1.000  C
  C735     1.0000 0.21971  0.70874  0.48369  Biso   1.000  C
  C736     1.0000 0.02156  0.21603  0.82123  Biso   1.000  C
  C737     1.0000 0.24314  0.45465  0.32354  Biso   1.000  C
  C738     1.0000 0.75117  0.67962  0.03555  Biso   1.000  C
  C739     1.0000 0.04412  0.68089  0.72307  Biso   1.000  C
  C740     1.0000 0.79510  0.98040  0.20482  Biso   1.000  C
  C741     1.0000 0.30225  0.17598  0.47465  Biso   1.000  C
  C742     1.0000 0.52688  0.67497  0.78169  Biso   1.000  C
  C743     1.0000 0.29618  0.96170  0.31276  Biso   1.000  C
  C744     1.0000 0.81922  0.20146  0.02074  Biso   1.000  C
  C745     1.0000 0.04226  0.70649  0.31093  Biso   1.000  C
  C746     1.0000 0.30094  0.00554  0.70020  Biso   1.000  C
  C747     1.0000 0.73810  0.29361  0.01433  Biso   1.000  C
  C748     1.0000 0.53823  0.71342  0.19222  Biso   1.000  C
  C749     1.0000 0.83399  0.95246  0.79027  Biso   1.000  C
  C750     1.0000 0.24913  0.28951  0.52121  Biso   1.000  C
  C751     1.0000 0.52354  0.17744  0.28320  Biso   1.000  C
  C752     1.0000 0.24787  0.47190  0.70337  Biso   1.000  C
  C753     1.0000 0.81085  0.79241  0.00838  Biso   1.000  C
  C754     1.0000 0.04001  0.17987  0.23109  Biso   1.000  C
  C755     1.0000 0.72325  0.49611  0.78354  Biso   1.000  C
  C756     1.0000 0.30576  0.78972  0.52405  Biso   1.000  C
  C757     1.0000 0.01753  0.26779  0.70471  Biso   1.000  C
  C758     1.0000 0.71047  0.00378  0.29033  Biso   1.000  C
  C759     1.0000 0.30719  0.68612  0.03034  Biso   1.000  C
  C760     1.0000 0.54165  0.29274  0.78998  Biso   1.000  C
  C761     1.0000 0.23891  0.00776  0.20236  Biso   1.000  C
  C762     1.0000 0.84053  0.71196  0.48197  Biso   1.000  C
  C763     1.0000 0.50108  0.79122  0.72845  Biso   1.000  C
  C764     1.0000 0.79686  0.51205  0.31889  Biso   1.000  C
  C765     1.0000 0.23423  0.18712  0.01953  Biso   1.000  C
  C766     1.0000 0.02104  0.79776  0.78765  Biso   1.000  C
  C767     1.0000 0.33022  0.48499  0.23801  Biso   1.000  C
  C768     1.0000 0.71727  0.21322  0.49208  Biso   1.000  C
  C769     1.0000 0.50473  0.70992  0.81557  Biso   1.000  C
  C770     1.0000 0.83538  0.50540  0.73225  Biso   1.000  C
  C771     1.0000 0.72131  0.76980  0.48480  Biso   1.000  C
  C772     1.0000 0.00087  0.70824  0.70692  Biso   1.000  C
  C773     1.0000 0.30024  0.47221  0.82461  Biso   1.000  C
  C774     1.0000 0.21975  0.76949  0.02677  Biso   1.000  C
  C775     1.0000 0.04790  0.18228  0.78903  Biso   1.000  C
  C776     1.0000 0.71523  0.98568  0.73489  Biso   1.000  C
  C777     1.0000 0.83183  0.26938  0.50013  Biso   1.000  C
  C778     1.0000 0.54983  0.20864  0.70185  Biso   1.000  C
  C779     1.0000 0.21807  0.97526  0.78857  Biso   1.000  C
  C780     1.0000 0.31708  0.27326  0.02651  Biso   1.000  C
  C781     1.0000 0.53155  0.26433  0.20003  Biso   1.000  C
  C782     1.0000 0.21179  0.48209  0.28774  Biso   1.000  C
  C783     1.0000 0.32655  0.19568  0.51713  Biso   1.000  C
  C784     1.0000 0.04380  0.29379  0.28873  Biso   1.000  C
  C785     1.0000 0.74446  0.51058  0.19994  Biso   1.000  C
  C786     1.0000 0.78986  0.17390  0.98428  Biso   1.000  C
  C787     1.0000 0.03944  0.79428  0.23057  Biso   1.000  C
  C788     1.0000 0.32995  0.99307  0.28366  Biso   1.000  C
  C789     1.0000 0.25377  0.67779  0.51339  Biso   1.000  C
  C790     1.0000 0.51391  0.76066  0.31450  Biso   1.000  C
  C791     1.0000 0.82478  0.01403  0.23398  Biso   1.000  C
  C792     1.0000 0.72139  0.71132  0.00448  Biso   1.000  C
  C793     1.0000 0.49571  0.21263  0.31483  Biso   1.000  C
  C794     1.0000 0.29970  0.45659  0.20323  Biso   1.000  C
  C795     1.0000 0.21335  0.26088  0.49481  Biso   1.000  C
  C796     1.0000 0.99822  0.20731  0.20593  Biso   1.000  C
  C797     1.0000 0.83023  0.48755  0.28412  Biso   1.000  C
  C798     1.0000 0.70548  0.26217  0.98452  Biso   1.000  C
  C799     1.0000 0.00098  0.68119  0.28713  Biso   1.000  C
  C800     1.0000 0.21339  0.96788  0.22516  Biso   1.000  C
  C801     1.0000 0.33694  0.76277  0.48870  Biso   1.000  C
  C802     1.0000 0.50567  0.68376  0.22289  Biso   1.000  C
  C803     1.0000 0.74473  0.97452  0.32175  Biso   1.000  C
  C804     1.0000 0.84085  0.75857  0.03633  Biso   1.000  C
  C805     1.0000 0.54254  0.76709  0.70330  Biso   1.000  C
  C806     1.0000 0.74582  0.53007  0.81846  Biso   1.000  C
  C807     1.0000 0.80770  0.68117  0.51226  Biso   1.000  C
  C808     1.0000 0.05229  0.76377  0.81575  Biso   1.000  C
  C809     1.0000 0.21587  0.50164  0.73725  Biso   1.000  C
  C810     1.0000 0.33453  0.71560  0.99409  Biso   1.000  C
  C811     1.0000 0.04163  0.30428  0.73524  Biso   1.000  C
  C812     1.0000 0.80392  0.99200  0.81525  Biso   1.000  C
  C813     1.0000 0.74569  0.18632  0.52943  Biso   1.000  C
  C814     1.0000 0.49774  0.26858  0.80851  Biso   1.000  C
  C815     1.0000 0.33317  0.97590  0.72921  Biso   1.000  C
  C816     1.0000 0.20004  0.21762  0.99191  Biso   1.000  C
  C817     1.0000 0.02635  0.23871  0.80273  Biso   1.000  C
  C818     1.0000 0.77357  0.98007  0.22693  Biso   1.000  C
  C819     1.0000 0.27300  0.77788  0.99750  Biso   1.000  C
  C820     1.0000 0.50656  0.20389  0.74393  Biso   1.000  C
  C821     1.0000 0.27758  0.96531  0.29008  Biso   1.000  C
  C822     1.0000 0.77458  0.77734  0.51294  Biso   1.000  C
  C823     1.0000 0.52758  0.69612  0.76111  Biso   1.000  C
  C824     1.0000 0.73668  0.47880  0.25132  Biso   1.000  C
  C825     1.0000 0.26533  0.28378  0.99487  Biso   1.000  C
  C826     1.0000 0.04910  0.70181  0.74465  Biso   1.000  C
  C827     1.0000 0.26462  0.45328  0.30324  Biso   1.000  C
  C828     1.0000 0.78015  0.27613  0.53758  Biso   1.000  C
  C829     1.0000 0.00667  0.74304  0.21897  Biso   1.000  C
  C830     1.0000 0.26917  0.00839  0.79521  Biso   1.000  C
  C831     1.0000 0.79715  0.22200  0.02174  Biso   1.000  C
  C832     1.0000 0.54117  0.77621  0.26243  Biso   1.000  C
  C833     1.0000 0.76687  0.95589  0.72267  Biso   1.000  C
  C834     1.0000 0.28252  0.19770  0.47645  Biso   1.000  C
  C835     1.0000 0.49913  0.27381  0.25000  Biso   1.000  C
  C836     1.0000 0.31115  0.48989  0.76712  Biso   1.000  C
  C837     1.0000 0.77309  0.69855  0.03506  Biso   1.000  C
  C838     1.0000 0.00824  0.24364  0.29601  Biso   1.000  C
  C839     1.0000 0.78312  0.53939  0.72463  Biso   1.000  C
  C840     1.0000 0.24078  0.72988  0.48655  Biso   1.000  C
  C841     1.0000 0.24040  0.97620  0.76752  Biso   1.000  C
  C842     1.0000 0.77084  0.19750  0.98335  Biso   1.000  C
  C843     1.0000 0.03766  0.77152  0.24991  Biso   1.000  C
  C844     1.0000 0.73636  0.98339  0.75636  Biso   1.000  C
  C845     1.0000 0.30478  0.21578  0.51980  Biso   1.000  C
  C846     1.0000 0.51333  0.74179  0.29048  Biso   1.000  C
  C847     1.0000 0.27801  0.47185  0.80374  Biso   1.000  C
  C848     1.0000 0.74451  0.73081  0.00282  Biso   1.000  C
  C849     1.0000 0.53038  0.24419  0.22107  Biso   1.000  C
  C850     1.0000 0.81469  0.50668  0.75336  Biso   1.000  C
  C851     1.0000 0.27301  0.70047  0.51421  Biso   1.000  C
  C852     1.0000 0.04128  0.27278  0.26624  Biso   1.000  C
  C853     1.0000 0.80487  0.01077  0.25709  Biso   1.000  C
  C854     1.0000 0.24058  0.74817  0.02693  Biso   1.000  C
  C855     1.0000 0.04892  0.20449  0.76804  Biso   1.000  C
  C856     1.0000 0.30891  0.99521  0.26180  Biso   1.000  C
  C857     1.0000 0.74263  0.74727  0.48327  Biso   1.000  C
  C858     1.0000 0.54605  0.22959  0.72309  Biso   1.000  C
  C859     1.0000 0.76496  0.51265  0.22330  Biso   1.000  C
  C860     1.0000 0.29347  0.25420  0.02841  Biso   1.000  C
  C861     1.0000 0.50696  0.73173  0.79543  Biso   1.000  C
  C862     1.0000 0.23431  0.48048  0.26734  Biso   1.000  C
  C863     1.0000 0.80933  0.24959  0.49986  Biso   1.000  C
  C864     1.0000 0.00688  0.72875  0.72847  Biso   1.000  C
  C865     1.0000 0.74336  0.50388  0.76291  Biso   1.000  C
  C866     1.0000 0.81976  0.73434  0.48408  Biso   1.000  C
  C867     1.0000 0.49959  0.76998  0.74878  Biso   1.000  C
  C868     1.0000 0.26805  0.46814  0.72584  Biso   1.000  C
  C869     1.0000 0.28573  0.70723  0.02992  Biso   1.000  C
  C870     1.0000 0.01928  0.77663  0.76635  Biso   1.000  C
  C871     1.0000 0.81048  0.95166  0.76884  Biso   1.000  C
  C872     1.0000 0.73810  0.23576  0.49463  Biso   1.000  C
  C873     1.0000 0.02298  0.24721  0.72615  Biso   1.000  C
  C874     1.0000 0.28055  0.00510  0.72288  Biso   1.000  C
  C875     1.0000 0.25357  0.21002  0.02216  Biso   1.000  C
  C876     1.0000 0.54395  0.27280  0.76642  Biso   1.000  C
  C877     1.0000 0.30959  0.47988  0.25906  Biso   1.000  C
  C878     1.0000 0.26948  0.26696  0.51790  Biso   1.000  C
  C879     1.0000 0.52554  0.19904  0.26241  Biso   1.000  C
  C880     1.0000 0.77520  0.51087  0.29808  Biso   1.000  C
  C881     1.0000 0.75879  0.27195  0.01392  Biso   1.000  C
  C882     1.0000 0.04092  0.20197  0.25178  Biso   1.000  C
  C883     1.0000 0.26164  0.00361  0.22222  Biso   1.000  C
  C884     1.0000 0.28374  0.77071  0.51644  Biso   1.000  C
  C885     1.0000 0.04284  0.72657  0.28871  Biso   1.000  C
  C886     1.0000 0.73265  0.00300  0.26919  Biso   1.000  C
  C887     1.0000 0.79009  0.77106  0.00689  Biso   1.000  C
  C888     1.0000 0.54048  0.73269  0.21440  Biso   1.000  C
  C889     1.0000 0.76658  0.97852  0.30171  Biso   1.000  C
  C890     1.0000 0.31146  0.73489  0.99322  Biso   1.000  C
  C891     1.0000 0.04353  0.28300  0.75697  Biso   1.000  C
  C892     1.0000 0.23654  0.96443  0.24492  Biso   1.000  C
  C893     1.0000 0.78669  0.70271  0.51059  Biso   1.000  C
  C894     1.0000 0.50019  0.24919  0.78492  Biso   1.000  C
  C895     1.0000 0.80742  0.48756  0.26388  Biso   1.000  C
  C896     1.0000 0.21992  0.24032  0.99418  Biso   1.000  C
  C897     1.0000 0.54096  0.74532  0.72425  Biso   1.000  C
  C898     1.0000 0.27827  0.45374  0.22470  Biso   1.000  C
  C899     1.0000 0.76514  0.20908  0.53054  Biso   1.000  C
  C900     1.0000 0.04795  0.74206  0.79456  Biso   1.000  C
  C901     1.0000 0.31304  0.97737  0.75186  Biso   1.000  C
  C902     1.0000 0.72577  0.24040  0.98816  Biso   1.000  C
  C903     1.0000 0.00237  0.70068  0.26503  Biso   1.000  C
  C904     1.0000 0.78301  0.98955  0.79468  Biso   1.000  C
  C905     1.0000 0.23355  0.23809  0.49343  Biso   1.000  C
  C906     1.0000 0.50626  0.70417  0.24447  Biso   1.000  C
  C907     1.0000 0.23639  0.49798  0.75924  Biso   1.000  C
  C908     1.0000 0.81952  0.73837  0.03386  Biso   1.000  C
  C909     1.0000 0.49613  0.23150  0.29242  Biso   1.000  C
  C910     1.0000 0.76776  0.53497  0.79820  Biso   1.000  C
  C911     1.0000 0.31513  0.74296  0.48452  Biso   1.000  C
  C912     1.0000 0.00093  0.22772  0.22792  Biso   1.000  C
  C913     1.0000 0.78929  0.52204  0.74818  Biso   1.000  C
  C914     1.0000 0.76901  0.75096  0.49812  Biso   1.000  C
  C915     1.0000 0.51914  0.72455  0.76823  Biso   1.000  C
  C916     1.0000 0.28425  0.47944  0.77524  Biso   1.000  C
  C917     1.0000 0.26644  0.75320  0.01269  Biso   1.000  C
  C918     1.0000 0.03018  0.72586  0.74660  Biso   1.000  C
  C919     1.0000 0.76305  0.96844  0.75036  Biso   1.000  C
  C920     1.0000 0.78446  0.25494  0.51636  Biso   1.000  C
  C921     1.0000 0.03879  0.23209  0.77472  Biso   1.000  C
  C922     1.0000 0.26506  0.99145  0.77145  Biso   1.000  C
  C923     1.0000 0.26915  0.25872  0.01010  Biso   1.000  C
  C924     1.0000 0.52632  0.22663  0.74336  Biso   1.000  C
  C925     1.0000 0.25987  0.46472  0.27466  Biso   1.000  C
  C926     1.0000 0.28173  0.21717  0.50058  Biso   1.000  C
  C927     1.0000 0.51500  0.24871  0.24639  Biso   1.000  C
  C928     1.0000 0.75917  0.49784  0.24843  Biso   1.000  C
  C929     1.0000 0.77475  0.22075  0.00096  Biso   1.000  C
  C930     1.0000 0.02304  0.24899  0.27049  Biso   1.000  C
  C931     1.0000 0.28294  0.98129  0.26619  Biso   1.000  C
  C932     1.0000 0.26666  0.72602  0.50068  Biso   1.000  C
  C933     1.0000 0.02350  0.74611  0.24395  Biso   1.000  C
  C934     1.0000 0.78168  0.99391  0.25193  Biso   1.000  C
  C935     1.0000 0.77014  0.72421  0.01739  Biso   1.000  C
  C936     1.0000 0.52626  0.74963  0.26425  Biso   1.000  C
  C937     1.0000 0.75311  0.24443  0.00188  Biso   1.000  C
  C938     1.0000 0.02154  0.72438  0.26721  Biso   1.000  C
  C939     1.0000 0.28673  0.99041  0.74882  Biso   1.000  C
  C940     1.0000 0.26157  0.24144  0.50466  Biso   1.000  C
  C941     1.0000 0.52304  0.72923  0.24041  Biso   1.000  C
  C942     1.0000 0.78663  0.96987  0.77157  Biso   1.000  C
  C943     1.0000 0.79425  0.74372  0.01833  Biso   1.000  C
  C944     1.0000 0.51073  0.22497  0.26661  Biso   1.000  C
  C945     1.0000 0.26141  0.48176  0.75279  Biso   1.000  C
  C946     1.0000 0.29010  0.74716  0.50014  Biso   1.000  C
  C947     1.0000 0.02064  0.22469  0.24904  Biso   1.000  C
  C948     1.0000 0.76728  0.52061  0.77182  Biso   1.000  C
  C949     1.0000 0.28821  0.73089  0.01184  Biso   1.000  C
  C950     1.0000 0.03628  0.25431  0.75157  Biso   1.000  C
  C951     1.0000 0.75995  0.99170  0.27582  Biso   1.000  C
  C952     1.0000 0.79276  0.72855  0.49719  Biso   1.000  C
  C953     1.0000 0.52312  0.25025  0.76483  Biso   1.000  C
  C954     1.0000 0.25972  0.98277  0.24266  Biso   1.000  C
  C955     1.0000 0.24587  0.23643  0.00919  Biso   1.000  C
  C956     1.0000 0.51933  0.74689  0.74598  Biso   1.000  C
  C957     1.0000 0.78170  0.50043  0.27105  Biso   1.000  C
  C958     1.0000 0.76056  0.23467  0.51483  Biso   1.000  C
  C959     1.0000 0.03117  0.74891  0.76972  Biso   1.000  C
  C960     1.0000 0.28423  0.46505  0.25237  Biso   1.000  C
  Cu1      1.0000 0.02261  0.48685  0.66249  Biso   1.000  Cu
  Cu2      1.0000 0.67691  0.99265  0.51418  Biso   1.000  Cu
  Cu3      1.0000 0.52771  0.63934  0.99948  Biso   1.000  Cu
  Cu4      1.0000 0.52614  0.48707  0.85293  Biso   1.000  Cu
  Cu5      1.0000 0.17455  0.99148  0.00848  Biso   1.000  Cu
  Cu6      1.0000 0.02958  0.64242  0.50811  Biso   1.000  Cu
  Cu7      1.0000 0.52489  0.98684  0.66408  Biso   1.000  Cu
  Cu8      1.0000 0.86805  0.49139  0.51009  Biso   1.000  Cu
  Cu9      1.0000 0.01230  0.14020  0.01344  Biso   1.000  Cu
  Cu10     1.0000 0.02443  0.99040  0.85634  Biso   1.000  Cu
  Cu11     1.0000 0.36843  0.49193  0.01246  Biso   1.000  Cu
  Cu12     1.0000 0.52410  0.13525  0.50879  Biso   1.000  Cu
  Cu13     1.0000 0.01876  0.48711  0.35828  Biso   1.000  Cu
  Cu14     1.0000 0.36907  0.98027  0.50650  Biso   1.000  Cu
  Cu15     1.0000 0.51542  0.33340  0.00767  Biso   1.000  Cu
  Cu16     1.0000 0.52273  0.48712  0.16178  Biso   1.000  Cu
  Cu17     1.0000 0.86692  0.98383  0.01194  Biso   1.000  Cu
  Cu18     1.0000 0.02552  0.33496  0.50973  Biso   1.000  Cu
  Cu19     1.0000 0.51686  0.99057  0.35816  Biso   1.000  Cu
  Cu20     1.0000 0.18173  0.48524  0.51370  Biso   1.000  Cu
  Cu21     1.0000 0.02822  0.83737  0.00812  Biso   1.000  Cu
  Cu22     1.0000 0.01554  0.98529  0.16543  Biso   1.000  Cu
  Cu23     1.0000 0.67625  0.48688  0.00739  Biso   1.000  Cu
  Cu24     1.0000 0.52544  0.83458  0.50897  Biso   1.000  Cu
  Cu25     1.0000 0.22761  0.99587  0.01029  Biso   1.000  Cu
  Cu26     1.0000 0.00901  0.19373  0.01258  Biso   1.000  Cu
  Cu27     1.0000 0.01553  0.98793  0.22035  Biso   1.000  Cu
  Cu28     1.0000 0.73287  0.99421  0.51403  Biso   1.000  Cu
  Cu29     1.0000 0.52193  0.18965  0.50968  Biso   1.000  Cu
  Cu30     1.0000 0.51925  0.98602  0.30241  Biso   1.000  Cu
  Cu31     1.0000 0.31337  0.49661  0.01346  Biso   1.000  Cu
  Cu32     1.0000 0.52876  0.69436  0.00151  Biso   1.000  Cu
  Cu33     1.0000 0.52294  0.49083  0.21547  Biso   1.000  Cu
  Cu34     1.0000 0.81447  0.49380  0.51000  Biso   1.000  Cu
  Cu35     1.0000 0.02968  0.69589  0.50812  Biso   1.000  Cu
  Cu36     1.0000 0.02270  0.48561  0.30191  Biso   1.000  Cu
  Cu37     1.0000 0.81288  0.98195  0.01249  Biso   1.000  Cu
  Cu38     1.0000 0.02774  0.78297  0.00827  Biso   1.000  Cu
  Cu39     1.0000 0.02486  0.99084  0.80087  Biso   1.000  Cu
  Cu40     1.0000 0.31667  0.98339  0.50715  Biso   1.000  Cu
  Cu41     1.0000 0.52758  0.78002  0.51026  Biso   1.000  Cu
  Cu42     1.0000 0.52308  0.98756  0.71878  Biso   1.000  Cu
  Cu43     1.0000 0.72961  0.48498  0.00451  Biso   1.000  Cu
  Cu44     1.0000 0.51329  0.27911  0.00873  Biso   1.000  Cu
  Cu45     1.0000 0.52335  0.48633  0.79843  Biso   1.000  Cu
  Cu46     1.0000 0.23596  0.48514  0.50993  Biso   1.000  Cu
  Cu47     1.0000 0.02366  0.28057  0.51022  Biso   1.000  Cu
  Cu48     1.0000 0.02373  0.48804  0.71600  Biso   1.000  Cu
  H1       1.0000 0.26395  0.77213  0.52825  Biso   1.000  H
  H2       1.0000 0.56154  0.27877  0.75155  Biso   1.000  H
  H3       1.0000 0.75386  0.52095  0.30177  Biso   1.000  H
  H4       1.0000 0.76989  0.77729  0.99696  Biso   1.000  H
  H5       1.0000 0.01599  0.22531  0.72314  Biso   1.000  H
  H6       1.0000 0.31613  0.48743  0.28097  Biso   1.000  H
  H7       1.0000 0.29108  0.27066  0.52561  Biso   1.000  H
  H8       1.0000 0.00439  0.78073  0.74684  Biso   1.000  H
  H9       1.0000 0.73051  0.01664  0.25036  Biso   1.000  H
  H10      1.0000 0.77840  0.27584  0.02525  Biso   1.000  H
  H11      1.0000 0.48126  0.76918  0.76340  Biso   1.000  H
  H12      1.0000 0.28052  0.01864  0.21963  Biso   1.000  H
  H13      1.0000 0.73522  0.25588  0.48265  Biso   1.000  H
  H14      1.0000 0.55544  0.75117  0.21030  Biso   1.000  H
  H15      1.0000 0.28803  0.45711  0.72149  Biso   1.000  H
  H16      1.0000 0.27213  0.20396  0.03331  Biso   1.000  H
  H17      1.0000 0.05905  0.74196  0.28675  Biso   1.000  H
  H18      1.0000 0.74125  0.49325  0.74144  Biso   1.000  H
  H19      1.0000 0.82322  0.75493  0.47348  Biso   1.000  H
  H20      1.0000 0.05464  0.20003  0.27154  Biso   1.000  H
  H21      1.0000 0.26014  0.01670  0.72067  Biso   1.000  H
  H22      1.0000 0.27052  0.70599  0.04748  Biso   1.000  H
  H23      1.0000 0.54066  0.19593  0.24351  Biso   1.000  H
  H24      1.0000 0.81314  0.93569  0.75270  Biso   1.000  H
  H25      1.0000 0.28976  0.02149  0.79797  Biso   1.000  H
  H26      1.0000 0.79811  0.23827  0.03972  Biso   1.000  H
  H27      1.0000 0.99400  0.72435  0.21392  Biso   1.000  H
  H28      1.0000 0.78639  0.94454  0.71704  Biso   1.000  H
  H29      1.0000 0.26802  0.20156  0.45847  Biso   1.000  H
  H30      1.0000 0.55335  0.78297  0.24335  Biso   1.000  H
  H31      1.0000 0.31302  0.49507  0.74400  Biso   1.000  H
  H32      1.0000 0.79233  0.69365  0.04761  Biso   1.000  H
  H33      1.0000 0.49132  0.27962  0.27170  Biso   1.000  H
  H34      1.0000 0.76223  0.55078  0.72379  Biso   1.000  H
  H35      1.0000 0.23446  0.75135  0.47965  Biso   1.000  H
  H36      1.0000 0.99330  0.22612  0.29806  Biso   1.000  H
  H37      1.0000 0.75435  0.96782  0.22415  Biso   1.000  H
  H38      1.0000 0.29385  0.78157  0.98906  Biso   1.000  H
  H39      1.0000 0.01817  0.25856  0.80748  Biso   1.000  H
  H40      1.0000 0.25589  0.95547  0.29103  Biso   1.000  H
  H41      1.0000 0.79661  0.77695  0.52042  Biso   1.000  H
  H42      1.0000 0.49092  0.20077  0.76194  Biso   1.000  H
  H43      1.0000 0.73462  0.46577  0.27025  Biso   1.000  H
  H44      1.0000 0.24522  0.28693  0.98376  Biso   1.000  H
  H45      1.0000 0.53912  0.69208  0.74069  Biso   1.000  H
  H46      1.0000 0.28576  0.44197  0.30638  Biso   1.000  H
  H47      1.0000 0.76058  0.27858  0.55076  Biso   1.000  H
  H48      1.0000 0.06499  0.69869  0.76044  Biso   1.000  H
  H49      1.0000 0.23134  0.49094  0.24627  Biso   1.000  H
  H50      1.0000 0.30707  0.23276  0.53727  Biso   1.000  H
  H51      1.0000 0.54269  0.22441  0.21575  Biso   1.000  H
  H52      1.0000 0.78482  0.52524  0.22070  Biso   1.000  H
  H53      1.0000 0.75206  0.19696  0.96878  Biso   1.000  H
  H54      1.0000 0.05394  0.27413  0.24603  Biso   1.000  H
  H55      1.0000 0.31364  0.00710  0.24283  Biso   1.000  H
  H56      1.0000 0.29235  0.69922  0.52700  Biso   1.000  H
  H57      1.0000 0.04802  0.77417  0.27134  Biso   1.000  H
  H58      1.0000 0.80767  0.02419  0.27706  Biso   1.000  H
  H59      1.0000 0.74040  0.75123  0.99042  Biso   1.000  H
  H60      1.0000 0.50284  0.72298  0.29529  Biso   1.000  H
  H61      1.0000 0.81705  0.49494  0.77271  Biso   1.000  H
  H62      1.0000 0.74076  0.72708  0.47249  Biso   1.000  H
  H63      1.0000 0.50210  0.75365  0.80331  Biso   1.000  H
  H64      1.0000 0.25648  0.46486  0.80727  Biso   1.000  H
  H65      1.0000 0.23272  0.72789  0.03663  Biso   1.000  H
  H66      1.0000 0.99178  0.74803  0.73008  Biso   1.000  H
  H67      1.0000 0.73163  0.99495  0.77664  Biso   1.000  H
  H68      1.0000 0.80726  0.23164  0.48458  Biso   1.000  H
  H69      1.0000 0.05991  0.20200  0.74655  Biso   1.000  H
  H70      1.0000 0.23826  0.96431  0.74732  Biso   1.000  H
  H71      1.0000 0.29532  0.23479  0.04234  Biso   1.000  H
  H72      1.0000 0.56449  0.24480  0.72434  Biso   1.000  H
  H73      1.0000 0.78397  0.55120  0.80156  Biso   1.000  H
  H74      1.0000 0.76568  0.69717  0.52005  Biso   1.000  H
  H75      1.0000 0.55660  0.72812  0.72380  Biso   1.000  H
  H76      1.0000 0.23327  0.50933  0.78083  Biso   1.000  H
  H77      1.0000 0.30980  0.75084  0.97713  Biso   1.000  H
  H78      1.0000 0.06175  0.72238  0.79632  Biso   1.000  H
  H79      1.0000 0.76534  0.00529  0.79704  Biso   1.000  H
  H80      1.0000 0.78325  0.20717  0.54393  Biso   1.000  H
  H81      1.0000 0.05225  0.29149  0.77729  Biso   1.000  H
  H82      1.0000 0.31791  0.96585  0.77219  Biso   1.000  H
  H83      1.0000 0.21165  0.25979  0.98606  Biso   1.000  H
  H84      1.0000 0.48132  0.23703  0.78013  Biso   1.000  H
  H85      1.0000 0.25780  0.44270  0.22065  Biso   1.000  H
  H86      1.0000 0.22688  0.21766  0.48494  Biso   1.000  H
  H87      1.0000 0.48342  0.25131  0.29825  Biso   1.000  H
  H88      1.0000 0.81131  0.47473  0.24385  Biso   1.000  H
  H89      1.0000 0.71957  0.21928  0.97975  Biso   1.000  H
  H90      1.0000 0.98792  0.24805  0.22980  Biso   1.000  H
  H91      1.0000 0.23480  0.94707  0.26100  Biso   1.000  H
  H92      1.0000 0.31848  0.72343  0.47134  Biso   1.000  H
  H93      1.0000 0.98854  0.69947  0.24619  Biso   1.000  H
  H94      1.0000 0.78835  0.97016  0.30619  Biso   1.000  H
  H95      1.0000 0.82077  0.71646  0.04347  Biso   1.000  H
  H96      1.0000 0.49068  0.70048  0.26317  Biso   1.000  H
  H97      1.0000 0.88946  0.98159  0.92008  Biso   1.000  H
  H98      1.0000 0.93726  0.85454  0.00625  Biso   1.000  H
  H99      1.0000 0.03246  0.89851  0.87497  Biso   1.000  H
  H100     1.0000 0.39291  0.99323  0.59618  Biso   1.000  H
  H101     1.0000 0.43279  0.85244  0.51837  Biso   1.000  H
  H102     1.0000 0.51239  0.89497  0.64245  Biso   1.000  H
  H103     1.0000 0.65631  0.49500  0.91335  Biso   1.000  H
  H104     1.0000 0.60766  0.35254  0.99700  Biso   1.000  H
  H105     1.0000 0.52330  0.39387  0.87494  Biso   1.000  H
  H106     1.0000 0.16214  0.48863  0.60160  Biso   1.000  H
  H107     1.0000 0.12022  0.35224  0.52462  Biso   1.000  H
  H108     1.0000 0.01304  0.39804  0.64360  Biso   1.000  H
  H109     1.0000 0.15103  0.98780  0.10110  Biso   1.000  H
  H110     1.0000 0.10264  0.12468  0.01777  Biso   1.000  H
  H111     1.0000 0.00540  0.07832  0.14405  Biso   1.000  H
  H112     1.0000 0.65466  0.98998  0.42320  Biso   1.000  H
  H113     1.0000 0.61891  0.12062  0.51166  Biso   1.000  H
  H114     1.0000 0.51426  0.07672  0.37530  Biso   1.000  H
  H115     1.0000 0.38844  0.48968  0.10460  Biso   1.000  H
  H116     1.0000 0.43806  0.62459  0.01659  Biso   1.000  H
  H117     1.0000 0.53016  0.57846  0.13457  Biso   1.000  H
  H118     1.0000 0.88696  0.48365  0.41705  Biso   1.000  H
  H119     1.0000 0.93847  0.62185  0.50723  Biso   1.000  H
  H120     1.0000 0.01877  0.58180  0.37547  Biso   1.000  H
  H121     1.0000 0.11457  0.00293  0.87295  Biso   1.000  H
  H122     1.0000 0.88349  0.07406  0.99870  Biso   1.000  H
  H123     1.0000 0.02309  0.85947  0.10069  Biso   1.000  H
  H124     1.0000 0.61588  0.98446  0.64681  Biso   1.000  H
  H125     1.0000 0.39516  0.07107  0.49427  Biso   1.000  H
  H126     1.0000 0.52733  0.85479  0.41902  Biso   1.000  H
  H127     1.0000 0.43274  0.48620  0.87829  Biso   1.000  H
  H128     1.0000 0.65956  0.58053  0.01467  Biso   1.000  H
  H129     1.0000 0.52550  0.35396  0.09774  Biso   1.000  H
  H130     1.0000 0.93257  0.50156  0.64451  Biso   1.000  H
  H131     1.0000 0.16254  0.57583  0.51380  Biso   1.000  H
  H132     1.0000 0.02091  0.35136  0.41989  Biso   1.000  H
  H133     1.0000 0.92232  0.99629  0.14394  Biso   1.000  H
  H134     1.0000 0.15906  0.89801  0.00133  Biso   1.000  H
  H135     1.0000 0.02913  0.12211  0.92228  Biso   1.000  H
  H136     1.0000 0.42966  0.97649  0.37558  Biso   1.000  H
  H137     1.0000 0.65862  0.89880  0.51460  Biso   1.000  H
  H138     1.0000 0.53209  0.11813  0.59944  Biso   1.000  H
  H139     1.0000 0.61847  0.48185  0.14113  Biso   1.000  H
  H140     1.0000 0.38268  0.40094  0.01138  Biso   1.000  H
  H141     1.0000 0.53803  0.61673  0.91233  Biso   1.000  H
  H142     1.0000 0.11075  0.48417  0.38134  Biso   1.000  H
  H143     1.0000 0.88747  0.39969  0.51635  Biso   1.000  H
  H144     1.0000 0.01950  0.62259  0.59788  Biso   1.000  H
  H145     1.0000 0.61679  0.50337  0.87082  Biso   1.000  H
  H146     1.0000 0.89397  0.58064  0.49994  Biso   1.000  H
  H147     1.0000 0.51660  0.85441  0.59901  Biso   1.000  H
  H148     1.0000 0.12035  0.48470  0.64286  Biso   1.000  H
  H149     1.0000 0.39467  0.58643  0.01924  Biso   1.000  H
  H150     1.0000 0.03159  0.85546  0.91639  Biso   1.000  H
  H151     1.0000 0.93609  0.98772  0.87601  Biso   1.000  H
  H152     1.0000 0.65906  0.08389  0.51962  Biso   1.000  H
  H153     1.0000 0.02551  0.35473  0.59958  Biso   1.000  H
  H154     1.0000 0.43682  0.98413  0.64558  Biso   1.000  H
  H155     1.0000 0.14520  0.08485  0.01352  Biso   1.000  H
  H156     1.0000 0.51455  0.35288  0.91794  Biso   1.000  H
  H157     1.0000 0.43027  0.48368  0.14246  Biso   1.000  H
  H158     1.0000 0.16068  0.39672  0.52674  Biso   1.000  H
  H159     1.0000 0.52523  0.11677  0.41393  Biso   1.000  H
  H160     1.0000 0.92992  0.48728  0.37521  Biso   1.000  H
  H161     1.0000 0.65157  0.39505  0.00383  Biso   1.000  H
  H162     1.0000 0.99916  0.12026  0.10507  Biso   1.000  H
  H163     1.0000 0.10794  0.98591  0.14164  Biso   1.000  H
  H164     1.0000 0.38746  0.89235  0.52473  Biso   1.000  H
  H165     1.0000 0.01857  0.62272  0.41935  Biso   1.000  H
  H166     1.0000 0.61172  0.98936  0.38292  Biso   1.000  H
  H167     1.0000 0.89443  0.89470  0.01054  Biso   1.000  H
  H168     1.0000 0.53298  0.61768  0.09311  Biso   1.000  H
  H169     1.0000 0.02699  0.07667  0.87585  Biso   1.000  H
  H170     1.0000 0.88741  0.00080  0.10429  Biso   1.000  H
  H171     1.0000 0.11552  0.85792  0.00720  Biso   1.000  H
  H172     1.0000 0.52576  0.07696  0.64561  Biso   1.000  H
  H173     1.0000 0.38684  0.96876  0.41320  Biso   1.000  H
  H174     1.0000 0.61962  0.85859  0.50965  Biso   1.000  H
  H175     1.0000 0.52949  0.57268  0.86748  Biso   1.000  H
  H176     1.0000 0.65887  0.48275  0.10000  Biso   1.000  H
  H177     1.0000 0.42327  0.35640  0.00006  Biso   1.000  H
  H178     1.0000 0.02315  0.57932  0.64091  Biso   1.000  H
  H179     1.0000 0.15313  0.48670  0.42025  Biso   1.000  H
  H180     1.0000 0.93104  0.36130  0.51587  Biso   1.000  H
  H181     1.0000 0.01828  0.89773  0.14742  Biso   1.000  H
  H182     1.0000 0.15777  0.00186  0.92164  Biso   1.000  H
  H183     1.0000 0.92035  0.11683  0.99797  Biso   1.000  H
  H184     1.0000 0.52097  0.89385  0.37832  Biso   1.000  H
  H185     1.0000 0.65772  0.98894  0.60502  Biso   1.000  H
  H186     1.0000 0.43440  0.11450  0.49364  Biso   1.000  H
  H187     1.0000 0.52841  0.39409  0.14129  Biso   1.000  H
  H188     1.0000 0.39121  0.48802  0.92160  Biso   1.000  H
  H189     1.0000 0.61808  0.61911  0.00730  Biso   1.000  H
  H190     1.0000 0.01637  0.39400  0.37990  Biso   1.000  H
  H191     1.0000 0.89193  0.50579  0.60166  Biso   1.000  H
  H192     1.0000 0.12080  0.61988  0.51789  Biso   1.000  H
  H193     1.0000 0.29816  0.83641  0.50445  Biso   1.000  H
  H194     1.0000 0.50790  0.25840  0.86297  Biso   1.000  H
  H195     1.0000 0.87568  0.50728  0.28266  Biso   1.000  H
  H196     1.0000 0.80300  0.83890  0.03609  Biso   1.000  H
  H197     1.0000 0.03794  0.25940  0.65504  Biso   1.000  H
  H198     1.0000 0.38150  0.46785  0.23904  Biso   1.000  H
  H199     1.0000 0.25049  0.33541  0.49878  Biso   1.000  H
  H200     1.0000 0.02715  0.76018  0.86226  Biso   1.000  H
  H201     1.0000 0.66016  0.98821  0.28367  Biso   1.000  H
  H202     1.0000 0.74608  0.34006  0.99028  Biso   1.000  H
  H203     1.0000 0.53232  0.75818  0.65142  Biso   1.000  H
  H204     1.0000 0.15993  0.98999  0.23992  Biso   1.000  H
  H205     1.0000 0.75663  0.13309  0.50725  Biso   1.000  H
  H206     1.0000 0.51480  0.71733  0.13786  Biso   1.000  H
  H207     1.0000 0.16663  0.49090  0.74317  Biso   1.000  H
  H208     1.0000 0.24280  0.14086  0.99803  Biso   1.000  H
  H209     1.0000 0.02085  0.71882  0.36077  Biso   1.000  H
  H210     1.0000 0.67162  0.50300  0.77488  Biso   1.000  H
  H211     1.0000 0.80039  0.63765  0.48718  Biso   1.000  H
  H212     1.0000 0.00927  0.21618  0.15641  Biso   1.000  H
  H213     1.0000 0.37774  0.99770  0.73563  Biso   1.000  H
  H214     1.0000 0.30008  0.64163  0.00314  Biso   1.000  H
  H215     1.0000 0.52293  0.21526  0.36499  Biso   1.000  H
  H216     1.0000 0.87899  0.97764  0.78251  Biso   1.000  H
  H217     1.0000 0.25439  0.48371  0.36544  Biso   1.000  H
  H218     1.0000 0.37844  0.20940  0.49205  Biso   1.000  H
  H219     1.0000 0.52038  0.34733  0.23953  Biso   1.000  H
  H220     1.0000 0.75513  0.49144  0.15216  Biso   1.000  H
  H221     1.0000 0.86596  0.21185  0.00449  Biso   1.000  H
  H222     1.0000 0.02411  0.34180  0.28258  Biso   1.000  H
  H223     1.0000 0.28979  0.97410  0.36276  Biso   1.000  H
  H224     1.0000 0.17599  0.71173  0.50454  Biso   1.000  H
  H225     1.0000 0.01240  0.84161  0.24018  Biso   1.000  H
  H226     1.0000 0.78770  0.00211  0.15354  Biso   1.000  H
  H227     1.0000 0.66919  0.71622  0.01915  Biso   1.000  H
  H228     1.0000 0.51387  0.84360  0.27981  Biso   1.000  H
  H229     1.0000 0.79447  0.52250  0.65066  Biso   1.000  H
  H230     1.0000 0.67429  0.76364  0.50928  Biso   1.000  H
  H231     1.0000 0.49846  0.63099  0.77816  Biso   1.000  H
  H232     1.0000 0.29405  0.49772  0.87160  Biso   1.000  H
  H233     1.0000 0.17333  0.76246  0.00286  Biso   1.000  H
  H234     1.0000 0.01733  0.63492  0.73639  Biso   1.000  H
  H235     1.0000 0.75414  0.97831  0.65855  Biso   1.000  H
  H236     1.0000 0.88313  0.26169  0.52177  Biso   1.000  H
  H237     1.0000 0.02335  0.13286  0.78230  Biso   1.000  H
  H238     1.0000 0.25459  0.99622  0.86360  Biso   1.000  H
  H239     1.0000 0.36720  0.26248  0.00722  Biso   1.000  H
  H240     1.0000 0.52591  0.13440  0.73991  Biso   1.000  H
  H241     1.0000 0.75592  0.49917  0.86200  Biso   1.000  H
  H242     1.0000 0.88701  0.72098  0.49739  Biso   1.000  H
  H243     1.0000 0.51170  0.84332  0.73615  Biso   1.000  H
  H244     1.0000 0.25588  0.48963  0.65404  Biso   1.000  H
  H245     1.0000 0.38746  0.72345  0.00409  Biso   1.000  H
  H246     1.0000 0.04299  0.84450  0.77963  Biso   1.000  H
  H247     1.0000 0.79414  0.96764  0.86520  Biso   1.000  H
  H248     1.0000 0.66615  0.21913  0.50686  Biso   1.000  H
  H249     1.0000 0.00410  0.34497  0.73641  Biso   1.000  H
  H250     1.0000 0.29593  0.98537  0.64586  Biso   1.000  H
  H251     1.0000 0.15164  0.22407  0.02232  Biso   1.000  H
  H252     1.0000 0.52053  0.34044  0.77725  Biso   1.000  H
  H253     1.0000 0.28981  0.47713  0.15194  Biso   1.000  H
  H254     1.0000 0.16870  0.25391  0.52488  Biso   1.000  H
  H255     1.0000 0.50383  0.13387  0.27874  Biso   1.000  H
  H256     1.0000 0.79298  0.48306  0.36350  Biso   1.000  H
  H257     1.0000 0.66095  0.25879  0.01071  Biso   1.000  H
  H258     1.0000 0.01420  0.13361  0.23864  Biso   1.000  H
  H259     1.0000 0.24656  0.99298  0.15405  Biso   1.000  H
  H260     1.0000 0.38286  0.75469  0.50998  Biso   1.000  H
  H261     1.0000 0.01255  0.63352  0.27844  Biso   1.000  H
  H262     1.0000 0.75363  0.98896  0.36931  Biso   1.000  H
  H263     1.0000 0.88723  0.75730  0.01402  Biso   1.000  H
  H264     1.0000 0.52548  0.63515  0.23130  Biso   1.000  H
  H265     1.0000 0.03763  0.21628  0.86938  Biso   1.000  H
  H266     1.0000 0.87034  0.98771  0.23903  Biso   1.000  H
  H267     1.0000 0.25757  0.85060  0.01633  Biso   1.000  H
  H268     1.0000 0.54511  0.21466  0.64860  Biso   1.000  H
  H269     1.0000 0.37781  0.97170  0.27864  Biso   1.000  H
  H270     1.0000 0.76071  0.85344  0.51251  Biso   1.000  H
  H271     1.0000 0.53168  0.71436  0.85960  Biso   1.000  H
  H272     1.0000 0.66509  0.49817  0.23872  Biso   1.000  H
  H273     1.0000 0.28325  0.35281  0.01278  Biso   1.000  H
  H274     1.0000 0.01911  0.71807  0.65649  Biso   1.000  H
  H275     1.0000 0.16309  0.46166  0.28394  Biso   1.000  H
  H276     1.0000 0.79210  0.34594  0.51886  Biso   1.000  H
  H277     1.0000 0.03078  0.76114  0.14807  Biso   1.000  H
  H278     1.0000 0.17100  0.99813  0.77974  Biso   1.000  H
  H279     1.0000 0.78290  0.12200  0.00534  Biso   1.000  H
  H280     1.0000 0.53606  0.75532  0.36471  Biso   1.000  H
  H281     1.0000 0.66668  0.96627  0.74288  Biso   1.000  H
  H282     1.0000 0.29830  0.12148  0.48339  Biso   1.000  H
  H283     1.0000 0.50996  0.25853  0.15048  Biso   1.000  H
  H284     1.0000 0.38291  0.47566  0.78200  Biso   1.000  H
  H285     1.0000 0.75736  0.63177  0.01987  Biso   1.000  H
  H286     1.0000 0.02892  0.25850  0.36464  Biso   1.000  H
  H287     1.0000 0.87928  0.52439  0.73435  Biso   1.000  H
  H288     1.0000 0.25569  0.62809  0.49023  Biso   1.000  H
  H289     1.0000 0.10085  0.22092  0.02808  Biso   1.000  H
  H290     1.0000 0.01387  0.07623  0.23879  Biso   1.000  H
  H291     1.0000 0.24602  0.99757  0.09662  Biso   1.000  H
  H292     1.0000 0.60977  0.21539  0.50979  Biso   1.000  H
  H293     1.0000 0.50217  0.07724  0.27881  Biso   1.000  H
  H294     1.0000 0.75259  0.99624  0.42102  Biso   1.000  H
  H295     1.0000 0.44227  0.71941  0.00576  Biso   1.000  H
  H296     1.0000 0.52820  0.58031  0.23173  Biso   1.000  H
  H297     1.0000 0.29547  0.48282  0.09806  Biso   1.000  H
  H298     1.0000 0.93973  0.71836  0.50232  Biso   1.000  H
  H299     1.0000 0.01863  0.58123  0.27695  Biso   1.000  H
  H300     1.0000 0.78853  0.48084  0.41882  Biso   1.000  H
  H301     1.0000 0.94315  0.76065  0.00277  Biso   1.000  H
  H302     1.0000 0.03879  0.90056  0.77941  Biso   1.000  H
  H303     1.0000 0.79586  0.96079  0.92212  Biso   1.000  H
  H304     1.0000 0.44002  0.75390  0.50310  Biso   1.000  H
  H305     1.0000 0.50877  0.89677  0.73810  Biso   1.000  H
  H306     1.0000 0.29853  0.98746  0.59149  Biso   1.000  H
  H307     1.0000 0.60855  0.25837  0.01583  Biso   1.000  H
  H308     1.0000 0.52280  0.39461  0.77880  Biso   1.000  H
  H309     1.0000 0.75304  0.49658  0.91698  Biso   1.000  H
  H310     1.0000 0.11426  0.25466  0.52817  Biso   1.000  H
  H311     1.0000 0.99867  0.39898  0.73738  Biso   1.000  H
  H312     1.0000 0.25570  0.49188  0.60186  Biso   1.000  H
  H313     1.0000 0.25492  0.99431  0.91970  Biso   1.000  H
  H314     1.0000 0.92155  0.21067  0.00950  Biso   1.000  H
  H315     1.0000 0.00997  0.89507  0.24205  Biso   1.000  H
  H316     1.0000 0.75104  0.98924  0.60154  Biso   1.000  H
  H317     1.0000 0.42816  0.21109  0.50272  Biso   1.000  H
  H318     1.0000 0.52301  0.89774  0.28513  Biso   1.000  H
  H319     1.0000 0.29589  0.50083  0.92518  Biso   1.000  H
  H320     1.0000 0.61341  0.71157  0.01180  Biso   1.000  H
  H321     1.0000 0.52225  0.39888  0.23685  Biso   1.000  H
  H322     1.0000 0.79470  0.51290  0.60011  Biso   1.000  H
  H323     1.0000 0.12063  0.71269  0.50944  Biso   1.000  H
  H324     1.0000 0.02086  0.39287  0.28226  Biso   1.000  H
  H325     1.0000 0.79091  0.00337  0.09588  Biso   1.000  H
  H326     1.0000 0.11883  0.76139  0.00418  Biso   1.000  H
  H327     1.0000 0.01594  0.08364  0.78145  Biso   1.000  H
  H328     1.0000 0.29224  0.96959  0.41946  Biso   1.000  H
  H329     1.0000 0.62315  0.76387  0.50171  Biso   1.000  H
  H330     1.0000 0.52059  0.07919  0.73917  Biso   1.000  H
  H331     1.0000 0.75220  0.49208  0.09684  Biso   1.000  H
  H332     1.0000 0.42083  0.26020  0.00888  Biso   1.000  H
  H333     1.0000 0.50188  0.57581  0.77606  Biso   1.000  H
  H334     1.0000 0.24988  0.49211  0.42138  Biso   1.000  H
  H335     1.0000 0.93622  0.26552  0.52221  Biso   1.000  H
  H336     1.0000 0.02154  0.57739  0.73507  Biso   1.000  H
  H337     1.0000 0.03423  0.21633  0.92240  Biso   1.000  H
  H338     1.0000 0.92348  0.98323  0.23777  Biso   1.000  H
  H339     1.0000 0.25516  0.90323  0.01772  Biso   1.000  H
  H340     1.0000 0.54343  0.21188  0.59523  Biso   1.000  H
  H341     1.0000 0.43139  0.97769  0.28049  Biso   1.000  H
  H342     1.0000 0.75499  0.90612  0.51965  Biso   1.000  H
  H343     1.0000 0.54196  0.71327  0.91212  Biso   1.000  H
  H344     1.0000 0.61052  0.50016  0.23781  Biso   1.000  H
  H345     1.0000 0.28559  0.40531  0.01831  Biso   1.000  H
  H346     1.0000 0.02269  0.71833  0.60026  Biso   1.000  H
  H347     1.0000 0.10953  0.46077  0.28717  Biso   1.000  H
  H348     1.0000 0.79093  0.40010  0.51825  Biso   1.000  H
  H349     1.0000 0.03143  0.76435  0.09477  Biso   1.000  H
  H350     1.0000 0.11477  0.99808  0.77906  Biso   1.000  H
  H351     1.0000 0.78886  0.06985  0.00091  Biso   1.000  H
  H352     1.0000 0.53831  0.75813  0.41938  Biso   1.000  H
  H353     1.0000 0.61194  0.96766  0.74123  Biso   1.000  H
  H354     1.0000 0.29842  0.06791  0.47917  Biso   1.000  H
  H355     1.0000 0.51754  0.25823  0.09778  Biso   1.000  H
  H356     1.0000 0.43245  0.47628  0.78086  Biso   1.000  H
  H357     1.0000 0.75672  0.57861  0.02022  Biso   1.000  H
  H358     1.0000 0.03209  0.25481  0.41709  Biso   1.000  H
  H359     1.0000 0.93272  0.51836  0.73888  Biso   1.000  H
  H360     1.0000 0.25719  0.57076  0.49701  Biso   1.000  H
  H361     1.0000 0.02195  0.71839  0.41501  Biso   1.000  H
  H362     1.0000 0.43370  0.00456  0.73709  Biso   1.000  H
  H363     1.0000 0.74824  0.39212  0.99301  Biso   1.000  H
  H364     1.0000 0.51767  0.71550  0.08901  Biso   1.000  H
  H365     1.0000 0.93297  0.99086  0.78373  Biso   1.000  H
  H366     1.0000 0.25348  0.39088  0.49568  Biso   1.000  H
  H367     1.0000 0.53378  0.21213  0.41890  Biso   1.000  H
  H368     1.0000 0.11200  0.49545  0.73881  Biso   1.000  H
  H369     1.0000 0.79953  0.89128  0.02864  Biso   1.000  H
  H370     1.0000 0.00729  0.21478  0.10263  Biso   1.000  H
  H371     1.0000 0.61805  0.50153  0.77674  Biso   1.000  H
  H372     1.0000 0.29416  0.89168  0.51418  Biso   1.000  H
  H373     1.0000 0.03544  0.26153  0.60102  Biso   1.000  H
  H374     1.0000 0.60401  0.98777  0.28904  Biso   1.000  H
  H375     1.0000 0.29940  0.58462  0.00608  Biso   1.000  H
  H376     1.0000 0.49433  0.25847  0.91393  Biso   1.000  H
  H377     1.0000 0.10482  0.98465  0.23952  Biso   1.000  H
  H378     1.0000 0.79877  0.58234  0.48860  Biso   1.000  H
  H379     1.0000 0.53376  0.76131  0.59617  Biso   1.000  H
  H380     1.0000 0.93037  0.50651  0.28138  Biso   1.000  H
  H381     1.0000 0.23874  0.08428  0.99315  Biso   1.000  H
  H382     1.0000 0.02553  0.75692  0.91522  Biso   1.000  H
  H383     1.0000 0.43341  0.46944  0.23527  Biso   1.000  H
  H384     1.0000 0.75419  0.08237  0.52248  Biso   1.000  H
  H385     1.0000 0.24972  0.44403  0.34310  Biso   1.000  H
  H386     1.0000 0.29947  0.15927  0.45744  Biso   1.000  H
  H387     1.0000 0.48700  0.31490  0.23264  Biso   1.000  H
  H388     1.0000 0.69536  0.46281  0.23359  Biso   1.000  H
  H389     1.0000 0.83662  0.20269  0.03690  Biso   1.000  H
  H390     1.0000 0.00205  0.25507  0.34019  Biso   1.000  H
  H391     1.0000 0.29324  0.94799  0.33197  Biso   1.000  H
  H392     1.0000 0.19993  0.71536  0.47164  Biso   1.000  H
  H393     1.0000 0.99662  0.76305  0.18029  Biso   1.000  H
  H394     1.0000 0.79318  0.96638  0.18627  Biso   1.000  H
  H395     1.0000 0.75559  0.65964  0.04739  Biso   1.000  H
  H396     1.0000 0.55391  0.81557  0.28307  Biso   1.000  H
  H397     1.0000 0.80128  0.55349  0.68382  Biso   1.000  H
  H398     1.0000 0.76258  0.81671  0.52719  Biso   1.000  H
  H399     1.0000 0.53574  0.65429  0.78025  Biso   1.000  H
  H400     1.0000 0.35444  0.50118  0.78019  Biso   1.000  H
  H401     1.0000 0.25746  0.81881  0.97944  Biso   1.000  H
  H402     1.0000 0.05961  0.66296  0.72093  Biso   1.000  H
  H403     1.0000 0.75049  0.94337  0.68091  Biso   1.000  H
  H404     1.0000 0.79687  0.31475  0.55574  Biso   1.000  H
  H405     1.0000 0.00681  0.22260  0.83995  Biso   1.000  H
  H406     1.0000 0.24963  0.02952  0.83316  Biso   1.000  H
  H407     1.0000 0.28316  0.32437  0.97806  Biso   1.000  H
  H408     1.0000 0.48760  0.16855  0.72249  Biso   1.000  H
  H409     1.0000 0.29679  0.44724  0.18309  Biso   1.000  H
  H410     1.0000 0.19191  0.25755  0.48263  Biso   1.000  H
  H411     1.0000 0.48737  0.22096  0.33587  Biso   1.000  H
  H412     1.0000 0.85100  0.47568  0.27870  Biso   1.000  H
  H413     1.0000 0.68675  0.25655  0.97186  Biso   1.000  H
  H414     1.0000 0.98155  0.21078  0.19070  Biso   1.000  H
  H415     1.0000 0.19549  0.95304  0.22810  Biso   1.000  H
  H416     1.0000 0.35473  0.75994  0.47368  Biso   1.000  H
  H417     1.0000 0.98419  0.66509  0.28285  Biso   1.000  H
  H418     1.0000 0.75059  0.96076  0.34013  Biso   1.000  H
  H419     1.0000 0.85962  0.75273  0.04928  Biso   1.000  H
  H420     1.0000 0.48830  0.66803  0.22601  Biso   1.000  H
  H421     1.0000 0.74419  0.54127  0.83902  Biso   1.000  H
  H422     1.0000 0.79995  0.66228  0.52389  Biso   1.000  H
  H423     1.0000 0.55946  0.76783  0.68773  Biso   1.000  H
  H424     1.0000 0.19654  0.51549  0.73886  Biso   1.000  H
  H425     1.0000 0.35218  0.71944  0.97665  Biso   1.000  H
  H426     1.0000 0.06868  0.76022  0.83239  Biso   1.000  H
  H427     1.0000 0.80298  0.00950  0.83161  Biso   1.000  H
  H428     1.0000 0.74714  0.16771  0.54337  Biso   1.000  H
  H429     1.0000 0.05085  0.32738  0.73878  Biso   1.000  H
  H430     1.0000 0.35298  0.96416  0.73264  Biso   1.000  H
  H431     1.0000 0.17949  0.22385  0.98150  Biso   1.000  H
  H432     1.0000 0.47743  0.26858  0.82283  Biso   1.000  H
  H433     1.0000 0.29574  0.01421  0.67994  Biso   1.000  H
  H434     1.0000 0.74240  0.31443  0.02419  Biso   1.000  H
  H435     1.0000 0.05906  0.70760  0.32787  Biso   1.000  H
  H436     1.0000 0.85168  0.93692  0.78939  Biso   1.000  H
  H437     1.0000 0.25303  0.30628  0.53668  Biso   1.000  H
  H438     1.0000 0.55012  0.71780  0.17056  Biso   1.000  H
  H439     1.0000 0.25124  0.46131  0.68287  Biso   1.000  H
  H440     1.0000 0.80584  0.81143  0.99546  Biso   1.000  H
  H441     1.0000 0.53670  0.15706  0.27606  Biso   1.000  H
  H442     1.0000 0.70788  0.47937  0.77713  Biso   1.000  H
  H443     1.0000 0.30028  0.80570  0.54135  Biso   1.000  H
  H444     1.0000 0.05557  0.16089  0.23390  Biso   1.000  H
  H445     1.0000 0.69025  0.01568  0.28659  Biso   1.000  H
  H446     1.0000 0.30576  0.66769  0.04519  Biso   1.000  H
  H447     1.0000 0.00388  0.25844  0.68740  Biso   1.000  H
  H448     1.0000 0.24149  0.02735  0.18783  Biso   1.000  H
  H449     1.0000 0.85954  0.71201  0.46722  Biso   1.000  H
  H450     1.0000 0.55686  0.30993  0.79272  Biso   1.000  H
  H451     1.0000 0.79402  0.52397  0.34036  Biso   1.000  H
  H452     1.0000 0.23700  0.16821  0.03295  Biso   1.000  H
  H453     1.0000 0.48556  0.80831  0.72987  Biso   1.000  H
  H454     1.0000 0.34809  0.49838  0.24460  Biso   1.000  H
  H455     1.0000 0.69930  0.21569  0.47718  Biso   1.000  H
  H456     1.0000 0.00950  0.81898  0.78409  Biso   1.000  H
  H457     1.0000 0.70211  0.76850  0.47110  Biso   1.000  H
  H458     1.0000 0.49179  0.71493  0.83601  Biso   1.000  H
  H459     1.0000 0.85338  0.48950  0.73670  Biso   1.000  H
  H460     1.0000 0.20066  0.76500  0.03811  Biso   1.000  H
  H461     1.0000 0.98340  0.71172  0.69204  Biso   1.000  H
  H462     1.0000 0.29669  0.46297  0.84636  Biso   1.000  H
  H463     1.0000 0.84767  0.26705  0.48309  Biso   1.000  H
  H464     1.0000 0.05722  0.16064  0.78205  Biso   1.000  H
  H465     1.0000 0.69627  0.99914  0.73874  Biso   1.000  H
  H466     1.0000 0.33577  0.26916  0.03908  Biso   1.000  H
  H467     1.0000 0.56766  0.21078  0.68554  Biso   1.000  H
  H468     1.0000 0.19902  0.96125  0.78867  Biso   1.000  H
  H469     1.0000 0.34024  0.19190  0.53605  Biso   1.000  H
  H470     1.0000 0.54490  0.25947  0.17989  Biso   1.000  H
  H471     1.0000 0.19396  0.49498  0.28123  Biso   1.000  H
  H472     1.0000 0.78557  0.15588  0.96880  Biso   1.000  H
  H473     1.0000 0.05617  0.31211  0.28575  Biso   1.000  H
  H474     1.0000 0.74798  0.52428  0.18216  Biso   1.000  H
  H475     1.0000 0.25822  0.65929  0.52661  Biso   1.000  H
  H476     1.0000 0.05479  0.81120  0.23541  Biso   1.000  H
  H477     1.0000 0.35048  0.00534  0.27820  Biso   1.000  H
  H478     1.0000 0.70213  0.71742  0.99257  Biso   1.000  H
  H479     1.0000 0.50369  0.75306  0.33413  Biso   1.000  H
  H480     1.0000 0.84300  0.02900  0.23523  Biso   1.000  H
  N1       1.0000 0.70280  0.16694  0.50943  Biso   1.000  N
  N2       1.0000 0.52195  0.66569  0.17632  Biso   1.000  N
  N3       1.0000 0.20214  0.48777  0.68893  Biso   1.000  N
  N4       1.0000 0.18683  0.17004  0.00728  Biso   1.000  N
  N5       1.0000 0.02095  0.66586  0.33092  Biso   1.000  N
  N6       1.0000 0.70375  0.50326  0.83050  Biso   1.000  N
  N7       1.0000 0.85431  0.66553  0.49668  Biso   1.000  N
  N8       1.0000 0.01690  0.16391  0.18698  Biso   1.000  N
  N9       1.0000 0.34770  0.98944  0.68324  Biso   1.000  N
  N10      1.0000 0.35244  0.67091  0.01025  Biso   1.000  N
  N11      1.0000 0.51033  0.16378  0.33081  Biso   1.000  N
  N12      1.0000 0.84706  0.97340  0.83421  Biso   1.000  N
  N13      1.0000 0.35199  0.80588  0.50957  Biso   1.000  N
  N14      1.0000 0.51616  0.31088  0.83156  Biso   1.000  N
  N15      1.0000 0.84480  0.49496  0.33367  Biso   1.000  N
  N16      1.0000 0.85503  0.80845  0.02429  Biso   1.000  N
  N17      1.0000 0.02401  0.31478  0.68712  Biso   1.000  N
  N18      1.0000 0.34483  0.47645  0.18730  Biso   1.000  N
  N19      1.0000 0.20073  0.30750  0.51374  Biso   1.000  N
  N20      1.0000 0.03921  0.81238  0.83195  Biso   1.000  N
  N21      1.0000 0.69590  0.98650  0.33770  Biso   1.000  N
  N22      1.0000 0.69236  0.30878  0.99784  Biso   1.000  N
  N23      1.0000 0.52276  0.81096  0.68471  Biso   1.000  N
  N24      1.0000 0.19296  0.99134  0.18536  Biso   1.000  N
  N25      1.0000 0.84841  0.52039  0.68554  Biso   1.000  N
  N26      1.0000 0.70720  0.81713  0.50459  Biso   1.000  N
  N27      1.0000 0.51653  0.66108  0.83019  Biso   1.000  N
  N28      1.0000 0.34728  0.48690  0.83624  Biso   1.000  N
  N29      1.0000 0.20559  0.81513  0.00928  Biso   1.000  N
  N30      1.0000 0.01826  0.66487  0.68363  Biso   1.000  N
  N31      1.0000 0.69878  0.97351  0.68887  Biso   1.000  N
  N32      1.0000 0.84700  0.31591  0.51951  Biso   1.000  N
  N33      1.0000 0.03010  0.16626  0.83624  Biso   1.000  N
  N34      1.0000 0.20249  0.99667  0.83466  Biso   1.000  N
  N35      1.0000 0.33562  0.31681  0.00692  Biso   1.000  N
  N36      1.0000 0.53400  0.16325  0.68307  Biso   1.000  N
  N37      1.0000 0.19626  0.47394  0.33633  Biso   1.000  N
  N38      1.0000 0.34723  0.15503  0.49194  Biso   1.000  N
  N39      1.0000 0.51718  0.31260  0.18332  Biso   1.000  N
  N40      1.0000 0.69910  0.49181  0.18482  Biso   1.000  N
  N41      1.0000 0.83445  0.15793  0.00087  Biso   1.000  N
  N42      1.0000 0.02533  0.30958  0.33438  Biso   1.000  N
  N43      1.0000 0.34307  0.97283  0.33043  Biso   1.000  N
  N44      1.0000 0.20636  0.65923  0.50151  Biso   1.000  N
  N45      1.0000 0.02477  0.81255  0.18471  Biso   1.000  N
  N46      1.0000 0.83997  0.00010  0.18761  Biso   1.000  N
  N47      1.0000 0.70464  0.66359  0.01876  Biso   1.000  N
  N48      1.0000 0.52506  0.80823  0.33259  Biso   1.000  N
  O1       1.0000 0.36931  0.53331  0.01288  Biso   1.000  O
  O2       1.0000 0.02414  0.33192  0.55192  Biso   1.000  O
  O3       1.0000 0.55875  0.99280  0.35978  Biso   1.000  O
  O4       1.0000 0.86816  0.53229  0.50572  Biso   1.000  O
  O5       1.0000 0.50836  0.32990  0.96661  Biso   1.000  O
  O6       1.0000 0.05716  0.98216  0.16761  Biso   1.000  O
  O7       1.0000 0.17002  0.03355  0.01223  Biso   1.000  O
  O8       1.0000 0.52727  0.83312  0.55061  Biso   1.000  O
  O9       1.0000 0.97825  0.48453  0.35286  Biso   1.000  O
  O10      1.0000 0.68294  0.03343  0.52113  Biso   1.000  O
  O11      1.0000 0.03135  0.83179  0.96619  Biso   1.000  O
  O12      1.0000 0.47950  0.48322  0.16497  Biso   1.000  O
  O13      1.0000 0.67714  0.44496  0.00466  Biso   1.000  O
  O14      1.0000 0.02650  0.64491  0.46433  Biso   1.000  O
  O15      1.0000 0.48374  0.99274  0.66564  Biso   1.000  O
  O16      1.0000 0.18489  0.44174  0.50807  Biso   1.000  O
  O17      1.0000 0.52620  0.64176  0.04047  Biso   1.000  O
  O18      1.0000 0.98418  0.98142  0.85258  Biso   1.000  O
  O19      1.0000 0.86719  0.94368  0.01529  Biso   1.000  O
  O20      1.0000 0.52524  0.14013  0.46652  Biso   1.000  O
  O21      1.0000 0.06755  0.48273  0.66594  Biso   1.000  O
  O22      1.0000 0.36605  0.93932  0.51404  Biso   1.000  O
  O23      1.0000 0.00725  0.14416  0.05454  Biso   1.000  O
  O24      1.0000 0.56965  0.49386  0.84886  Biso   1.000  O
  O25      1.0000 0.97327  0.98959  0.16803  Biso   1.000  O
  O26      1.0000 0.18095  0.95015  0.00570  Biso   1.000  O
  O27      1.0000 0.01604  0.14320  0.97310  Biso   1.000  O
  O28      1.0000 0.47596  0.98977  0.35309  Biso   1.000  O
  O29      1.0000 0.68216  0.95194  0.50900  Biso   1.000  O
  O30      1.0000 0.52640  0.13843  0.54872  Biso   1.000  O
  O31      1.0000 0.56541  0.48713  0.16686  Biso   1.000  O
  O32      1.0000 0.36176  0.45060  0.01389  Biso   1.000  O
  O33      1.0000 0.52767  0.64272  0.95874  Biso   1.000  O
  O34      1.0000 0.06099  0.48450  0.35670  Biso   1.000  O
  O35      1.0000 0.86581  0.44930  0.51705  Biso   1.000  O
  O36      1.0000 0.03138  0.64411  0.54934  Biso   1.000  O
  O37      1.0000 0.06593  0.99592  0.85066  Biso   1.000  O
  O38      1.0000 0.86398  0.02624  0.00736  Biso   1.000  O
  O39      1.0000 0.02809  0.83871  0.04931  Biso   1.000  O
  O40      1.0000 0.56510  0.98053  0.66868  Biso   1.000  O
  O41      1.0000 0.37006  0.02071  0.50128  Biso   1.000  O
  O42      1.0000 0.53068  0.83013  0.46903  Biso   1.000  O
  O43      1.0000 0.48495  0.48241  0.85239  Biso   1.000  O
  O44      1.0000 0.68170  0.53047  0.01431  Biso   1.000  O
  O45      1.0000 0.52246  0.33081  0.04869  Biso   1.000  O
  O46      1.0000 0.98017  0.49182  0.66772  Biso   1.000  O
  O47      1.0000 0.18656  0.52641  0.51432  Biso   1.000  O
  O48      1.0000 0.02493  0.32873  0.46925  Biso   1.000  O
  O49      1.0000 0.01253  0.94556  0.17288  Biso   1.000  O
  O50      1.0000 0.18145  0.99670  0.96807  Biso   1.000  O
  O51      1.0000 0.96838  0.14029  0.01153  Biso   1.000  O
  O52      1.0000 0.51760  0.94536  0.35525  Biso   1.000  O
  O53      1.0000 0.68196  0.99142  0.55536  Biso   1.000  O
  O54      1.0000 0.48319  0.13705  0.50631  Biso   1.000  O
  O55      1.0000 0.52601  0.44578  0.16390  Biso   1.000  O
  O56      1.0000 0.36807  0.49241  0.97092  Biso   1.000  O
  O57      1.0000 0.56885  0.64350  0.00183  Biso   1.000  O
  O58      1.0000 0.02072  0.44565  0.35083  Biso   1.000  O
  O59      1.0000 0.86760  0.49692  0.55218  Biso   1.000  O
  O60      1.0000 0.07136  0.64304  0.50889  Biso   1.000  O
  O61      1.0000 0.01778  0.03289  0.85204  Biso   1.000  O
  O62      1.0000 0.86201  0.99056  0.05192  Biso   1.000  O
  O63      1.0000 0.07023  0.83430  0.01127  Biso   1.000  O
  O64      1.0000 0.52821  0.02893  0.66903  Biso   1.000  O
  O65      1.0000 0.36402  0.97317  0.46310  Biso   1.000  O
  O66      1.0000 0.56914  0.83461  0.51190  Biso   1.000  O
  O67      1.0000 0.52262  0.52741  0.84588  Biso   1.000  O
  O68      1.0000 0.67701  0.48683  0.05209  Biso   1.000  O
  O69      1.0000 0.47313  0.33035  0.01078  Biso   1.000  O
  O70      1.0000 0.02852  0.52993  0.66577  Biso   1.000  O
  O71      1.0000 0.18113  0.48803  0.47165  Biso   1.000  O
  O72      1.0000 0.98219  0.33516  0.51413  Biso   1.000  O
  O73      1.0000 0.02127  0.44583  0.66510  Biso   1.000  O
  O74      1.0000 0.67942  0.00211  0.47392  Biso   1.000  O
  O75      1.0000 0.48538  0.64432  0.00020  Biso   1.000  O
  O76      1.0000 0.52708  0.44658  0.84965  Biso   1.000  O
  O77      1.0000 0.17542  0.98422  0.04948  Biso   1.000  O
  O78      1.0000 0.98782  0.64387  0.50998  Biso   1.000  O
  O79      1.0000 0.51889  0.94486  0.66407  Biso   1.000  O
  O80      1.0000 0.86479  0.48841  0.46708  Biso   1.000  O
  O81      1.0000 0.05218  0.14904  0.01631  Biso   1.000  O
  O82      1.0000 0.03340  0.94947  0.85315  Biso   1.000  O
  O83      1.0000 0.36357  0.49155  0.05223  Biso   1.000  O
  O84      1.0000 0.56688  0.14066  0.50492  Biso   1.000  O
  O85      1.0000 0.01710  0.52983  0.35296  Biso   1.000  O
  O86      1.0000 0.37023  0.98672  0.54618  Biso   1.000  O
  O87      1.0000 0.55564  0.33044  0.00333  Biso   1.000  O
  O88      1.0000 0.51819  0.53055  0.16275  Biso   1.000  O
  O89      1.0000 0.86436  0.98047  0.96955  Biso   1.000  O
  O90      1.0000 0.06729  0.32887  0.51171  Biso   1.000  O
  O91      1.0000 0.51528  0.03122  0.35013  Biso   1.000  O
  O92      1.0000 0.18502  0.47995  0.55502  Biso   1.000  O
  O93      1.0000 0.98545  0.83352  0.00636  Biso   1.000  O
  O94      1.0000 0.01713  0.02720  0.16733  Biso   1.000  O
  O95      1.0000 0.68207  0.49193  0.96675  Biso   1.000  O
  O96      1.0000 0.48614  0.82848  0.50765  Biso   1.000  O
  O97      1.0000 0.48067  0.18557  0.50713  Biso   1.000  O
  O98      1.0000 0.52646  0.44974  0.21237  Biso   1.000  O
  O99      1.0000 0.22893  0.49080  0.46851  Biso   1.000  O
  O100     1.0000 0.96872  0.18964  0.00500  Biso   1.000  O
  O101     1.0000 0.02414  0.44230  0.30229  Biso   1.000  O
  O102     1.0000 0.72653  0.48487  0.04873  Biso   1.000  O
  O103     1.0000 0.07208  0.69146  0.50837  Biso   1.000  O
  O104     1.0000 0.01154  0.94638  0.22118  Biso   1.000  O
  O105     1.0000 0.31498  0.97427  0.46511  Biso   1.000  O
  O106     1.0000 0.56945  0.69190  0.00208  Biso   1.000  O
  O107     1.0000 0.51980  0.94267  0.30619  Biso   1.000  O
  O108     1.0000 0.81318  0.98547  0.05292  Biso   1.000  O
  O109     1.0000 0.57131  0.78559  0.51077  Biso   1.000  O
  O110     1.0000 0.51941  0.52731  0.79844  Biso   1.000  O
  O111     1.0000 0.81909  0.50389  0.55218  Biso   1.000  O
  O112     1.0000 0.07084  0.78594  0.01141  Biso   1.000  O
  O113     1.0000 0.02721  0.52935  0.71324  Biso   1.000  O
  O114     1.0000 0.32015  0.49658  0.97118  Biso   1.000  O
  O115     1.0000 0.98062  0.28674  0.50825  Biso   1.000  O
  O116     1.0000 0.02207  0.03290  0.80395  Biso   1.000  O
  O117     1.0000 0.73165  0.98846  0.55638  Biso   1.000  O
  O118     1.0000 0.47043  0.28285  0.01061  Biso   1.000  O
  O119     1.0000 0.52897  0.02800  0.71727  Biso   1.000  O
  O120     1.0000 0.22996  0.00008  0.96846  Biso   1.000  O
  O121     1.0000 0.06672  0.48101  0.71408  Biso   1.000  O
  O122     1.0000 0.73258  0.03490  0.52206  Biso   1.000  O
  O123     1.0000 0.52456  0.68863  0.04204  Biso   1.000  O
  O124     1.0000 0.56742  0.48577  0.80040  Biso   1.000  O
  O125     1.0000 0.21742  0.03606  0.01168  Biso   1.000  O
  O126     1.0000 0.02719  0.69338  0.46574  Biso   1.000  O
  O127     1.0000 0.48347  0.99604  0.71382  Biso   1.000  O
  O128     1.0000 0.81940  0.53494  0.50301  Biso   1.000  O
  O129     1.0000 0.00419  0.19199  0.05320  Biso   1.000  O
  O130     1.0000 0.98304  0.98495  0.80337  Biso   1.000  O
  O131     1.0000 0.32065  0.53827  0.01526  Biso   1.000  O
  O132     1.0000 0.52408  0.18830  0.46680  Biso   1.000  O
  O133     1.0000 0.98053  0.48837  0.30414  Biso   1.000  O
  O134     1.0000 0.31905  0.94165  0.51157  Biso   1.000  O
  O135     1.0000 0.51195  0.28066  0.96778  Biso   1.000  O
  O136     1.0000 0.47925  0.48392  0.21374  Biso   1.000  O
  O137     1.0000 0.81998  0.94048  0.01226  Biso   1.000  O
  O138     1.0000 0.01939  0.28343  0.55322  Biso   1.000  O
  O139     1.0000 0.56093  0.99055  0.31086  Biso   1.000  O
  O140     1.0000 0.23355  0.44202  0.50726  Biso   1.000  O
  O141     1.0000 0.03223  0.78233  0.96707  Biso   1.000  O
  O142     1.0000 0.05785  0.98610  0.21604  Biso   1.000  O
  O143     1.0000 0.72643  0.44206  0.00130  Biso   1.000  O
  O144     1.0000 0.52659  0.78514  0.55081  Biso   1.000  O
  O145     1.0000 0.56334  0.49272  0.21418  Biso   1.000  O
  O146     1.0000 0.23471  0.52503  0.51653  Biso   1.000  O
  O147     1.0000 0.52253  0.18829  0.54872  Biso   1.000  O
  O148     1.0000 0.06390  0.48551  0.30844  Biso   1.000  O
  O149     1.0000 0.73051  0.52636  0.01048  Biso   1.000  O
  O150     1.0000 0.01683  0.19105  0.97074  Biso   1.000  O
  O151     1.0000 0.97256  0.99228  0.21717  Biso   1.000  O
  O152     1.0000 0.32154  0.02354  0.50020  Biso   1.000  O
  O153     1.0000 0.02836  0.69257  0.54820  Biso   1.000  O
  O154     1.0000 0.47877  0.97885  0.30569  Biso   1.000  O
  O155     1.0000 0.81281  0.02437  0.01105  Biso   1.000  O
  O156     1.0000 0.53295  0.69235  0.95934  Biso   1.000  O
  O157     1.0000 0.48101  0.48251  0.80387  Biso   1.000  O
  O158     1.0000 0.81708  0.45190  0.51462  Biso   1.000  O
  O159     1.0000 0.53313  0.78281  0.47012  Biso   1.000  O
  O160     1.0000 0.98260  0.49624  0.71466  Biso   1.000  O
  O161     1.0000 0.31256  0.45450  0.01427  Biso   1.000  O
  O162     1.0000 0.02481  0.79039  0.04908  Biso   1.000  O
  O163     1.0000 0.06649  0.99408  0.80266  Biso   1.000  O
  O164     1.0000 0.73069  0.95273  0.51112  Biso   1.000  O
  O165     1.0000 0.03000  0.28040  0.46947  Biso   1.000  O
  O166     1.0000 0.56575  0.98218  0.71774  Biso   1.000  O
  O167     1.0000 0.22828  0.95330  0.01174  Biso   1.000  O
  O168     1.0000 0.51672  0.28207  0.05028  Biso   1.000  O
  O169     1.0000 0.01621  0.02932  0.21478  Biso   1.000  O
  O170     1.0000 0.22331  0.99499  0.05016  Biso   1.000  O
  O171     1.0000 0.05087  0.19825  0.02000  Biso   1.000  O
  O172     1.0000 0.51320  0.02798  0.30073  Biso   1.000  O
  O173     1.0000 0.72831  0.99684  0.47041  Biso   1.000  O
  O174     1.0000 0.56258  0.18847  0.51017  Biso   1.000  O
  O175     1.0000 0.52414  0.53295  0.21185  Biso   1.000  O
  O176     1.0000 0.31459  0.49661  0.05627  Biso   1.000  O
  O177     1.0000 0.48713  0.69213  0.99759  Biso   1.000  O
  O178     1.0000 0.02146  0.52735  0.30483  Biso   1.000  O
  O179     1.0000 0.81639  0.48555  0.46804  Biso   1.000  O
  O180     1.0000 0.98594  0.69468  0.50704  Biso   1.000  O
  O181     1.0000 0.03074  0.94952  0.80431  Biso   1.000  O
  O182     1.0000 0.81542  0.98223  0.96829  Biso   1.000  O
  O183     1.0000 0.98775  0.78256  0.00489  Biso   1.000  O
  O184     1.0000 0.51423  0.94612  0.71211  Biso   1.000  O
  O185     1.0000 0.32234  0.98747  0.54676  Biso   1.000  O
  O186     1.0000 0.48692  0.77980  0.50760  Biso   1.000  O
  O187     1.0000 0.52683  0.44637  0.80161  Biso   1.000  O
  O188     1.0000 0.72881  0.48575  0.96411  Biso   1.000  O
  O189     1.0000 0.55545  0.28297  0.00881  Biso   1.000  O
  O190     1.0000 0.01828  0.44806  0.71486  Biso   1.000  O
  O191     1.0000 0.23435  0.48103  0.55378  Biso   1.000  O
  O192     1.0000 0.06601  0.27824  0.51477  Biso   1.000  O
