data_image0
_cell_length_a       46.6739
_cell_length_b       46.5449
_cell_length_c       46.6222
_cell_angle_alpha    90
_cell_angle_beta     90
_cell_angle_gamma    90

_symmetry_space_group_name_H-M    "P 1"
_symmetry_int_tables_number       1

loop_
  _symmetry_equiv_pos_as_xyz
  'x, y, z'

loop_
  _atom_site_label
  _atom_site_occupancy
  _atom_site_fract_x
  _atom_site_fract_y
  _atom_site_fract_z
  _atom_site_thermal_displace_type
  _atom_site_B_iso_or_equiv
  _atom_site_type_symbol
  C1       1.0000 0.56738  0.97581  0.33578  Biso   1.000  C
  C2       1.0000 0.34769  0.52412  0.02075  Biso   1.000  C
  C3       1.0000 0.04044  0.29471  0.58068  Biso   1.000  C
  C4       1.0000 0.06784  0.96477  0.20638  Biso   1.000  C
  C5       1.0000 0.83634  0.50879  0.50324  Biso   1.000  C
  C6       1.0000 0.53353  0.29059  0.96124  Biso   1.000  C
  C7       1.0000 0.98059  0.46197  0.33111  Biso   1.000  C
  C8       1.0000 0.20359  0.02553  0.03283  Biso   1.000  C
  C9       1.0000 0.50530  0.78863  0.57937  Biso   1.000  C
  C10      1.0000 0.48342  0.48528  0.20539  Biso   1.000  C
  C11      1.0000 0.71295  0.01021  0.50507  Biso   1.000  C
  C12      1.0000 0.01821  0.79384  0.95417  Biso   1.000  C
  C13      1.0000 0.47413  0.97510  0.70382  Biso   1.000  C
  C14      1.0000 0.70314  0.41222  0.99820  Biso   1.000  C
  C15      1.0000 0.00406  0.64889  0.45361  Biso   1.000  C
  C16      1.0000 0.97654  0.97856  0.83199  Biso   1.000  C
  C17      1.0000 0.20680  0.43404  0.53313  Biso   1.000  C
  C18      1.0000 0.52559  0.65082  0.07247  Biso   1.000  C
  C19      1.0000 0.07405  0.47516  0.70126  Biso   1.000  C
  C20      1.0000 0.83922  0.91413  0.00886  Biso   1.000  C
  C21      1.0000 0.53034  0.15108  0.46436  Biso   1.000  C
  C22      1.0000 0.57432  0.47034  0.83193  Biso   1.000  C
  C23      1.0000 0.33478  0.93215  0.53015  Biso   1.000  C
  C24      1.0000 0.03097  0.14774  0.08372  Biso   1.000  C
  C25      1.0000 0.34304  0.04240  0.53395  Biso   1.000  C
  C26      1.0000 0.51787  0.29208  0.07032  Biso   1.000  C
  C27      1.0000 0.08660  0.46235  0.33540  Biso   1.000  C
  C28      1.0000 0.84284  0.02477  0.00736  Biso   1.000  C
  C29      1.0000 0.03170  0.28955  0.47003  Biso   1.000  C
  C30      1.0000 0.59067  0.47128  0.19804  Biso   1.000  C
  C31      1.0000 0.19597  0.54177  0.52108  Biso   1.000  C
  C32      1.0000 0.03949  0.78405  0.05893  Biso   1.000  C
  C33      1.0000 0.46036  0.96838  0.34871  Biso   1.000  C
  C34      1.0000 0.70566  0.52125  0.00351  Biso   1.000  C
  C35      1.0000 0.51021  0.78779  0.47087  Biso   1.000  C
  C36      1.0000 0.95932  0.96127  0.19619  Biso   1.000  C
  C37      1.0000 0.69603  0.90283  0.51208  Biso   1.000  C
  C38      1.0000 0.53048  0.65001  0.96315  Biso   1.000  C
  C39      1.0000 0.96563  0.48152  0.68660  Biso   1.000  C
  C40      1.0000 0.20372  0.91564  0.03440  Biso   1.000  C
  C41      1.0000 0.00992  0.65773  0.56205  Biso   1.000  C
  C42      1.0000 0.46541  0.46255  0.83903  Biso   1.000  C
  C43      1.0000 0.84906  0.39905  0.50440  Biso   1.000  C
  C44      1.0000 0.02352  0.15332  0.97579  Biso   1.000  C
  C45      1.0000 0.58370  0.96511  0.69618  Biso   1.000  C
  C46      1.0000 0.34438  0.41773  0.03515  Biso   1.000  C
  C47      1.0000 0.54240  0.15470  0.57090  Biso   1.000  C
  C48      1.0000 0.08678  0.98514  0.84494  Biso   1.000  C
  C49      1.0000 0.02897  0.03382  0.83876  Biso   1.000  C
  C50      1.0000 0.83892  0.97032  0.06254  Biso   1.000  C
  C51      1.0000 0.08206  0.78971  0.99691  Biso   1.000  C
  C52      1.0000 0.53105  0.02443  0.69542  Biso   1.000  C
  C53      1.0000 0.33814  0.98778  0.47831  Biso   1.000  C
  C54      1.0000 0.56333  0.78620  0.52765  Biso   1.000  C
  C55      1.0000 0.51324  0.51846  0.83714  Biso   1.000  C
  C56      1.0000 0.70774  0.46353  0.05895  Biso   1.000  C
  C57      1.0000 0.47200  0.29496  0.00952  Biso   1.000  C
  C58      1.0000 0.02289  0.53559  0.69363  Biso   1.000  C
  C59      1.0000 0.20082  0.48651  0.47063  Biso   1.000  C
  C60      1.0000 0.98436  0.28487  0.52982  Biso   1.000  C
  C61      1.0000 0.01390  0.90718  0.19030  Biso   1.000  C
  C62      1.0000 0.20720  0.97168  0.97988  Biso   1.000  C
  C63      1.0000 0.97146  0.14993  0.03472  Biso   1.000  C
  C64      1.0000 0.51669  0.91911  0.34359  Biso   1.000  C
  C65      1.0000 0.71158  0.96325  0.56384  Biso   1.000  C
  C66      1.0000 0.48205  0.15789  0.51897  Biso   1.000  C
  C67      1.0000 0.53148  0.42281  0.19983  Biso   1.000  C
  C68      1.0000 0.34675  0.46568  0.97623  Biso   1.000  C
  C69      1.0000 0.58572  0.64854  0.02290  Biso   1.000  C
  C70      1.0000 0.03307  0.40849  0.33588  Biso   1.000  C
  C71      1.0000 0.84402  0.45115  0.55463  Biso   1.000  C
  C72      1.0000 0.06024  0.66091  0.50310  Biso   1.000  C
  C73      1.0000 0.02827  0.51572  0.33206  Biso   1.000  C
  C74      1.0000 0.33980  0.98476  0.58755  Biso   1.000  C
  C75      1.0000 0.57937  0.28873  0.02520  Biso   1.000  C
  C76      1.0000 0.54073  0.53095  0.20352  Biso   1.000  C
  C77      1.0000 0.84190  0.96760  0.95460  Biso   1.000  C
  C78      1.0000 0.09157  0.29925  0.52141  Biso   1.000  C
  C79      1.0000 0.51189  0.02757  0.33942  Biso   1.000  C
  C80      1.0000 0.20412  0.48842  0.58231  Biso   1.000  C
  C81      1.0000 0.97358  0.78990  0.01751  Biso   1.000  C
  C82      1.0000 0.01169  0.01571  0.20425  Biso   1.000  C
  C83      1.0000 0.70779  0.47136  0.94919  Biso   1.000  C
  C84      1.0000 0.45360  0.79377  0.52291  Biso   1.000  C
  C85      1.0000 0.01916  0.42632  0.69753  Biso   1.000  C
  C86      1.0000 0.69795  0.94951  0.45676  Biso   1.000  C
  C87      1.0000 0.47609  0.64852  0.01704  Biso   1.000  C
  C88      1.0000 0.52750  0.41053  0.83265  Biso   1.000  C
  C89      1.0000 0.19883  0.97387  0.08763  Biso   1.000  C
  C90      1.0000 0.95110  0.64925  0.51269  Biso   1.000  C
  C91      1.0000 0.52824  0.91413  0.70335  Biso   1.000  C
  C92      1.0000 0.84637  0.45266  0.44775  Biso   1.000  C
  C93      1.0000 0.08102  0.15102  0.02732  Biso   1.000  C
  C94      1.0000 0.03380  0.92616  0.83412  Biso   1.000  C
  C95      1.0000 0.34803  0.47950  0.08476  Biso   1.000  C
  C96      1.0000 0.59075  0.14383  0.51108  Biso   1.000  C
  C97      1.0000 0.71474  0.04266  0.50652  Biso   1.000  C
  C98      1.0000 0.52345  0.65381  0.10519  Biso   1.000  C
  C99      1.0000 0.10688  0.47650  0.70417  Biso   1.000  C
  C100     1.0000 0.20416  0.05815  0.03460  Biso   1.000  C
  C101     1.0000 0.00721  0.64943  0.42219  Biso   1.000  C
  C102     1.0000 0.60634  0.47338  0.82984  Biso   1.000  C
  C103     1.0000 0.83247  0.54067  0.50836  Biso   1.000  C
  C104     1.0000 0.03132  0.14700  0.11508  Biso   1.000  C
  C105     1.0000 0.44182  0.97797  0.70649  Biso   1.000  C
  C106     1.0000 0.34858  0.55505  0.01459  Biso   1.000  C
  C107     1.0000 0.53081  0.15133  0.43253  Biso   1.000  C
  C108     1.0000 0.94480  0.97587  0.83110  Biso   1.000  C
  C109     1.0000 0.33269  0.90089  0.52829  Biso   1.000  C
  C110     1.0000 0.54147  0.28942  0.92952  Biso   1.000  C
  C111     1.0000 0.94911  0.46673  0.32837  Biso   1.000  C
  C112     1.0000 0.84156  0.88138  0.00528  Biso   1.000  C
  C113     1.0000 0.04149  0.29518  0.61370  Biso   1.000  C
  C114     1.0000 0.45120  0.48832  0.20621  Biso   1.000  C
  C115     1.0000 0.21166  0.40247  0.53502  Biso   1.000  C
  C116     1.0000 0.01309  0.79627  0.92218  Biso   1.000  C
  C117     1.0000 0.59809  0.97120  0.33286  Biso   1.000  C
  C118     1.0000 0.70294  0.37995  0.99647  Biso   1.000  C
  C119     1.0000 0.50765  0.78594  0.61131  Biso   1.000  C
  C120     1.0000 0.09910  0.97102  0.20793  Biso   1.000  C
  C121     1.0000 0.83573  0.97221  0.09390  Biso   1.000  C
  C122     1.0000 0.11393  0.78983  0.99462  Biso   1.000  C
  C123     1.0000 0.01975  0.06456  0.84109  Biso   1.000  C
  C124     1.0000 0.33678  0.98386  0.44654  Biso   1.000  C
  C125     1.0000 0.59578  0.78323  0.52505  Biso   1.000  C
  C126     1.0000 0.52975  0.05635  0.69490  Biso   1.000  C
  C127     1.0000 0.71107  0.46273  0.09213  Biso   1.000  C
  C128     1.0000 0.44077  0.29624  0.00723  Biso   1.000  C
  C129     1.0000 0.50826  0.55058  0.83851  Biso   1.000  C
  C130     1.0000 0.20248  0.48737  0.43879  Biso   1.000  C
  C131     1.0000 0.95152  0.28095  0.53000  Biso   1.000  C
  C132     1.0000 0.02111  0.56745  0.69365  Biso   1.000  C
  C133     1.0000 0.20857  0.97993  0.94823  Biso   1.000  C
  C134     1.0000 0.93876  0.15073  0.03296  Biso   1.000  C
  C135     1.0000 0.01122  0.87428  0.18744  Biso   1.000  C
  C136     1.0000 0.71244  0.96440  0.59631  Biso   1.000  C
  C137     1.0000 0.44932  0.16126  0.51762  Biso   1.000  C
  C138     1.0000 0.51408  0.88677  0.34478  Biso   1.000  C
  C139     1.0000 0.34356  0.46417  0.94364  Biso   1.000  C
  C140     1.0000 0.61823  0.64761  0.02538  Biso   1.000  C
  C141     1.0000 0.52841  0.39211  0.19757  Biso   1.000  C
  C142     1.0000 0.84199  0.44923  0.58665  Biso   1.000  C
  C143     1.0000 0.09329  0.66072  0.50032  Biso   1.000  C
  C144     1.0000 0.03243  0.37670  0.33776  Biso   1.000  C
  C145     1.0000 0.35113  0.48185  0.11729  Biso   1.000  C
  C146     1.0000 0.12379  0.30278  0.51669  Biso   1.000  C
  C147     1.0000 0.51102  0.05876  0.33690  Biso   1.000  C
  C148     1.0000 0.84862  0.44929  0.41591  Biso   1.000  C
  C149     1.0000 0.61183  0.28756  0.02779  Biso   1.000  C
  C150     1.0000 0.01207  0.04788  0.20644  Biso   1.000  C
  C151     1.0000 0.19801  0.98143  0.11921  Biso   1.000  C
  C152     1.0000 0.42214  0.79907  0.51871  Biso   1.000  C
  C153     1.0000 0.02165  0.54759  0.33139  Biso   1.000  C
  C154     1.0000 0.69837  0.95210  0.42340  Biso   1.000  C
  C155     1.0000 0.94161  0.79113  0.01357  Biso   1.000  C
  C156     1.0000 0.54204  0.56306  0.20309  Biso   1.000  C
  C157     1.0000 0.70796  0.47188  0.91784  Biso   1.000  C
  C158     1.0000 0.91979  0.64533  0.51405  Biso   1.000  C
  C159     1.0000 0.52915  0.88073  0.70176  Biso   1.000  C
  C160     1.0000 0.20399  0.48681  0.61425  Biso   1.000  C
  C161     1.0000 0.44386  0.64737  0.01030  Biso   1.000  C
  C162     1.0000 0.03152  0.89427  0.83134  Biso   1.000  C
  C163     1.0000 0.84453  0.97132  0.92184  Biso   1.000  C
  C164     1.0000 0.62253  0.14083  0.50745  Biso   1.000  C
  C165     1.0000 0.02104  0.39369  0.69981  Biso   1.000  C
  C166     1.0000 0.33983  0.99027  0.62036  Biso   1.000  C
  C167     1.0000 0.11333  0.15360  0.02418  Biso   1.000  C
  C168     1.0000 0.53198  0.37823  0.83199  Biso   1.000  C
  C169     1.0000 0.03830  0.78405  0.09125  Biso   1.000  C
  C170     1.0000 0.11769  0.99564  0.84907  Biso   1.000  C
  C171     1.0000 0.84323  0.05619  0.01024  Biso   1.000  C
  C172     1.0000 0.51030  0.78949  0.43872  Biso   1.000  C
  C173     1.0000 0.61676  0.96119  0.69409  Biso   1.000  C
  C174     1.0000 0.34428  0.07564  0.53719  Biso   1.000  C
  C175     1.0000 0.51839  0.29321  0.10213  Biso   1.000  C
  C176     1.0000 0.43317  0.46207  0.84162  Biso   1.000  C
  C177     1.0000 0.71068  0.55292  0.00818  Biso   1.000  C
  C178     1.0000 0.03390  0.28744  0.43836  Biso   1.000  C
  C179     1.0000 0.93294  0.48079  0.68373  Biso   1.000  C
  C180     1.0000 0.19556  0.57272  0.51355  Biso   1.000  C
  C181     1.0000 0.02494  0.15320  0.94319  Biso   1.000  C
  C182     1.0000 0.92616  0.96305  0.19470  Biso   1.000  C
  C183     1.0000 0.20597  0.88279  0.03075  Biso   1.000  C
  C184     1.0000 0.54656  0.15246  0.60215  Biso   1.000  C
  C185     1.0000 0.42939  0.97172  0.35074  Biso   1.000  C
  C186     1.0000 0.69235  0.87106  0.50691  Biso   1.000  C
  C187     1.0000 0.51938  0.65012  0.93298  Biso   1.000  C
  C188     1.0000 0.62271  0.46963  0.19437  Biso   1.000  C
  C189     1.0000 0.34267  0.38684  0.02959  Biso   1.000  C
  C190     1.0000 0.00782  0.65825  0.59409  Biso   1.000  C
  C191     1.0000 0.11807  0.47111  0.33508  Biso   1.000  C
  C192     1.0000 0.85228  0.36794  0.50522  Biso   1.000  C
  C193     1.0000 0.87283  0.97264  0.90768  Biso   1.000  C
  C194     1.0000 0.92539  0.81776  0.01003  Biso   1.000  C
  C195     1.0000 0.02898  0.87721  0.85898  Biso   1.000  C
  C196     1.0000 0.36764  0.98720  0.63484  Biso   1.000  C
  C197     1.0000 0.40829  0.82745  0.52242  Biso   1.000  C
  C198     1.0000 0.52716  0.86357  0.67519  Biso   1.000  C
  C199     1.0000 0.67970  0.47201  0.90329  Biso   1.000  C
  C200     1.0000 0.62768  0.31233  0.01808  Biso   1.000  C
  C201     1.0000 0.53389  0.36389  0.86063  Biso   1.000  C
  C202     1.0000 0.17757  0.48198  0.63081  Biso   1.000  C
  C203     1.0000 0.13706  0.33245  0.52169  Biso   1.000  C
  C204     1.0000 0.02455  0.37572  0.67419  Biso   1.000  C
  C205     1.0000 0.17014  0.98313  0.13413  Biso   1.000  C
  C206     1.0000 0.12972  0.12653  0.02297  Biso   1.000  C
  C207     1.0000 0.01658  0.06516  0.17924  Biso   1.000  C
  C208     1.0000 0.66993  0.95599  0.40817  Biso   1.000  C
  C209     1.0000 0.63786  0.11262  0.50909  Biso   1.000  C
  C210     1.0000 0.51506  0.07500  0.36491  Biso   1.000  C
  C211     1.0000 0.38013  0.48222  0.13082  Biso   1.000  C
  C212     1.0000 0.42694  0.62120  0.01536  Biso   1.000  C
  C213     1.0000 0.53843  0.57887  0.17552  Biso   1.000  C
  C214     1.0000 0.87651  0.45246  0.40216  Biso   1.000  C
  C215     1.0000 0.90666  0.61636  0.51236  Biso   1.000  C
  C216     1.0000 0.01906  0.56636  0.35881  Biso   1.000  C
  C217     1.0000 0.13280  0.98995  0.87636  Biso   1.000  C
  C218     1.0000 0.87035  0.07296  0.01284  Biso   1.000  C
  C219     1.0000 0.03428  0.81067  0.10792  Biso   1.000  C
  C220     1.0000 0.63202  0.96190  0.66591  Biso   1.000  C
  C221     1.0000 0.37336  0.08963  0.53540  Biso   1.000  C
  C222     1.0000 0.50692  0.81654  0.42343  Biso   1.000  C
  C223     1.0000 0.41786  0.46013  0.86916  Biso   1.000  C
  C224     1.0000 0.68532  0.57114  0.01279  Biso   1.000  C
  C225     1.0000 0.52313  0.32025  0.11762  Biso   1.000  C
  C226     1.0000 0.91952  0.47109  0.65619  Biso   1.000  C
  C227     1.0000 0.16740  0.58832  0.51232  Biso   1.000  C
  C228     1.0000 0.03545  0.31317  0.42133  Biso   1.000  C
  C229     1.0000 0.91172  0.96468  0.16651  Biso   1.000  C
  C230     1.0000 0.18030  0.86770  0.02048  Biso   1.000  C
  C231     1.0000 0.02198  0.12788  0.92517  Biso   1.000  C
  C232     1.0000 0.41484  0.97241  0.37776  Biso   1.000  C
  C233     1.0000 0.66536  0.85663  0.51193  Biso   1.000  C
  C234     1.0000 0.54016  0.12491  0.61679  Biso   1.000  C
  C235     1.0000 0.63602  0.46806  0.16485  Biso   1.000  C
  C236     1.0000 0.36990  0.37255  0.02117  Biso   1.000  C
  C237     1.0000 0.51295  0.62272  0.91859  Biso   1.000  C
  C238     1.0000 0.13128  0.47633  0.36323  Biso   1.000  C
  C239     1.0000 0.87963  0.35477  0.51431  Biso   1.000  C
  C240     1.0000 0.00904  0.63240  0.61175  Biso   1.000  C
  C241     1.0000 0.62402  0.47154  0.85581  Biso   1.000  C
  C242     1.0000 0.85840  0.55953  0.50683  Biso   1.000  C
  C243     1.0000 0.51707  0.81235  0.62613  Biso   1.000  C
  C244     1.0000 0.12412  0.47617  0.67807  Biso   1.000  C
  C245     1.0000 0.37373  0.57256  0.02115  Biso   1.000  C
  C246     1.0000 0.01956  0.82444  0.90705  Biso   1.000  C
  C247     1.0000 0.92691  0.97354  0.85740  Biso   1.000  C
  C248     1.0000 0.68723  0.05951  0.50883  Biso   1.000  C
  C249     1.0000 0.03749  0.32282  0.62801  Biso   1.000  C
  C250     1.0000 0.42258  0.98313  0.68121  Biso   1.000  C
  C251     1.0000 0.17664  0.07431  0.03531  Biso   1.000  C
  C252     1.0000 0.53441  0.31601  0.91333  Biso   1.000  C
  C253     1.0000 0.43428  0.48702  0.17959  Biso   1.000  C
  C254     1.0000 0.18578  0.38397  0.53377  Biso   1.000  C
  C255     1.0000 0.52370  0.12626  0.41500  Biso   1.000  C
  C256     1.0000 0.93064  0.46580  0.35419  Biso   1.000  C
  C257     1.0000 0.67619  0.36360  0.00192  Biso   1.000  C
  C258     1.0000 0.02567  0.11970  0.12883  Biso   1.000  C
  C259     1.0000 0.11597  0.97277  0.18147  Biso   1.000  C
  C260     1.0000 0.35879  0.88337  0.52870  Biso   1.000  C
  C261     1.0000 0.00960  0.62074  0.40786  Biso   1.000  C
  C262     1.0000 0.61530  0.96696  0.35874  Biso   1.000  C
  C263     1.0000 0.86927  0.86652  0.00244  Biso   1.000  C
  C264     1.0000 0.52575  0.62792  0.12289  Biso   1.000  C
  C265     1.0000 0.01955  0.08019  0.86935  Biso   1.000  C
  C266     1.0000 0.86156  0.97136  0.11211  Biso   1.000  C
  C267     1.0000 0.12980  0.81586  0.00216  Biso   1.000  C
  C268     1.0000 0.53043  0.07251  0.66771  Biso   1.000  C
  C269     1.0000 0.36336  0.97737  0.43051  Biso   1.000  C
  C270     1.0000 0.61360  0.80884  0.52330  Biso   1.000  C
  C271     1.0000 0.51232  0.56808  0.86684  Biso   1.000  C
  C272     1.0000 0.68491  0.46627  0.10938  Biso   1.000  C
  C273     1.0000 0.42300  0.32298  0.01086  Biso   1.000  C
  C274     1.0000 0.01756  0.58090  0.66542  Biso   1.000  C
  C275     1.0000 0.17760  0.48538  0.41944  Biso   1.000  C
  C276     1.0000 0.93461  0.30624  0.52617  Biso   1.000  C
  C277     1.0000 0.01821  0.85985  0.15972  Biso   1.000  C
  C278     1.0000 0.18153  0.98305  0.93169  Biso   1.000  C
  C279     1.0000 0.92358  0.12500  0.02446  Biso   1.000  C
  C280     1.0000 0.51268  0.87027  0.37168  Biso   1.000  C
  C281     1.0000 0.68504  0.96227  0.61247  Biso   1.000  C
  C282     1.0000 0.43041  0.13599  0.52339  Biso   1.000  C
  C283     1.0000 0.52369  0.37576  0.16984  Biso   1.000  C
  C284     1.0000 0.36974  0.46137  0.92602  Biso   1.000  C
  C285     1.0000 0.63452  0.62221  0.01934  Biso   1.000  C
  C286     1.0000 0.03568  0.36252  0.36572  Biso   1.000  C
  C287     1.0000 0.86980  0.45403  0.60241  Biso   1.000  C
  C288     1.0000 0.11221  0.63472  0.50241  Biso   1.000  C
  C289     1.0000 0.35677  0.85174  0.52708  Biso   1.000  C
  C290     1.0000 0.53713  0.31325  0.88268  Biso   1.000  C
  C291     1.0000 0.89904  0.45956  0.35141  Biso   1.000  C
  C292     1.0000 0.87001  0.83546  0.00528  Biso   1.000  C
  C293     1.0000 0.03642  0.32179  0.65923  Biso   1.000  C
  C294     1.0000 0.40282  0.48573  0.18343  Biso   1.000  C
  C295     1.0000 0.18841  0.35372  0.53054  Biso   1.000  C
  C296     1.0000 0.02183  0.82455  0.87557  Biso   1.000  C
  C297     1.0000 0.64700  0.96519  0.35811  Biso   1.000  C
  C298     1.0000 0.68033  0.33276  0.00863  Biso   1.000  C
  C299     1.0000 0.51925  0.81172  0.65763  Biso   1.000  C
  C300     1.0000 0.14758  0.97469  0.18432  Biso   1.000  C
  C301     1.0000 0.68936  0.09047  0.50633  Biso   1.000  C
  C302     1.0000 0.52694  0.62940  0.15405  Biso   1.000  C
  C303     1.0000 0.15521  0.47473  0.68011  Biso   1.000  C
  C304     1.0000 0.17989  0.10506  0.03232  Biso   1.000  C
  C305     1.0000 0.01239  0.62023  0.37689  Biso   1.000  C
  C306     1.0000 0.65532  0.46856  0.85140  Biso   1.000  C
  C307     1.0000 0.85391  0.59026  0.51130  Biso   1.000  C
  C308     1.0000 0.02005  0.11998  0.15948  Biso   1.000  C
  C309     1.0000 0.39238  0.98764  0.68542  Biso   1.000  C
  C310     1.0000 0.37400  0.60202  0.01426  Biso   1.000  C
  C311     1.0000 0.52470  0.12755  0.38368  Biso   1.000  C
  C312     1.0000 0.89575  0.97284  0.85507  Biso   1.000  C
  C313     1.0000 0.18302  0.48411  0.38793  Biso   1.000  C
  C314     1.0000 0.39855  0.14022  0.52759  Biso   1.000  C
  C315     1.0000 0.52542  0.34220  0.17066  Biso   1.000  C
  C316     1.0000 0.68664  0.46342  0.14040  Biso   1.000  C
  C317     1.0000 0.89319  0.12514  0.02436  Biso   1.000  C
  C318     1.0000 0.03290  0.33013  0.36717  Biso   1.000  C
  C319     1.0000 0.36252  0.97362  0.39956  Biso   1.000  C
  C320     1.0000 0.14313  0.63861  0.50650  Biso   1.000  C
  C321     1.0000 0.02111  0.82822  0.15994  Biso   1.000  C
  C322     1.0000 0.86013  0.96891  0.14345  Biso   1.000  C
  C323     1.0000 0.66641  0.62374  0.01967  Biso   1.000  C
  C324     1.0000 0.51384  0.83840  0.36986  Biso   1.000  C
  C325     1.0000 0.86713  0.45872  0.63354  Biso   1.000  C
  C326     1.0000 0.64458  0.80555  0.51994  Biso   1.000  C
  C327     1.0000 0.50910  0.59980  0.86573  Biso   1.000  C
  C328     1.0000 0.36647  0.46322  0.89443  Biso   1.000  C
  C329     1.0000 0.16080  0.81631  0.00739  Biso   1.000  C
  C330     1.0000 0.01928  0.61254  0.66381  Biso   1.000  C
  C331     1.0000 0.68461  0.96345  0.64334  Biso   1.000  C
  C332     1.0000 0.90346  0.30383  0.52103  Biso   1.000  C
  C333     1.0000 0.02351  0.11235  0.87039  Biso   1.000  C
  C334     1.0000 0.18446  0.98857  0.90117  Biso   1.000  C
  C335     1.0000 0.39140  0.31885  0.01488  Biso   1.000  C
  C336     1.0000 0.53425  0.10340  0.66920  Biso   1.000  C
  C337     1.0000 0.67783  0.46892  0.87152  Biso   1.000  C
  C338     1.0000 0.87470  0.61421  0.51275  Biso   1.000  C
  C339     1.0000 0.52387  0.83340  0.67782  Biso   1.000  C
  C340     1.0000 0.17855  0.47590  0.66062  Biso   1.000  C
  C341     1.0000 0.39611  0.62292  0.01287  Biso   1.000  C
  C342     1.0000 0.02516  0.84686  0.85484  Biso   1.000  C
  C343     1.0000 0.87360  0.97422  0.87541  Biso   1.000  C
  C344     1.0000 0.66887  0.11287  0.50731  Biso   1.000  C
  C345     1.0000 0.03048  0.34437  0.67795  Biso   1.000  C
  C346     1.0000 0.36901  0.98919  0.66547  Biso   1.000  C
  C347     1.0000 0.16063  0.12725  0.02697  Biso   1.000  C
  C348     1.0000 0.53650  0.33349  0.86032  Biso   1.000  C
  C349     1.0000 0.37989  0.48306  0.16307  Biso   1.000  C
  C350     1.0000 0.16880  0.33181  0.52424  Biso   1.000  C
  C351     1.0000 0.52088  0.10682  0.36178  Biso   1.000  C
  C352     1.0000 0.87663  0.45451  0.37110  Biso   1.000  C
  C353     1.0000 0.65884  0.31129  0.01365  Biso   1.000  C
  C354     1.0000 0.01610  0.09664  0.18091  Biso   1.000  C
  C355     1.0000 0.17079  0.97906  0.16422  Biso   1.000  C
  C356     1.0000 0.37699  0.82908  0.52379  Biso   1.000  C
  C357     1.0000 0.01546  0.59818  0.35612  Biso   1.000  C
  C358     1.0000 0.66946  0.96076  0.37820  Biso   1.000  C
  C359     1.0000 0.89344  0.81549  0.00688  Biso   1.000  C
  C360     1.0000 0.53216  0.60963  0.17579  Biso   1.000  C
  C361     1.0000 0.02437  0.13269  0.89273  Biso   1.000  C
  C362     1.0000 0.87995  0.96758  0.16650  Biso   1.000  C
  C363     1.0000 0.18154  0.83795  0.01489  Biso   1.000  C
  C364     1.0000 0.53939  0.12498  0.64799  Biso   1.000  C
  C365     1.0000 0.38382  0.97384  0.37777  Biso   1.000  C
  C366     1.0000 0.66656  0.82648  0.51641  Biso   1.000  C
  C367     1.0000 0.50866  0.62308  0.88696  Biso   1.000  C
  C368     1.0000 0.66682  0.46432  0.16395  Biso   1.000  C
  C369     1.0000 0.36999  0.34051  0.01901  Biso   1.000  C
  C370     1.0000 0.01604  0.63334  0.64204  Biso   1.000  C
  C371     1.0000 0.16319  0.48026  0.36443  Biso   1.000  C
  C372     1.0000 0.88116  0.32376  0.51418  Biso   1.000  C
  C373     1.0000 0.02610  0.80745  0.13788  Biso   1.000  C
  C374     1.0000 0.16351  0.99176  0.87843  Biso   1.000  C
  C375     1.0000 0.87127  0.10342  0.01829  Biso   1.000  C
  C376     1.0000 0.51223  0.81710  0.39155  Biso   1.000  C
  C377     1.0000 0.66359  0.96365  0.66529  Biso   1.000  C
  C378     1.0000 0.37555  0.12096  0.53309  Biso   1.000  C
  C379     1.0000 0.52427  0.31985  0.14971  Biso   1.000  C
  C380     1.0000 0.38603  0.46289  0.87211  Biso   1.000  C
  C381     1.0000 0.68777  0.60199  0.01615  Biso   1.000  C
  C382     1.0000 0.03355  0.30955  0.38974  Biso   1.000  C
  C383     1.0000 0.88732  0.46650  0.65542  Biso   1.000  C
  C384     1.0000 0.16677  0.61948  0.51106  Biso   1.000  C
  C385     1.0000 0.20622  0.12106  0.03358  Biso   1.000  C
  C386     1.0000 0.01947  0.14635  0.17733  Biso   1.000  C
  C387     1.0000 0.16157  0.97406  0.21139  Biso   1.000  C
  C388     1.0000 0.71685  0.10419  0.50220  Biso   1.000  C
  C389     1.0000 0.53027  0.15373  0.36677  Biso   1.000  C
  C390     1.0000 0.66168  0.96726  0.33136  Biso   1.000  C
  C391     1.0000 0.34745  0.61734  0.00800  Biso   1.000  C
  C392     1.0000 0.52370  0.65648  0.16873  Biso   1.000  C
  C393     1.0000 0.38853  0.48810  0.21237  Biso   1.000  C
  C394     1.0000 0.82667  0.60396  0.51269  Biso   1.000  C
  C395     1.0000 0.01389  0.64499  0.35977  Biso   1.000  C
  C396     1.0000 0.88469  0.45849  0.32415  Biso   1.000  C
  C397     1.0000 0.84391  0.81862  0.00646  Biso   1.000  C
  C398     1.0000 0.02029  0.79787  0.86015  Biso   1.000  C
  C399     1.0000 0.88142  0.97467  0.82753  Biso   1.000  C
  C400     1.0000 0.32860  0.83701  0.52596  Biso   1.000  C
  C401     1.0000 0.51437  0.78537  0.67413  Biso   1.000  C
  C402     1.0000 0.37902  0.99065  0.71377  Biso   1.000  C
  C403     1.0000 0.70755  0.31739  0.00776  Biso   1.000  C
  C404     1.0000 0.54290  0.28664  0.86746  Biso   1.000  C
  C405     1.0000 0.67064  0.46866  0.82423  Biso   1.000  C
  C406     1.0000 0.21669  0.34026  0.53114  Biso   1.000  C
  C407     1.0000 0.03943  0.29732  0.67700  Biso   1.000  C
  C408     1.0000 0.16954  0.47340  0.70825  Biso   1.000  C
  C409     1.0000 0.17893  0.99887  0.85351  Biso   1.000  C
  C410     1.0000 0.84445  0.11847  0.01974  Biso   1.000  C
  C411     1.0000 0.02622  0.77972  0.15211  Biso   1.000  C
  C412     1.0000 0.67958  0.96690  0.69195  Biso   1.000  C
  C413     1.0000 0.35043  0.13978  0.53164  Biso   1.000  C
  C414     1.0000 0.51469  0.79028  0.37578  Biso   1.000  C
  C415     1.0000 0.36885  0.46710  0.84667  Biso   1.000  C
  C416     1.0000 0.71643  0.61671  0.01895  Biso   1.000  C
  C417     1.0000 0.52590  0.29310  0.16573  Biso   1.000  C
  C418     1.0000 0.87030  0.47008  0.68149  Biso   1.000  C
  C419     1.0000 0.19222  0.63604  0.51066  Biso   1.000  C
  C420     1.0000 0.02924  0.28203  0.37671  Biso   1.000  C
  C421     1.0000 0.86338  0.96792  0.19320  Biso   1.000  C
  C422     1.0000 0.20805  0.82191  0.01651  Biso   1.000  C
  C423     1.0000 0.02796  0.15978  0.88068  Biso   1.000  C
  C424     1.0000 0.36837  0.97131  0.35169  Biso   1.000  C
  C425     1.0000 0.69251  0.81029  0.51423  Biso   1.000  C
  C426     1.0000 0.54491  0.15115  0.66397  Biso   1.000  C
  C427     1.0000 0.68510  0.46374  0.18909  Biso   1.000  C
  C428     1.0000 0.34317  0.32484  0.02057  Biso   1.000  C
  C429     1.0000 0.50497  0.64934  0.87060  Biso   1.000  C
  C430     1.0000 0.18075  0.48208  0.33989  Biso   1.000  C
  C431     1.0000 0.85595  0.30599  0.50788  Biso   1.000  C
  C432     1.0000 0.02259  0.66045  0.65635  Biso   1.000  C
  C433     1.0000 0.02642  0.12897  0.84420  Biso   1.000  C
  C434     1.0000 0.83222  0.96951  0.15743  Biso   1.000  C
  C435     1.0000 0.17752  0.79029  0.00189  Biso   1.000  C
  C436     1.0000 0.53590  0.11874  0.69691  Biso   1.000  C
  C437     1.0000 0.33560  0.97532  0.38448  Biso   1.000  C
  C438     1.0000 0.65789  0.77817  0.51967  Biso   1.000  C
  C439     1.0000 0.50324  0.61520  0.83991  Biso   1.000  C
  C440     1.0000 0.71502  0.46047  0.15396  Biso   1.000  C
  C441     1.0000 0.37701  0.29193  0.01619  Biso   1.000  C
  C442     1.0000 0.02517  0.62859  0.68910  Biso   1.000  C
  C443     1.0000 0.21048  0.48455  0.37612  Biso   1.000  C
  C444     1.0000 0.88996  0.27626  0.51920  Biso   1.000  C
  C445     1.0000 0.01664  0.81047  0.18507  Biso   1.000  C
  C446     1.0000 0.21148  0.99367  0.88605  Biso   1.000  C
  C447     1.0000 0.87656  0.15148  0.03148  Biso   1.000  C
  C448     1.0000 0.51457  0.82305  0.34288  Biso   1.000  C
  C449     1.0000 0.71140  0.96751  0.65740  Biso   1.000  C
  C450     1.0000 0.38619  0.16828  0.52211  Biso   1.000  C
  C451     1.0000 0.52809  0.32725  0.19750  Biso   1.000  C
  C452     1.0000 0.33831  0.46657  0.88110  Biso   1.000  C
  C453     1.0000 0.68271  0.64936  0.02485  Biso   1.000  C
  C454     1.0000 0.02627  0.31336  0.34213  Biso   1.000  C
  C455     1.0000 0.83983  0.45835  0.64758  Biso   1.000  C
  C456     1.0000 0.15677  0.66677  0.50564  Biso   1.000  C
  C457     1.0000 0.01675  0.61274  0.32852  Biso   1.000  C
  C458     1.0000 0.34453  0.99440  0.68244  Biso   1.000  C
  C459     1.0000 0.67479  0.28498  0.01855  Biso   1.000  C
  C460     1.0000 0.53234  0.62607  0.20269  Biso   1.000  C
  C461     1.0000 0.84716  0.97711  0.85847  Biso   1.000  C
  C462     1.0000 0.18660  0.30670  0.51947  Biso   1.000  C
  C463     1.0000 0.52318  0.12181  0.33401  Biso   1.000  C
  C464     1.0000 0.20423  0.47678  0.67729  Biso   1.000  C
  C465     1.0000 0.87889  0.78763  0.00918  Biso   1.000  C
  C466     1.0000 0.01315  0.11207  0.20983  Biso   1.000  C
  C467     1.0000 0.70405  0.46614  0.85465  Biso   1.000  C
  C468     1.0000 0.35903  0.80356  0.52232  Biso   1.000  C
  C469     1.0000 0.03245  0.33241  0.70728  Biso   1.000  C
  C470     1.0000 0.69677  0.96203  0.36161  Biso   1.000  C
  C471     1.0000 0.38127  0.64934  0.00474  Biso   1.000  C
  C472     1.0000 0.54151  0.31690  0.83344  Biso   1.000  C
  C473     1.0000 0.19703  0.97721  0.18160  Biso   1.000  C
  C474     1.0000 0.85683  0.64032  0.51281  Biso   1.000  C
  C475     1.0000 0.52265  0.81902  0.70374  Biso   1.000  C
  C476     1.0000 0.85105  0.45357  0.35401  Biso   1.000  C
  C477     1.0000 0.17520  0.15442  0.02750  Biso   1.000  C
  C478     1.0000 0.02520  0.83260  0.82788  Biso   1.000  C
  C479     1.0000 0.35344  0.48460  0.18132  Biso   1.000  C
  C480     1.0000 0.68589  0.13908  0.50287  Biso   1.000  C
  C481     1.0000 0.37288  0.77477  0.52187  Biso   1.000  C
  C482     1.0000 0.54119  0.33032  0.80560  Biso   1.000  C
  C483     1.0000 0.82260  0.44958  0.36754  Biso   1.000  C
  C484     1.0000 0.89547  0.76063  0.01291  Biso   1.000  C
  C485     1.0000 0.02676  0.35078  0.73226  Biso   1.000  C
  C486     1.0000 0.32548  0.48723  0.16582  Biso   1.000  C
  C487     1.0000 0.17360  0.27852  0.51336  Biso   1.000  C
  C488     1.0000 0.03094  0.84822  0.80094  Biso   1.000  C
  C489     1.0000 0.72359  0.96168  0.37686  Biso   1.000  C
  C490     1.0000 0.65892  0.25975  0.03124  Biso   1.000  C
  C491     1.0000 0.52463  0.83435  0.73130  Biso   1.000  C
  C492     1.0000 0.22570  0.97791  0.16808  Biso   1.000  C
  C493     1.0000 0.67010  0.16662  0.50171  Biso   1.000  C
  C494     1.0000 0.53932  0.61154  0.22946  Biso   1.000  C
  C495     1.0000 0.23134  0.48081  0.66291  Biso   1.000  C
  C496     1.0000 0.16054  0.18230  0.02462  Biso   1.000  C
  C497     1.0000 0.01914  0.59475  0.30230  Biso   1.000  C
  C498     1.0000 0.73194  0.46332  0.86830  Biso   1.000  C
  C499     1.0000 0.86887  0.66967  0.51776  Biso   1.000  C
  C500     1.0000 0.00759  0.09506  0.23581  Biso   1.000  C
  C501     1.0000 0.31623  0.99726  0.66834  Biso   1.000  C
  C502     1.0000 0.39782  0.67572  0.99975  Biso   1.000  C
  C503     1.0000 0.51730  0.10501  0.30865  Biso   1.000  C
  C504     1.0000 0.81928  0.97427  0.87270  Biso   1.000  C
  C505     1.0000 0.65289  0.47311  0.79821  Biso   1.000  C
  C506     1.0000 0.80075  0.58588  0.51088  Biso   1.000  C
  C507     1.0000 0.50529  0.75911  0.65814  Biso   1.000  C
  C508     1.0000 0.15254  0.47166  0.73442  Biso   1.000  C
  C509     1.0000 0.32043  0.60061  0.00145  Biso   1.000  C
  C510     1.0000 0.01433  0.77075  0.87418  Biso   1.000  C
  C511     1.0000 0.89981  0.97799  0.80086  Biso   1.000  C
  C512     1.0000 0.74300  0.08636  0.49715  Biso   1.000  C
  C513     1.0000 0.04786  0.26978  0.66186  Biso   1.000  C
  C514     1.0000 0.39843  0.98568  0.73823  Biso   1.000  C
  C515     1.0000 0.23448  0.10503  0.03431  Biso   1.000  C
  C516     1.0000 0.55166  0.26000  0.88326  Biso   1.000  C
  C517     1.0000 0.40662  0.49041  0.23847  Biso   1.000  C
  C518     1.0000 0.24344  0.35983  0.53388  Biso   1.000  C
  C519     1.0000 0.53644  0.17984  0.38486  Biso   1.000  C
  C520     1.0000 0.90306  0.46137  0.29853  Biso   1.000  C
  C521     1.0000 0.73347  0.33389  0.00198  Biso   1.000  C
  C522     1.0000 0.02538  0.17262  0.16269  Biso   1.000  C
  C523     1.0000 0.14341  0.97368  0.23798  Biso   1.000  C
  C524     1.0000 0.30176  0.85407  0.52724  Biso   1.000  C
  C525     1.0000 0.01140  0.67233  0.37342  Biso   1.000  C
  C526     1.0000 0.64465  0.96632  0.30474  Biso   1.000  C
  C527     1.0000 0.81550  0.83337  0.00320  Biso   1.000  C
  C528     1.0000 0.51754  0.68222  0.15125  Biso   1.000  C
  C529     1.0000 0.81648  0.10290  0.01744  Biso   1.000  C
  C530     1.0000 0.03303  0.75292  0.13665  Biso   1.000  C
  C531     1.0000 0.16425  0.00928  0.82613  Biso   1.000  C
  C532     1.0000 0.32217  0.12594  0.53651  Biso   1.000  C
  C533     1.0000 0.51745  0.76295  0.39033  Biso   1.000  C
  C534     1.0000 0.66435  0.96433  0.71893  Biso   1.000  C
  C535     1.0000 0.74216  0.59977  0.01074  Biso   1.000  C
  C536     1.0000 0.52110  0.26632  0.14967  Biso   1.000  C
  C537     1.0000 0.38391  0.46718  0.81870  Biso   1.000  C
  C538     1.0000 0.22112  0.62122  0.51209  Biso   1.000  C
  C539     1.0000 0.03069  0.25646  0.39477  Biso   1.000  C
  C540     1.0000 0.88489  0.47985  0.70878  Biso   1.000  C
  C541     1.0000 0.23376  0.83585  0.02641  Biso   1.000  C
  C542     1.0000 0.03001  0.18568  0.89918  Biso   1.000  C
  C543     1.0000 0.87775  0.96550  0.22085  Biso   1.000  C
  C544     1.0000 0.71879  0.82364  0.50460  Biso   1.000  C
  C545     1.0000 0.54901  0.17911  0.64948  Biso   1.000  C
  C546     1.0000 0.38244  0.96988  0.32350  Biso   1.000  C
  C547     1.0000 0.31610  0.33863  0.02667  Biso   1.000  C
  C548     1.0000 0.50769  0.67744  0.88580  Biso   1.000  C
  C549     1.0000 0.67353  0.46796  0.21747  Biso   1.000  C
  C550     1.0000 0.82879  0.31847  0.49837  Biso   1.000  C
  C551     1.0000 0.02124  0.68608  0.63960  Biso   1.000  C
  C552     1.0000 0.16789  0.47714  0.31107  Biso   1.000  C
  C553     1.0000 0.02569  0.11405  0.81610  Biso   1.000  C
  C554     1.0000 0.80602  0.97347  0.13982  Biso   1.000  C
  C555     1.0000 0.16215  0.76445  0.99163  Biso   1.000  C
  C556     1.0000 0.53074  0.10405  0.72363  Biso   1.000  C
  C557     1.0000 0.30767  0.97979  0.40095  Biso   1.000  C
  C558     1.0000 0.63913  0.75271  0.52229  Biso   1.000  C
  C559     1.0000 0.49925  0.59850  0.81286  Biso   1.000  C
  C560     1.0000 0.74110  0.45550  0.13565  Biso   1.000  C
  C561     1.0000 0.39585  0.26673  0.01349  Biso   1.000  C
  C562     1.0000 0.02747  0.61628  0.71837  Biso   1.000  C
  C563     1.0000 0.23567  0.48740  0.39466  Biso   1.000  C
  C564     1.0000 0.90783  0.25039  0.52560  Biso   1.000  C
  C565     1.0000 0.00731  0.82546  0.21168  Biso   1.000  C
  C566     1.0000 0.23855  0.99209  0.90200  Biso   1.000  C
  C567     1.0000 0.89229  0.17693  0.04036  Biso   1.000  C
  C568     1.0000 0.51140  0.83962  0.31661  Biso   1.000  C
  C569     1.0000 0.73835  0.97197  0.64258  Biso   1.000  C
  C570     1.0000 0.40533  0.19300  0.51350  Biso   1.000  C
  C571     1.0000 0.52970  0.34267  0.22518  Biso   1.000  C
  C572     1.0000 0.31203  0.46917  0.89880  Biso   1.000  C
  C573     1.0000 0.66618  0.67510  0.03178  Biso   1.000  C
  C574     1.0000 0.02302  0.32841  0.31426  Biso   1.000  C
  C575     1.0000 0.81443  0.44878  0.63218  Biso   1.000  C
  C576     1.0000 0.13674  0.69248  0.50321  Biso   1.000  C
  C577     1.0000 0.32445  0.48333  0.13395  Biso   1.000  C
  C578     1.0000 0.14190  0.27655  0.51280  Biso   1.000  C
  C579     1.0000 0.51134  0.07336  0.31010  Biso   1.000  C
  C580     1.0000 0.82167  0.44700  0.39878  Biso   1.000  C
  C581     1.0000 0.62752  0.26016  0.03475  Biso   1.000  C
  C582     1.0000 0.00912  0.06330  0.23296  Biso   1.000  C
  C583     1.0000 0.22580  0.98285  0.13635  Biso   1.000  C
  C584     1.0000 0.40391  0.77275  0.51801  Biso   1.000  C
  C585     1.0000 0.02116  0.56228  0.30363  Biso   1.000  C
  C586     1.0000 0.72574  0.95529  0.40770  Biso   1.000  C
  C587     1.0000 0.92640  0.76407  0.01450  Biso   1.000  C
  C588     1.0000 0.54203  0.57975  0.22995  Biso   1.000  C
  C589     1.0000 0.73368  0.46648  0.89977  Biso   1.000  C
  C590     1.0000 0.90101  0.67173  0.51597  Biso   1.000  C
  C591     1.0000 0.53016  0.86606  0.72998  Biso   1.000  C
  C592     1.0000 0.23158  0.48532  0.63047  Biso   1.000  C
  C593     1.0000 0.42957  0.67515  0.00081  Biso   1.000  C
  C594     1.0000 0.03335  0.88010  0.80250  Biso   1.000  C
  C595     1.0000 0.81823  0.97041  0.90425  Biso   1.000  C
  C596     1.0000 0.63921  0.16872  0.50484  Biso   1.000  C
  C597     1.0000 0.02217  0.38074  0.72864  Biso   1.000  C
  C598     1.0000 0.31403  0.99703  0.63711  Biso   1.000  C
  C599     1.0000 0.12838  0.18122  0.02458  Biso   1.000  C
  C600     1.0000 0.53829  0.36215  0.80505  Biso   1.000  C
  C601     1.0000 0.23721  0.98537  0.93400  Biso   1.000  C
  C602     1.0000 0.92410  0.17731  0.04059  Biso   1.000  C
  C603     1.0000 0.00440  0.85721  0.21331  Biso   1.000  C
  C604     1.0000 0.73954  0.96997  0.61130  Biso   1.000  C
  C605     1.0000 0.43725  0.19006  0.51280  Biso   1.000  C
  C606     1.0000 0.51302  0.87084  0.31712  Biso   1.000  C
  C607     1.0000 0.31416  0.46697  0.93004  Biso   1.000  C
  C608     1.0000 0.63477  0.67366  0.03170  Biso   1.000  C
  C609     1.0000 0.53197  0.37425  0.22478  Biso   1.000  C
  C610     1.0000 0.81467  0.44385  0.60083  Biso   1.000  C
  C611     1.0000 0.10585  0.68953  0.50040  Biso   1.000  C
  C612     1.0000 0.02742  0.35858  0.31237  Biso   1.000  C
  C613     1.0000 0.80683  0.97564  0.10888  Biso   1.000  C
  C614     1.0000 0.13069  0.76287  0.98903  Biso   1.000  C
  C615     1.0000 0.02215  0.08334  0.81558  Biso   1.000  C
  C616     1.0000 0.30804  0.98517  0.43195  Biso   1.000  C
  C617     1.0000 0.60821  0.75474  0.52298  Biso   1.000  C
  C618     1.0000 0.52851  0.07258  0.72236  Biso   1.000  C
  C619     1.0000 0.73957  0.45788  0.10502  Biso   1.000  C
  C620     1.0000 0.42657  0.26824  0.00693  Biso   1.000  C
  C621     1.0000 0.49999  0.56691  0.81254  Biso   1.000  C
  C622     1.0000 0.23138  0.48849  0.42657  Biso   1.000  C
  C623     1.0000 0.93910  0.25288  0.53006  Biso   1.000  C
  C624     1.0000 0.02399  0.58499  0.72044  Biso   1.000  C
  C625     1.0000 0.03030  0.18131  0.93018  Biso   1.000  C
  C626     1.0000 0.90974  0.96638  0.22109  Biso   1.000  C
  C627     1.0000 0.23291  0.86702  0.03480  Biso   1.000  C
  C628     1.0000 0.55145  0.17956  0.61791  Biso   1.000  C
  C629     1.0000 0.41406  0.96978  0.32376  Biso   1.000  C
  C630     1.0000 0.71911  0.85439  0.50191  Biso   1.000  C
  C631     1.0000 0.51528  0.67645  0.91606  Biso   1.000  C
  C632     1.0000 0.64119  0.47065  0.21999  Biso   1.000  C
  C633     1.0000 0.31523  0.36920  0.03362  Biso   1.000  C
  C634     1.0000 0.01546  0.68530  0.60852  Biso   1.000  C
  C635     1.0000 0.13673  0.47280  0.30942  Biso   1.000  C
  C636     1.0000 0.82692  0.34946  0.49565  Biso   1.000  C
  C637     1.0000 0.03957  0.75616  0.10607  Biso   1.000  C
  C638     1.0000 0.13288  0.00532  0.82374  Biso   1.000  C
  C639     1.0000 0.81584  0.07129  0.01033  Biso   1.000  C
  C640     1.0000 0.51502  0.76307  0.42157  Biso   1.000  C
  C641     1.0000 0.63398  0.96100  0.72068  Biso   1.000  C
  C642     1.0000 0.31838  0.09464  0.53941  Biso   1.000  C
  C643     1.0000 0.51755  0.26678  0.11863  Biso   1.000  C
  C644     1.0000 0.41514  0.46463  0.81585  Biso   1.000  C
  C645     1.0000 0.73958  0.56722  0.00647  Biso   1.000  C
  C646     1.0000 0.03408  0.25873  0.42578  Biso   1.000  C
  C647     1.0000 0.91615  0.48574  0.71085  Biso   1.000  C
  C648     1.0000 0.22327  0.58927  0.51257  Biso   1.000  C
  C649     1.0000 0.00716  0.67586  0.40414  Biso   1.000  C
  C650     1.0000 0.42887  0.97877  0.73417  Biso   1.000  C
  C651     1.0000 0.73044  0.36434  0.99495  Biso   1.000  C
  C652     1.0000 0.51869  0.68104  0.11949  Biso   1.000  C
  C653     1.0000 0.93220  0.97787  0.80259  Biso   1.000  C
  C654     1.0000 0.24160  0.39101  0.53651  Biso   1.000  C
  C655     1.0000 0.53656  0.17770  0.41663  Biso   1.000  C
  C656     1.0000 0.12148  0.47327  0.73174  Biso   1.000  C
  C657     1.0000 0.81502  0.86581  0.00354  Biso   1.000  C
  C658     1.0000 0.03094  0.17333  0.13143  Biso   1.000  C
  C659     1.0000 0.62089  0.47538  0.80081  Biso   1.000  C
  C660     1.0000 0.30483  0.88597  0.52819  Biso   1.000  C
  C661     1.0000 0.04877  0.26912  0.63040  Biso   1.000  C
  C662     1.0000 0.61321  0.97191  0.30547  Biso   1.000  C
  C663     1.0000 0.32219  0.56999  0.00137  Biso   1.000  C
  C664     1.0000 0.54890  0.26239  0.91484  Biso   1.000  C
  C665     1.0000 0.11312  0.97447  0.23700  Biso   1.000  C
  C666     1.0000 0.80454  0.55423  0.50911  Biso   1.000  C
  C667     1.0000 0.50269  0.75901  0.62693  Biso   1.000  C
  C668     1.0000 0.93456  0.46578  0.29968  Biso   1.000  C
  C669     1.0000 0.23182  0.07367  0.03528  Biso   1.000  C
  C670     1.0000 0.00914  0.77092  0.90555  Biso   1.000  C
  C671     1.0000 0.43815  0.49007  0.23509  Biso   1.000  C
  C672     1.0000 0.74179  0.05616  0.49903  Biso   1.000  C
  C673     1.0000 0.22640  0.00293  0.84131  Biso   1.000  C
  C674     1.0000 0.83058  0.16530  0.02578  Biso   1.000  C
  C675     1.0000 0.02154  0.76224  0.19704  Biso   1.000  C
  C676     1.0000 0.72674  0.97018  0.70453  Biso   1.000  C
  C677     1.0000 0.34087  0.18695  0.52592  Biso   1.000  C
  C678     1.0000 0.51616  0.77560  0.32891  Biso   1.000  C
  C679     1.0000 0.31867  0.47363  0.83719  Biso   1.000  C
  C680     1.0000 0.72988  0.66297  0.02308  Biso   1.000  C
  C681     1.0000 0.52999  0.28152  0.21313  Biso   1.000  C
  C682     1.0000 0.82479  0.46300  0.69462  Biso   1.000  C
  C683     1.0000 0.20350  0.68211  0.50584  Biso   1.000  C
  C684     1.0000 0.01946  0.26529  0.33160  Biso   1.000  C
  C685     1.0000 0.81696  0.96991  0.20461  Biso   1.000  C
  C686     1.0000 0.22471  0.77578  0.00928  Biso   1.000  C
  C687     1.0000 0.02929  0.17762  0.83279  Biso   1.000  C
  C688     1.0000 0.31998  0.97038  0.33941  Biso   1.000  C
  C689     1.0000 0.70201  0.76164  0.51361  Biso   1.000  C
  C690     1.0000 0.54527  0.16611  0.70950  Biso   1.000  C
  C691     1.0000 0.73159  0.45591  0.19835  Biso   1.000  C
  C692     1.0000 0.33093  0.27585  0.02043  Biso   1.000  C
  C693     1.0000 0.50020  0.66252  0.82527  Biso   1.000  C
  C694     1.0000 0.22915  0.48379  0.33210  Biso   1.000  C
  C695     1.0000 0.84545  0.25743  0.50856  Biso   1.000  C
  C696     1.0000 0.02763  0.67643  0.70179  Biso   1.000  C
  C697     1.0000 0.70731  0.96507  0.31432  Biso   1.000  C
  C698     1.0000 0.33555  0.66509  0.00215  Biso   1.000  C
  C699     1.0000 0.03466  0.28737  0.72483  Biso   1.000  C
  C700     1.0000 0.20966  0.97353  0.22671  Biso   1.000  C
  C701     1.0000 0.81101  0.65169  0.51007  Biso   1.000  C
  C702     1.0000 0.54792  0.26865  0.82148  Biso   1.000  C
  C703     1.0000 0.83864  0.45228  0.30665  Biso   1.000  C
  C704     1.0000 0.22183  0.16740  0.02713  Biso   1.000  C
  C705     1.0000 0.51283  0.77369  0.72014  Biso   1.000  C
  C706     1.0000 0.34101  0.48671  0.22868  Biso   1.000  C
  C707     1.0000 0.73437  0.14913  0.49697  Biso   1.000  C
  C708     1.0000 0.02283  0.78431  0.81241  Biso   1.000  C
  C709     1.0000 0.33330  0.00048  0.73025  Biso   1.000  C
  C710     1.0000 0.72181  0.27160  0.01615  Biso   1.000  C
  C711     1.0000 0.01857  0.65845  0.31161  Biso   1.000  C
  C712     1.0000 0.83746  0.97771  0.81123  Biso   1.000  C
  C713     1.0000 0.23419  0.29572  0.52524  Biso   1.000  C
  C714     1.0000 0.52417  0.67356  0.21630  Biso   1.000  C
  C715     1.0000 0.21466  0.47534  0.72518  Biso   1.000  C
  C716     1.0000 0.83346  0.77118  0.01133  Biso   1.000  C
  C717     1.0000 0.52890  0.16865  0.31976  Biso   1.000  C
  C718     1.0000 0.71714  0.46699  0.80730  Biso   1.000  C
  C719     1.0000 0.31219  0.79203  0.51738  Biso   1.000  C
  C720     1.0000 0.01400  0.15689  0.22430  Biso   1.000  C
  C721     1.0000 0.53506  0.77943  0.30264  Biso   1.000  C
  C722     1.0000 0.32333  0.49140  0.81022  Biso   1.000  C
  C723     1.0000 0.81504  0.26103  0.51875  Biso   1.000  C
  C724     1.0000 0.01256  0.73268  0.19150  Biso   1.000  C
  C725     1.0000 0.79513  0.47344  0.69054  Biso   1.000  C
  C726     1.0000 0.30248  0.28108  0.00707  Biso   1.000  C
  C727     1.0000 0.00306  0.23918  0.33631  Biso   1.000  C
  C728     1.0000 0.25392  0.01986  0.84651  Biso   1.000  C
  C729     1.0000 0.73026  0.76441  0.52587  Biso   1.000  C
  C730     1.0000 0.51212  0.28389  0.23906  Biso   1.000  C
  C731     1.0000 0.75714  0.95840  0.69987  Biso   1.000  C
  C732     1.0000 0.25536  0.78370  0.00163  Biso   1.000  C
  C733     1.0000 0.52396  0.16629  0.73396  Biso   1.000  C
  C734     1.0000 0.72687  0.43922  0.22554  Biso   1.000  C
  C735     1.0000 0.20151  0.70930  0.49033  Biso   1.000  C
  C736     1.0000 0.01593  0.20644  0.83948  Biso   1.000  C
  C737     1.0000 0.25775  0.47221  0.33840  Biso   1.000  C
  C738     1.0000 0.76003  0.65940  0.03346  Biso   1.000  C
  C739     1.0000 0.04757  0.67602  0.72605  Biso   1.000  C
  C740     1.0000 0.78958  0.95465  0.19908  Biso   1.000  C
  C741     1.0000 0.31161  0.18262  0.51540  Biso   1.000  C
  C742     1.0000 0.51630  0.66087  0.79823  Biso   1.000  C
  C743     1.0000 0.29189  0.95694  0.34366  Biso   1.000  C
  C744     1.0000 0.82939  0.18707  0.04790  Biso   1.000  C
  C745     1.0000 0.03388  0.68465  0.31406  Biso   1.000  C
  C746     1.0000 0.30569  0.01786  0.72892  Biso   1.000  C
  C747     1.0000 0.75130  0.27895  0.02489  Biso   1.000  C
  C748     1.0000 0.53331  0.70383  0.21279  Biso   1.000  C
  C749     1.0000 0.84122  0.95811  0.78523  Biso   1.000  C
  C750     1.0000 0.25675  0.29805  0.54643  Biso   1.000  C
  C751     1.0000 0.53736  0.16306  0.28966  Biso   1.000  C
  C752     1.0000 0.24331  0.46123  0.72373  Biso   1.000  C
  C753     1.0000 0.80911  0.76916  0.99066  Biso   1.000  C
  C754     1.0000 0.02742  0.15148  0.25202  Biso   1.000  C
  C755     1.0000 0.71110  0.45235  0.77932  Biso   1.000  C
  C756     1.0000 0.28733  0.78880  0.53711  Biso   1.000  C
  C757     1.0000 0.02002  0.25948  0.72128  Biso   1.000  C
  C758     1.0000 0.70238  0.98297  0.28791  Biso   1.000  C
  C759     1.0000 0.30893  0.66114  0.01897  Biso   1.000  C
  C760     1.0000 0.56721  0.27209  0.79592  Biso   1.000  C
  C761     1.0000 0.23520  0.99276  0.22699  Biso   1.000  C
  C762     1.0000 0.81351  0.67778  0.49390  Biso   1.000  C
  C763     1.0000 0.49638  0.78055  0.74645  Biso   1.000  C
  C764     1.0000 0.81077  0.46822  0.30662  Biso   1.000  C
  C765     1.0000 0.24681  0.16908  0.04514  Biso   1.000  C
  C766     1.0000 0.01177  0.79030  0.78253  Biso   1.000  C
  C767     1.0000 0.34376  0.50413  0.25507  Biso   1.000  C
  C768     1.0000 0.73216  0.17516  0.48016  Biso   1.000  C
  C769     1.0000 0.48327  0.68866  0.82867  Biso   1.000  C
  C770     1.0000 0.83247  0.45065  0.72299  Biso   1.000  C
  C771     1.0000 0.69538  0.73282  0.50211  Biso   1.000  C
  C772     1.0000 0.00570  0.69865  0.70015  Biso   1.000  C
  C773     1.0000 0.29000  0.46051  0.84087  Biso   1.000  C
  C774     1.0000 0.21938  0.74574  0.01760  Biso   1.000  C
  C775     1.0000 0.04659  0.17517  0.80637  Biso   1.000  C
  C776     1.0000 0.72141  0.98625  0.73211  Biso   1.000  C
  C777     1.0000 0.85303  0.23096  0.49302  Biso   1.000  C
  C778     1.0000 0.56991  0.18591  0.71018  Biso   1.000  C
  C779     1.0000 0.22318  0.98996  0.81199  Biso   1.000  C
  C780     1.0000 0.33679  0.24762  0.03406  Biso   1.000  C
  C781     1.0000 0.54702  0.25436  0.21044  Biso   1.000  C
  C782     1.0000 0.22584  0.50079  0.30541  Biso   1.000  C
  C783     1.0000 0.34800  0.21642  0.53781  Biso   1.000  C
  C784     1.0000 0.03044  0.26666  0.30274  Biso   1.000  C
  C785     1.0000 0.76093  0.46746  0.19116  Biso   1.000  C
  C786     1.0000 0.81093  0.16550  0.00077  Biso   1.000  C
  C787     1.0000 0.03113  0.76939  0.22736  Biso   1.000  C
  C788     1.0000 0.32282  0.98525  0.31122  Biso   1.000  C
  C789     1.0000 0.23098  0.67918  0.52190  Biso   1.000  C
  C790     1.0000 0.50134  0.74801  0.33232  Biso   1.000  C
  C791     1.0000 0.81971  0.98397  0.23292  Biso   1.000  C
  C792     1.0000 0.72072  0.69147  0.01108  Biso   1.000  C
  C793     1.0000 0.52211  0.19851  0.32591  Biso   1.000  C
  C794     1.0000 0.31483  0.46821  0.22542  Biso   1.000  C
  C795     1.0000 0.23658  0.27466  0.50171  Biso   1.000  C
  C796     1.0000 0.99774  0.18370  0.21942  Biso   1.000  C
  C797     1.0000 0.84623  0.43637  0.27962  Biso   1.000  C
  C798     1.0000 0.71662  0.24185  0.00847  Biso   1.000  C
  C799     1.0000 0.00409  0.65440  0.28437  Biso   1.000  C
  C800     1.0000 0.20527  0.95428  0.25213  Biso   1.000  C
  C801     1.0000 0.31468  0.77050  0.49280  Biso   1.000  C
  C802     1.0000 0.51060  0.66536  0.24364  Biso   1.000  C
  C803     1.0000 0.73465  0.94855  0.31572  Biso   1.000  C
  C804     1.0000 0.83602  0.75116  0.03559  Biso   1.000  C
  C805     1.0000 0.52529  0.74501  0.71604  Biso   1.000  C
  C806     1.0000 0.74670  0.47933  0.80949  Biso   1.000  C
  C807     1.0000 0.78352  0.64656  0.52598  Biso   1.000  C
  C808     1.0000 0.03310  0.75510  0.81739  Biso   1.000  C
  C809     1.0000 0.20776  0.49226  0.75050  Biso   1.000  C
  C810     1.0000 0.33900  0.69320  0.98542  Biso   1.000  C
  C811     1.0000 0.04640  0.29409  0.75414  Biso   1.000  C
  C812     1.0000 0.81107  0.99618  0.81472  Biso   1.000  C
  C813     1.0000 0.76136  0.14594  0.51363  Biso   1.000  C
  C814     1.0000 0.53535  0.23967  0.82682  Biso   1.000  C
  C815     1.0000 0.33865  0.98632  0.75731  Biso   1.000  C
  C816     1.0000 0.21807  0.18980  0.00286  Biso   1.000  C
  C817     1.0000 0.01714  0.22801  0.81770  Biso   1.000  C
  C818     1.0000 0.76731  0.95480  0.22002  Biso   1.000  C
  C819     1.0000 0.27603  0.76176  0.00325  Biso   1.000  C
  C820     1.0000 0.52745  0.18640  0.75563  Biso   1.000  C
  C821     1.0000 0.27106  0.95743  0.32193  Biso   1.000  C
  C822     1.0000 0.75008  0.74267  0.52701  Biso   1.000  C
  C823     1.0000 0.51879  0.68300  0.77783  Biso   1.000  C
  C824     1.0000 0.74900  0.43726  0.24457  Biso   1.000  C
  C825     1.0000 0.28110  0.25900  0.00479  Biso   1.000  C
  C826     1.0000 0.04595  0.69745  0.74806  Biso   1.000  C
  C827     1.0000 0.28081  0.47600  0.31940  Biso   1.000  C
  C828     1.0000 0.79425  0.23878  0.51528  Biso   1.000  C
  C829     1.0000 0.01432  0.71142  0.21453  Biso   1.000  C
  C830     1.0000 0.27497  0.02266  0.82573  Biso   1.000  C
  C831     1.0000 0.80739  0.20753  0.04578  Biso   1.000  C
  C832     1.0000 0.53804  0.75811  0.28291  Biso   1.000  C
  C833     1.0000 0.77666  0.96070  0.72195  Biso   1.000  C
  C834     1.0000 0.29205  0.20549  0.51424  Biso   1.000  C
  C835     1.0000 0.51131  0.26072  0.25914  Biso   1.000  C
  C836     1.0000 0.30152  0.49421  0.78996  Biso   1.000  C
  C837     1.0000 0.78023  0.68111  0.02857  Biso   1.000  C
  C838     1.0000 0.99975  0.21749  0.31605  Biso   1.000  C
  C839     1.0000 0.77501  0.47250  0.71387  Biso   1.000  C
  C840     1.0000 0.22142  0.73086  0.49296  Biso   1.000  C
  C841     1.0000 0.24510  0.99307  0.79174  Biso   1.000  C
  C842     1.0000 0.79104  0.18789  0.99868  Biso   1.000  C
  C843     1.0000 0.02933  0.74923  0.24857  Biso   1.000  C
  C844     1.0000 0.74337  0.98902  0.75328  Biso   1.000  C
  C845     1.0000 0.32773  0.23905  0.53750  Biso   1.000  C
  C846     1.0000 0.50280  0.72864  0.30976  Biso   1.000  C
  C847     1.0000 0.26886  0.46323  0.81925  Biso   1.000  C
  C848     1.0000 0.74226  0.71347  0.00772  Biso   1.000  C
  C849     1.0000 0.54714  0.23301  0.23176  Biso   1.000  C
  C850     1.0000 0.81095  0.44958  0.74467  Biso   1.000  C
  C851     1.0000 0.25362  0.69944  0.52030  Biso   1.000  C
  C852     1.0000 0.02531  0.24743  0.28015  Biso   1.000  C
  C853     1.0000 0.79774  0.98390  0.25297  Biso   1.000  C
  C854     1.0000 0.24196  0.72503  0.01597  Biso   1.000  C
  C855     1.0000 0.04714  0.19878  0.78792  Biso   1.000  C
  C856     1.0000 0.30177  0.98491  0.29024  Biso   1.000  C
  C857     1.0000 0.71599  0.71108  0.50213  Biso   1.000  C
  C858     1.0000 0.57233  0.20354  0.73477  Biso   1.000  C
  C859     1.0000 0.78239  0.46363  0.21133  Biso   1.000  C
  C860     1.0000 0.31471  0.22616  0.03013  Biso   1.000  C
  C861     1.0000 0.48302  0.70869  0.80674  Biso   1.000  C
  C862     1.0000 0.24933  0.50231  0.28673  Biso   1.000  C
  C863     1.0000 0.83195  0.20832  0.49068  Biso   1.000  C
  C864     1.0000 0.00356  0.71790  0.72365  Biso   1.000  C
  C865     1.0000 0.73290  0.44883  0.75745  Biso   1.000  C
  C866     1.0000 0.79096  0.69767  0.49620  Biso   1.000  C
  C867     1.0000 0.49566  0.76021  0.76897  Biso   1.000  C
  C868     1.0000 0.26192  0.46314  0.74752  Biso   1.000  C
  C869     1.0000 0.28894  0.68395  0.02122  Biso   1.000  C
  C870     1.0000 0.01220  0.76841  0.76269  Biso   1.000  C
  C871     1.0000 0.81825  0.96040  0.76491  Biso   1.000  C
  C872     1.0000 0.75479  0.19507  0.48032  Biso   1.000  C
  C873     1.0000 0.01785  0.24020  0.74492  Biso   1.000  C
  C874     1.0000 0.28804  0.02062  0.75187  Biso   1.000  C
  C875     1.0000 0.26815  0.18909  0.04064  Biso   1.000  C
  C876     1.0000 0.57034  0.25005  0.77698  Biso   1.000  C
  C877     1.0000 0.32096  0.50576  0.27542  Biso   1.000  C
  C878     1.0000 0.27734  0.27451  0.54735  Biso   1.000  C
  C879     1.0000 0.53692  0.18466  0.26887  Biso   1.000  C
  C880     1.0000 0.79259  0.46624  0.28321  Biso   1.000  C
  C881     1.0000 0.77283  0.25793  0.02835  Biso   1.000  C
  C882     1.0000 0.02431  0.17368  0.27328  Biso   1.000  C
  C883     1.0000 0.25656  0.99040  0.24911  Biso   1.000  C
  C884     1.0000 0.26726  0.76682  0.53369  Biso   1.000  C
  C885     1.0000 0.03465  0.70443  0.29163  Biso   1.000  C
  C886     1.0000 0.72210  0.98095  0.26470  Biso   1.000  C
  C887     1.0000 0.79046  0.74767  0.99359  Biso   1.000  C
  C888     1.0000 0.52920  0.72351  0.23438  Biso   1.000  C
  C889     1.0000 0.75414  0.95079  0.29326  Biso   1.000  C
  C890     1.0000 0.31555  0.71372  0.98664  Biso   1.000  C
  C891     1.0000 0.04302  0.27432  0.77647  Biso   1.000  C
  C892     1.0000 0.22607  0.95489  0.27394  Biso   1.000  C
  C893     1.0000 0.76021  0.66642  0.52553  Biso   1.000  C
  C894     1.0000 0.53785  0.21832  0.80606  Biso   1.000  C
  C895     1.0000 0.82512  0.43488  0.25682  Biso   1.000  C
  C896     1.0000 0.24076  0.20832  0.99993  Biso   1.000  C
  C897     1.0000 0.52418  0.72759  0.73913  Biso   1.000  C
  C898     1.0000 0.29223  0.47096  0.24592  Biso   1.000  C
  C899     1.0000 0.78396  0.16653  0.51281  Biso   1.000  C
  C900     1.0000 0.03304  0.73365  0.79709  Biso   1.000  C
  C901     1.0000 0.32087  0.99350  0.78051  Biso   1.000  C
  C902     1.0000 0.73796  0.22080  0.01006  Biso   1.000  C
  C903     1.0000 0.00436  0.67443  0.26222  Biso   1.000  C
  C904     1.0000 0.79125  0.99833  0.79247  Biso   1.000  C
  C905     1.0000 0.25775  0.25343  0.50231  Biso   1.000  C
  C906     1.0000 0.50793  0.68600  0.26587  Biso   1.000  C
  C907     1.0000 0.22532  0.49085  0.77503  Biso   1.000  C
  C908     1.0000 0.81442  0.73131  0.03871  Biso   1.000  C
  C909     1.0000 0.52398  0.21859  0.30375  Biso   1.000  C
  C910     1.0000 0.76738  0.47634  0.78810  Biso   1.000  C
  C911     1.0000 0.29261  0.74927  0.48879  Biso   1.000  C
  C912     1.0000 0.99635  0.20460  0.24109  Biso   1.000  C
  C913     1.0000 0.78207  0.45889  0.73878  Biso   1.000  C
  C914     1.0000 0.74292  0.71544  0.51453  Biso   1.000  C
  C915     1.0000 0.50269  0.70892  0.78337  Biso   1.000  C
  C916     1.0000 0.27516  0.47973  0.79500  Biso   1.000  C
  C917     1.0000 0.27018  0.73181  0.00846  Biso   1.000  C
  C918     1.0000 0.02379  0.71854  0.74611  Biso   1.000  C
  C919     1.0000 0.76955  0.97565  0.74701  Biso   1.000  C
  C920     1.0000 0.80333  0.21475  0.49847  Biso   1.000  C
  C921     1.0000 0.03149  0.22374  0.79205  Biso   1.000  C
  C922     1.0000 0.27050  0.01027  0.79893  Biso   1.000  C
  C923     1.0000 0.28817  0.23176  0.01690  Biso   1.000  C
  C924     1.0000 0.55082  0.20407  0.75724  Biso   1.000  C
  C925     1.0000 0.27544  0.48878  0.29342  Biso   1.000  C
  C926     1.0000 0.29962  0.23203  0.52668  Biso   1.000  C
  C927     1.0000 0.52995  0.23605  0.25518  Biso   1.000  C
  C928     1.0000 0.77642  0.44914  0.23736  Biso   1.000  C
  C929     1.0000 0.78863  0.20749  0.02260  Biso   1.000  C
  C930     1.0000 0.01072  0.22263  0.28795  Biso   1.000  C
  C931     1.0000 0.27457  0.96993  0.29545  Biso   1.000  C
  C932     1.0000 0.24849  0.72591  0.50652  Biso   1.000  C
  C933     1.0000 0.02163  0.72106  0.24304  Biso   1.000  C
  C934     1.0000 0.77246  0.96791  0.24612  Biso   1.000  C
  C935     1.0000 0.77011  0.70740  0.01798  Biso   1.000  C
  C936     1.0000 0.52017  0.73418  0.28621  Biso   1.000  C
  C937     1.0000 0.76504  0.22904  0.02092  Biso   1.000  C
  C938     1.0000 0.02044  0.70062  0.26642  Biso   1.000  C
  C939     1.0000 0.29569  0.01028  0.77898  Biso   1.000  C
  C940     1.0000 0.27798  0.25333  0.52571  Biso   1.000  C
  C941     1.0000 0.51702  0.71503  0.26136  Biso   1.000  C
  C942     1.0000 0.79365  0.97880  0.76871  Biso   1.000  C
  C943     1.0000 0.79243  0.72935  0.01683  Biso   1.000  C
  C944     1.0000 0.53053  0.21232  0.27608  Biso   1.000  C
  C945     1.0000 0.25349  0.47941  0.77246  Biso   1.000  C
  C946     1.0000 0.26934  0.74967  0.50892  Biso   1.000  C
  C947     1.0000 0.00832  0.19876  0.26743  Biso   1.000  C
  C948     1.0000 0.76079  0.45964  0.76297  Biso   1.000  C
  C949     1.0000 0.29216  0.70907  0.00485  Biso   1.000  C
  C950     1.0000 0.03036  0.24803  0.77122  Biso   1.000  C
  C951     1.0000 0.74775  0.96641  0.26844  Biso   1.000  C
  C952     1.0000 0.76541  0.69210  0.51214  Biso   1.000  C
  C953     1.0000 0.55378  0.22457  0.78072  Biso   1.000  C
  C954     1.0000 0.25174  0.97120  0.27259  Biso   1.000  C
  C955     1.0000 0.26557  0.20857  0.01791  Biso   1.000  C
  C956     1.0000 0.50499  0.73266  0.76214  Biso   1.000  C
  C957     1.0000 0.79965  0.44911  0.25949  Biso   1.000  C
  C958     1.0000 0.78145  0.19023  0.49519  Biso   1.000  C
  C959     1.0000 0.02270  0.74062  0.76916  Biso   1.000  C
  C960     1.0000 0.29726  0.48843  0.27086  Biso   1.000  C
  Cu1      1.0000 0.02289  0.47946  0.66770  Biso   1.000  Cu
  Cu2      1.0000 0.67783  0.95837  0.51526  Biso   1.000  Cu
  Cu3      1.0000 0.53236  0.62191  0.01847  Biso   1.000  Cu
  Cu4      1.0000 0.52003  0.46565  0.86174  Biso   1.000  Cu
  Cu5      1.0000 0.17351  0.96963  0.03166  Biso   1.000  Cu
  Cu6      1.0000 0.00927  0.62826  0.51051  Biso   1.000  Cu
  Cu7      1.0000 0.52791  0.96974  0.67222  Biso   1.000  Cu
  Cu8      1.0000 0.87178  0.45836  0.50303  Biso   1.000  Cu
  Cu9      1.0000 0.02451  0.12212  0.02757  Biso   1.000  Cu
  Cu10     1.0000 0.02878  0.97780  0.86342  Biso   1.000  Cu
  Cu11     1.0000 0.37101  0.47028  0.02988  Biso   1.000  Cu
  Cu12     1.0000 0.53363  0.12403  0.51660  Biso   1.000  Cu
  Cu13     1.0000 0.03348  0.46318  0.36072  Biso   1.000  Cu
  Cu14     1.0000 0.36564  0.98516  0.53226  Biso   1.000  Cu
  Cu15     1.0000 0.52749  0.31853  0.01476  Biso   1.000  Cu
  Cu16     1.0000 0.53695  0.47767  0.17691  Biso   1.000  Cu
  Cu17     1.0000 0.86897  0.96637  0.00994  Biso   1.000  Cu
  Cu18     1.0000 0.03444  0.31938  0.52383  Biso   1.000  Cu
  Cu19     1.0000 0.51738  0.97543  0.36871  Biso   1.000  Cu
  Cu20     1.0000 0.17519  0.48446  0.52724  Biso   1.000  Cu
  Cu21     1.0000 0.02960  0.81639  0.00897  Biso   1.000  Cu
  Cu22     1.0000 0.01657  0.96429  0.17182  Biso   1.000  Cu
  Cu23     1.0000 0.67778  0.46784  0.00543  Biso   1.000  Cu
  Cu24     1.0000 0.51123  0.81614  0.52740  Biso   1.000  Cu
  Cu25     1.0000 0.22749  0.97026  0.03621  Biso   1.000  Cu
  Cu26     1.0000 0.02637  0.17697  0.03216  Biso   1.000  Cu
  Cu27     1.0000 0.01077  0.95730  0.22531  Biso   1.000  Cu
  Cu28     1.0000 0.73040  0.95313  0.50723  Biso   1.000  Cu
  Cu29     1.0000 0.53888  0.17832  0.51695  Biso   1.000  Cu
  Cu30     1.0000 0.51101  0.97083  0.31532  Biso   1.000  Cu
  Cu31     1.0000 0.31817  0.47317  0.03110  Biso   1.000  Cu
  Cu32     1.0000 0.53102  0.67600  0.01844  Biso   1.000  Cu
  Cu33     1.0000 0.53694  0.47451  0.22922  Biso   1.000  Cu
  Cu34     1.0000 0.81782  0.45000  0.50066  Biso   1.000  Cu
  Cu35     1.0000 0.00438  0.68218  0.50642  Biso   1.000  Cu
  Cu36     1.0000 0.03397  0.46123  0.30725  Biso   1.000  Cu
  Cu37     1.0000 0.81282  0.96972  0.00616  Biso   1.000  Cu
  Cu38     1.0000 0.02831  0.76286  0.00465  Biso   1.000  Cu
  Cu39     1.0000 0.03677  0.98109  0.81010  Biso   1.000  Cu
  Cu40     1.0000 0.31078  0.98828  0.53298  Biso   1.000  Cu
  Cu41     1.0000 0.50709  0.76102  0.52439  Biso   1.000  Cu
  Cu42     1.0000 0.53018  0.97130  0.72598  Biso   1.000  Cu
  Cu43     1.0000 0.73112  0.46510  0.00193  Biso   1.000  Cu
  Cu44     1.0000 0.52424  0.26427  0.01577  Biso   1.000  Cu
  Cu45     1.0000 0.51770  0.46594  0.80821  Biso   1.000  Cu
  Cu46     1.0000 0.22833  0.48943  0.52450  Biso   1.000  Cu
  Cu47     1.0000 0.04052  0.26468  0.52783  Biso   1.000  Cu
  Cu48     1.0000 0.01647  0.48089  0.72114  Biso   1.000  Cu
  H1       1.0000 0.25064  0.76196  0.54896  Biso   1.000  H
  H2       1.0000 0.58173  0.25578  0.75742  Biso   1.000  H
  H3       1.0000 0.77370  0.48129  0.28024  Biso   1.000  H
  H4       1.0000 0.77508  0.74422  0.97606  Biso   1.000  H
  H5       1.0000 0.00813  0.21915  0.74225  Biso   1.000  H
  H6       1.0000 0.32163  0.52020  0.29454  Biso   1.000  H
  H7       1.0000 0.29244  0.27325  0.56459  Biso   1.000  H
  H8       1.0000 0.00580  0.77587  0.74046  Biso   1.000  H
  H9       1.0000 0.71811  0.98829  0.24320  Biso   1.000  H
  H10      1.0000 0.79391  0.26499  0.03439  Biso   1.000  H
  H11      1.0000 0.48179  0.76286  0.78726  Biso   1.000  H
  H12      1.0000 0.27454  0.00540  0.24863  Biso   1.000  H
  H13      1.0000 0.75297  0.21385  0.46604  Biso   1.000  H
  H14      1.0000 0.53488  0.74606  0.22895  Biso   1.000  H
  H15      1.0000 0.28380  0.45590  0.74665  Biso   1.000  H
  H16      1.0000 0.28356  0.19285  0.05824  Biso   1.000  H
  H17      1.0000 0.04798  0.72349  0.29285  Biso   1.000  H
  H18      1.0000 0.72699  0.43777  0.73758  Biso   1.000  H
  H19      1.0000 0.79256  0.71800  0.48378  Biso   1.000  H
  H20      1.0000 0.03407  0.17279  0.29510  Biso   1.000  H
  H21      1.0000 0.26897  0.03297  0.74794  Biso   1.000  H
  H22      1.0000 0.26979  0.68170  0.03495  Biso   1.000  H
  H23      1.0000 0.53921  0.17692  0.24769  Biso   1.000  H
  H24      1.0000 0.81972  0.94420  0.74691  Biso   1.000  H
  H25      1.0000 0.29436  0.03631  0.83007  Biso   1.000  H
  H26      1.0000 0.80605  0.22231  0.06448  Biso   1.000  H
  H27      1.0000 0.00912  0.68842  0.21151  Biso   1.000  H
  H28      1.0000 0.79899  0.95288  0.71774  Biso   1.000  H
  H29      1.0000 0.27322  0.20217  0.50235  Biso   1.000  H
  H30      1.0000 0.55219  0.75903  0.26333  Biso   1.000  H
  H31      1.0000 0.30756  0.50671  0.77007  Biso   1.000  H
  H32      1.0000 0.80187  0.67812  0.03421  Biso   1.000  H
  H33      1.0000 0.49834  0.26289  0.27868  Biso   1.000  H
  H34      1.0000 0.75180  0.48012  0.71248  Biso   1.000  H
  H35      1.0000 0.21958  0.75025  0.47940  Biso   1.000  H
  H36      1.0000 0.98809  0.19812  0.32080  Biso   1.000  H
  H37      1.0000 0.74644  0.94388  0.21242  Biso   1.000  H
  H38      1.0000 0.29868  0.76583  0.99954  Biso   1.000  H
  H39      1.0000 0.00546  0.24892  0.81960  Biso   1.000  H
  H40      1.0000 0.25158  0.94328  0.32588  Biso   1.000  H
  H41      1.0000 0.77108  0.74675  0.53694  Biso   1.000  H
  H42      1.0000 0.51062  0.18768  0.77163  Biso   1.000  H
  H43      1.0000 0.74655  0.42429  0.26420  Biso   1.000  H
  H44      1.0000 0.25933  0.26190  0.99482  Biso   1.000  H
  H45      1.0000 0.53045  0.67646  0.75909  Biso   1.000  H
  H46      1.0000 0.30281  0.47116  0.32675  Biso   1.000  H
  H47      1.0000 0.77219  0.24086  0.52344  Biso   1.000  H
  H48      1.0000 0.05954  0.69949  0.76578  Biso   1.000  H
  H49      1.0000 0.24891  0.51323  0.26625  Biso   1.000  H
  H50      1.0000 0.33638  0.26026  0.54454  Biso   1.000  H
  H51      1.0000 0.56079  0.21423  0.22853  Biso   1.000  H
  H52      1.0000 0.80358  0.47326  0.20983  Biso   1.000  H
  H53      1.0000 0.77674  0.18969  0.97920  Biso   1.000  H
  H54      1.0000 0.03581  0.24698  0.25919  Biso   1.000  H
  H55      1.0000 0.30605  0.99700  0.27038  Biso   1.000  H
  H56      1.0000 0.27205  0.69459  0.53193  Biso   1.000  H
  H57      1.0000 0.03524  0.75505  0.27016  Biso   1.000  H
  H58      1.0000 0.80069  0.99485  0.27359  Biso   1.000  H
  H59      1.0000 0.73529  0.73481  0.00155  Biso   1.000  H
  H60      1.0000 0.48806  0.71014  0.31118  Biso   1.000  H
  H61      1.0000 0.81858  0.43866  0.76364  Biso   1.000  H
  H62      1.0000 0.71194  0.69044  0.49039  Biso   1.000  H
  H63      1.0000 0.46976  0.72750  0.80690  Biso   1.000  H
  H64      1.0000 0.24950  0.44920  0.82083  Biso   1.000  H
  H65      1.0000 0.23545  0.70384  0.02582  Biso   1.000  H
  H66      1.0000 0.98679  0.73296  0.72299  Biso   1.000  H
  H67      1.0000 0.73774  0.00125  0.77296  Biso   1.000  H
  H68      1.0000 0.83760  0.18897  0.47819  Biso   1.000  H
  H69      1.0000 0.05735  0.19573  0.76728  Biso   1.000  H
  H70      1.0000 0.24281  0.98193  0.77120  Biso   1.000  H
  H71      1.0000 0.31687  0.20457  0.03835  Biso   1.000  H
  H72      1.0000 0.59279  0.21513  0.73871  Biso   1.000  H
  H73      1.0000 0.78678  0.49011  0.79005  Biso   1.000  H
  H74      1.0000 0.74007  0.66099  0.53805  Biso   1.000  H
  H75      1.0000 0.53551  0.70692  0.73801  Biso   1.000  H
  H76      1.0000 0.21812  0.50250  0.79444  Biso   1.000  H
  H77      1.0000 0.31516  0.73198  0.97195  Biso   1.000  H
  H78      1.0000 0.03963  0.71148  0.80160  Biso   1.000  H
  H79      1.0000 0.77452  0.01650  0.79357  Biso   1.000  H
  H80      1.0000 0.80500  0.16267  0.52411  Biso   1.000  H
  H81      1.0000 0.05418  0.27794  0.79633  Biso   1.000  H
  H82      1.0000 0.32335  0.98333  0.80169  Biso   1.000  H
  H83      1.0000 0.23903  0.22514  0.98338  Biso   1.000  H
  H84      1.0000 0.52474  0.19959  0.81005  Biso   1.000  H
  H85      1.0000 0.27228  0.46109  0.23963  Biso   1.000  H
  H86      1.0000 0.25870  0.23920  0.48343  Biso   1.000  H
  H87      1.0000 0.52014  0.24085  0.30985  Biso   1.000  H
  H88      1.0000 0.82999  0.42461  0.23617  Biso   1.000  H
  H89      1.0000 0.73478  0.19910  0.00528  Biso   1.000  H
  H90      1.0000 0.98518  0.22514  0.23962  Biso   1.000  H
  H91      1.0000 0.22211  0.94035  0.29274  Biso   1.000  H
  H92      1.0000 0.29284  0.73489  0.46989  Biso   1.000  H
  H93      1.0000 0.99191  0.67055  0.24318  Biso   1.000  H
  H94      1.0000 0.77422  0.93813  0.29509  Biso   1.000  H
  H95      1.0000 0.81418  0.71795  0.05984  Biso   1.000  H
  H96      1.0000 0.50047  0.67630  0.28708  Biso   1.000  H
  H97      1.0000 0.89376  0.97103  0.92009  Biso   1.000  H
  H98      1.0000 0.93640  0.83804  0.00721  Biso   1.000  H
  H99      1.0000 0.02875  0.88820  0.88043  Biso   1.000  H
  H100     1.0000 0.38799  0.98312  0.62274  Biso   1.000  H
  H101     1.0000 0.42163  0.84659  0.52181  Biso   1.000  H
  H102     1.0000 0.52725  0.87259  0.65336  Biso   1.000  H
  H103     1.0000 0.65958  0.47498  0.91430  Biso   1.000  H
  H104     1.0000 0.61847  0.33402  0.01219  Biso   1.000  H
  H105     1.0000 0.53265  0.37691  0.88011  Biso   1.000  H
  H106     1.0000 0.15600  0.48701  0.62253  Biso   1.000  H
  H107     1.0000 0.12175  0.35250  0.52050  Biso   1.000  H
  H108     1.0000 0.02468  0.38364  0.65225  Biso   1.000  H
  H109     1.0000 0.14941  0.98440  0.12274  Biso   1.000  H
  H110     1.0000 0.12047  0.10580  0.01602  Biso   1.000  H
  H111     1.0000 0.02211  0.05544  0.15738  Biso   1.000  H
  H112     1.0000 0.64875  0.95435  0.41948  Biso   1.000  H
  H113     1.0000 0.62645  0.09245  0.51219  Biso   1.000  H
  H114     1.0000 0.51421  0.06432  0.38661  Biso   1.000  H
  H115     1.0000 0.40027  0.48164  0.11773  Biso   1.000  H
  H116     1.0000 0.43515  0.60125  0.02297  Biso   1.000  H
  H117     1.0000 0.53746  0.56599  0.15492  Biso   1.000  H
  H118     1.0000 0.89533  0.45739  0.41396  Biso   1.000  H
  H119     1.0000 0.91838  0.59514  0.51082  Biso   1.000  H
  H120     1.0000 0.01989  0.55429  0.38029  Biso   1.000  H
  H121     1.0000 0.12119  0.98375  0.89583  Biso   1.000  H
  H122     1.0000 0.89076  0.06211  0.01216  Biso   1.000  H
  H123     1.0000 0.03638  0.83321  0.09859  Biso   1.000  H
  H124     1.0000 0.62034  0.96073  0.64672  Biso   1.000  H
  H125     1.0000 0.39338  0.07728  0.53381  Biso   1.000  H
  H126     1.0000 0.50262  0.83643  0.43543  Biso   1.000  H
  H127     1.0000 0.43179  0.46077  0.88970  Biso   1.000  H
  H128     1.0000 0.66339  0.56041  0.01622  Biso   1.000  H
  H129     1.0000 0.52372  0.34078  0.10722  Biso   1.000  H
  H130     1.0000 0.93232  0.46850  0.63684  Biso   1.000  H
  H131     1.0000 0.14711  0.57652  0.51507  Biso   1.000  H
  H132     1.0000 0.03492  0.33411  0.43071  Biso   1.000  H
  H133     1.0000 0.92328  0.96047  0.14541  Biso   1.000  H
  H134     1.0000 0.15942  0.87783  0.01851  Biso   1.000  H
  H135     1.0000 0.02056  0.10773  0.93564  Biso   1.000  H
  H136     1.0000 0.42517  0.96659  0.39791  Biso   1.000  H
  H137     1.0000 0.64530  0.86810  0.51269  Biso   1.000  H
  H138     1.0000 0.53251  0.10616  0.60218  Biso   1.000  H
  H139     1.0000 0.62371  0.47033  0.14443  Biso   1.000  H
  H140     1.0000 0.39016  0.38332  0.01545  Biso   1.000  H
  H141     1.0000 0.51240  0.60303  0.93343  Biso   1.000  H
  H142     1.0000 0.11762  0.47808  0.38217  Biso   1.000  H
  H143     1.0000 0.89886  0.36613  0.52235  Biso   1.000  H
  H144     1.0000 0.00504  0.61252  0.60216  Biso   1.000  H
  H145     1.0000 0.61272  0.47714  0.87661  Biso   1.000  H
  H146     1.0000 0.87926  0.54943  0.50415  Biso   1.000  H
  H147     1.0000 0.51890  0.83271  0.61154  Biso   1.000  H
  H148     1.0000 0.11390  0.47630  0.65717  Biso   1.000  H
  H149     1.0000 0.39430  0.56340  0.02752  Biso   1.000  H
  H150     1.0000 0.02053  0.84481  0.91749  Biso   1.000  H
  H151     1.0000 0.93683  0.97301  0.87908  Biso   1.000  H
  H152     1.0000 0.66632  0.04973  0.51117  Biso   1.000  H
  H153     1.0000 0.03514  0.34331  0.61599  Biso   1.000  H
  H154     1.0000 0.43214  0.98249  0.66007  Biso   1.000  H
  H155     1.0000 0.15471  0.06322  0.03551  Biso   1.000  H
  H156     1.0000 0.52633  0.33588  0.92432  Biso   1.000  H
  H157     1.0000 0.44452  0.48981  0.15712  Biso   1.000  H
  H158     1.0000 0.16318  0.39145  0.53658  Biso   1.000  H
  H159     1.0000 0.52062  0.10573  0.42455  Biso   1.000  H
  H160     1.0000 0.94235  0.47078  0.37397  Biso   1.000  H
  H161     1.0000 0.65407  0.37353  0.99863  Biso   1.000  H
  H162     1.0000 0.02419  0.09931  0.11813  Biso   1.000  H
  H163     1.0000 0.10569  0.97246  0.16007  Biso   1.000  H
  H164     1.0000 0.37976  0.89522  0.52787  Biso   1.000  H
  H165     1.0000 0.01200  0.59990  0.41858  Biso   1.000  H
  H166     1.0000 0.60404  0.96377  0.37891  Biso   1.000  H
  H167     1.0000 0.89028  0.87864  0.00345  Biso   1.000  H
  H168     1.0000 0.52705  0.60746  0.11097  Biso   1.000  H
  H169     1.0000 0.01722  0.06960  0.89038  Biso   1.000  H
  H170     1.0000 0.88424  0.97135  0.10193  Biso   1.000  H
  H171     1.0000 0.11735  0.83559  0.00398  Biso   1.000  H
  H172     1.0000 0.53147  0.06154  0.64698  Biso   1.000  H
  H173     1.0000 0.38233  0.97780  0.44320  Biso   1.000  H
  H174     1.0000 0.60395  0.83054  0.52404  Biso   1.000  H
  H175     1.0000 0.51609  0.55960  0.88816  Biso   1.000  H
  H176     1.0000 0.66391  0.46828  0.09918  Biso   1.000  H
  H177     1.0000 0.43084  0.34426  0.01151  Biso   1.000  H
  H178     1.0000 0.01335  0.56765  0.64494  Biso   1.000  H
  H179     1.0000 0.15610  0.48370  0.42950  Biso   1.000  H
  H180     1.0000 0.94529  0.32882  0.52649  Biso   1.000  H
  H181     1.0000 0.02132  0.87295  0.14040  Biso   1.000  H
  H182     1.0000 0.15984  0.98133  0.94129  Biso   1.000  H
  H183     1.0000 0.93295  0.10361  0.01887  Biso   1.000  H
  H184     1.0000 0.51066  0.88036  0.39493  Biso   1.000  H
  H185     1.0000 0.66271  0.96080  0.60203  Biso   1.000  H
  H186     1.0000 0.43742  0.11317  0.52279  Biso   1.000  H
  H187     1.0000 0.51902  0.38727  0.14910  Biso   1.000  H
  H188     1.0000 0.39076  0.45791  0.93613  Biso   1.000  H
  H189     1.0000 0.62253  0.60089  0.01498  Biso   1.000  H
  H190     1.0000 0.04152  0.37452  0.38664  Biso   1.000  H
  H191     1.0000 0.89041  0.45364  0.59243  Biso   1.000  H
  H192     1.0000 0.10372  0.61289  0.49855  Biso   1.000  H
  H193     1.0000 0.28092  0.84278  0.52595  Biso   1.000  H
  H194     1.0000 0.55909  0.23912  0.87283  Biso   1.000  H
  H195     1.0000 0.89143  0.46108  0.27702  Biso   1.000  H
  H196     1.0000 0.79515  0.82095  0.00340  Biso   1.000  H
  H197     1.0000 0.05070  0.24932  0.67352  Biso   1.000  H
  H198     1.0000 0.39958  0.49092  0.26152  Biso   1.000  H
  H199     1.0000 0.26466  0.35060  0.53207  Biso   1.000  H
  H200     1.0000 0.01260  0.75036  0.86271  Biso   1.000  H
  H201     1.0000 0.65573  0.96320  0.28374  Biso   1.000  H
  H202     1.0000 0.75445  0.32494  0.99790  Biso   1.000  H
  H203     1.0000 0.50044  0.73859  0.66835  Biso   1.000  H
  H204     1.0000 0.15407  0.97461  0.25943  Biso   1.000  H
  H205     1.0000 0.76427  0.09600  0.49333  Biso   1.000  H
  H206     1.0000 0.51208  0.70358  0.16064  Biso   1.000  H
  H207     1.0000 0.16220  0.46805  0.75645  Biso   1.000  H
  H208     1.0000 0.25542  0.11582  0.03332  Biso   1.000  H
  H209     1.0000 0.01127  0.69130  0.35981  Biso   1.000  H
  H210     1.0000 0.66315  0.47544  0.77729  Biso   1.000  H
  H211     1.0000 0.77822  0.59403  0.51060  Biso   1.000  H
  H212     1.0000 0.02903  0.19425  0.17204  Biso   1.000  H
  H213     1.0000 0.39125  0.99053  0.75899  Biso   1.000  H
  H214     1.0000 0.30231  0.61321  0.99407  Biso   1.000  H
  H215     1.0000 0.54166  0.20035  0.37603  Biso   1.000  H
  H216     1.0000 0.88900  0.97902  0.77990  Biso   1.000  H
  H217     1.0000 0.25819  0.48834  0.38744  Biso   1.000  H
  H218     1.0000 0.39495  0.21322  0.50740  Biso   1.000  H
  H219     1.0000 0.53446  0.32954  0.24294  Biso   1.000  H
  H220     1.0000 0.76174  0.44938  0.14292  Biso   1.000  H
  H221     1.0000 0.87971  0.19600  0.04452  Biso   1.000  H
  H222     1.0000 0.01848  0.31776  0.29393  Biso   1.000  H
  H223     1.0000 0.28478  0.98240  0.39061  Biso   1.000  H
  H224     1.0000 0.14501  0.71522  0.50319  Biso   1.000  H
  H225     1.0000 0.00311  0.81348  0.23254  Biso   1.000  H
  H226     1.0000 0.78382  0.97615  0.14846  Biso   1.000  H
  H227     1.0000 0.67485  0.69679  0.03852  Biso   1.000  H
  H228     1.0000 0.50907  0.82898  0.29568  Biso   1.000  H
  H229     1.0000 0.79422  0.44530  0.64338  Biso   1.000  H
  H230     1.0000 0.64774  0.73047  0.52330  Biso   1.000  H
  H231     1.0000 0.49277  0.60812  0.79220  Biso   1.000  H
  H232     1.0000 0.29141  0.47330  0.89040  Biso   1.000  H
  H233     1.0000 0.17474  0.74531  0.98533  Biso   1.000  H
  H234     1.0000 0.02559  0.63010  0.73733  Biso   1.000  H
  H235     1.0000 0.75855  0.97804  0.65323  Biso   1.000  H
  H236     1.0000 0.89932  0.22853  0.52616  Biso   1.000  H
  H237     1.0000 0.02634  0.12200  0.79483  Biso   1.000  H
  H238     1.0000 0.26025  0.99118  0.89064  Biso   1.000  H
  H239     1.0000 0.38386  0.24615  0.01320  Biso   1.000  H
  H240     1.0000 0.52894  0.11455  0.74380  Biso   1.000  H
  H241     1.0000 0.75345  0.46089  0.85811  Biso   1.000  H
  H242     1.0000 0.85650  0.68939  0.52165  Biso   1.000  H
  H243     1.0000 0.52496  0.82408  0.75249  Biso   1.000  H
  H244     1.0000 0.25212  0.48338  0.67329  Biso   1.000  H
  H245     1.0000 0.38911  0.69625  0.99798  Biso   1.000  H
  H246     1.0000 0.03187  0.83929  0.77881  Biso   1.000  H
  H247     1.0000 0.79962  0.97188  0.85898  Biso   1.000  H
  H248     1.0000 0.68209  0.18714  0.49711  Biso   1.000  H
  H249     1.0000 0.02499  0.34409  0.75552  Biso   1.000  H
  H250     1.0000 0.29664  0.99947  0.68086  Biso   1.000  H
  H251     1.0000 0.17050  0.20386  0.02312  Biso   1.000  H
  H252     1.0000 0.54417  0.31739  0.78569  Biso   1.000  H
  H253     1.0000 0.30616  0.48978  0.17863  Biso   1.000  H
  H254     1.0000 0.18601  0.25909  0.50958  Biso   1.000  H
  H255     1.0000 0.51720  0.11496  0.28833  Biso   1.000  H
  H256     1.0000 0.80269  0.45004  0.35599  Biso   1.000  H
  H257     1.0000 0.66992  0.23868  0.03717  Biso   1.000  H
  H258     1.0000 0.00217  0.10135  0.25767  Biso   1.000  H
  H259     1.0000 0.24635  0.97600  0.18017  Biso   1.000  H
  H260     1.0000 0.36146  0.75509  0.52123  Biso   1.000  H
  H261     1.0000 0.02154  0.60411  0.28152  Biso   1.000  H
  H262     1.0000 0.74271  0.96184  0.36350  Biso   1.000  H
  H263     1.0000 0.88514  0.73930  0.01489  Biso   1.000  H
  H264     1.0000 0.54331  0.62053  0.25152  Biso   1.000  H
  H265     1.0000 0.03351  0.20794  0.88766  Biso   1.000  H
  H266     1.0000 0.86795  0.96311  0.24329  Biso   1.000  H
  H267     1.0000 0.25204  0.82329  0.03293  Biso   1.000  H
  H268     1.0000 0.55239  0.19778  0.66074  Biso   1.000  H
  H269     1.0000 0.37328  0.96591  0.30170  Biso   1.000  H
  H270     1.0000 0.73946  0.81177  0.49825  Biso   1.000  H
  H271     1.0000 0.50659  0.69708  0.87306  Biso   1.000  H
  H272     1.0000 0.68667  0.46909  0.23655  Biso   1.000  H
  H273     1.0000 0.29564  0.32897  0.02749  Biso   1.000  H
  H274     1.0000 0.02424  0.70668  0.64904  Biso   1.000  H
  H275     1.0000 0.18255  0.47826  0.29077  Biso   1.000  H
  H276     1.0000 0.81031  0.30492  0.49470  Biso   1.000  H
  H277     1.0000 0.03682  0.73129  0.14588  Biso   1.000  H
  H278     1.0000 0.17380  0.01939  0.80757  Biso   1.000  H
  H279     1.0000 0.79687  0.11490  0.02184  Biso   1.000  H
  H280     1.0000 0.52232  0.74262  0.38019  Biso   1.000  H
  H281     1.0000 0.67497  0.96328  0.73976  Biso   1.000  H
  H282     1.0000 0.30408  0.13930  0.53848  Biso   1.000  H
  H283     1.0000 0.52022  0.24599  0.16093  Biso   1.000  H
  H284     1.0000 0.36827  0.46993  0.80057  Biso   1.000  H
  H285     1.0000 0.76321  0.60909  0.00637  Biso   1.000  H
  H286     1.0000 0.02908  0.23556  0.38578  Biso   1.000  H
  H287     1.0000 0.87334  0.48407  0.72878  Biso   1.000  H
  H288     1.0000 0.24161  0.63353  0.51092  Biso   1.000  H
  H289     1.0000 0.11851  0.20210  0.02239  Biso   1.000  H
  H290     1.0000 0.00772  0.05394  0.25509  Biso   1.000  H
  H291     1.0000 0.24622  0.98186  0.12219  Biso   1.000  H
  H292     1.0000 0.62646  0.18844  0.50772  Biso   1.000  H
  H293     1.0000 0.50741  0.06029  0.29042  Biso   1.000  H
  H294     1.0000 0.74716  0.95355  0.41711  Biso   1.000  H
  H295     1.0000 0.44128  0.69544  0.99624  Biso   1.000  H
  H296     1.0000 0.54519  0.56743  0.24872  Biso   1.000  H
  H297     1.0000 0.30243  0.48141  0.12536  Biso   1.000  H
  H298     1.0000 0.91080  0.69229  0.52265  Biso   1.000  H
  H299     1.0000 0.02747  0.55024  0.28472  Biso   1.000  H
  H300     1.0000 0.79946  0.44536  0.40913  Biso   1.000  H
  H301     1.0000 0.93769  0.74362  0.01923  Biso   1.000  H
  H302     1.0000 0.03994  0.89228  0.78423  Biso   1.000  H
  H303     1.0000 0.79708  0.96827  0.91550  Biso   1.000  H
  H304     1.0000 0.41494  0.75210  0.51324  Biso   1.000  H
  H305     1.0000 0.53223  0.87743  0.75091  Biso   1.000  H
  H306     1.0000 0.29247  0.00079  0.62733  Biso   1.000  H
  H307     1.0000 0.61445  0.24359  0.04346  Biso   1.000  H
  H308     1.0000 0.53850  0.37292  0.78404  Biso   1.000  H
  H309     1.0000 0.75449  0.46449  0.91075  Biso   1.000  H
  H310     1.0000 0.13337  0.25502  0.51002  Biso   1.000  H
  H311     1.0000 0.01815  0.39451  0.74713  Biso   1.000  H
  H312     1.0000 0.25307  0.48775  0.61990  Biso   1.000  H
  H313     1.0000 0.25737  0.98393  0.94515  Biso   1.000  H
  H314     1.0000 0.93441  0.19617  0.04954  Biso   1.000  H
  H315     1.0000 0.99677  0.86744  0.23337  Biso   1.000  H
  H316     1.0000 0.75968  0.97337  0.60060  Biso   1.000  H
  H317     1.0000 0.45046  0.20797  0.50806  Biso   1.000  H
  H318     1.0000 0.50697  0.88358  0.29697  Biso   1.000  H
  H319     1.0000 0.29591  0.47290  0.94392  Biso   1.000  H
  H320     1.0000 0.62259  0.69344  0.03573  Biso   1.000  H
  H321     1.0000 0.53673  0.38478  0.24485  Biso   1.000  H
  H322     1.0000 0.79578  0.43600  0.59015  Biso   1.000  H
  H323     1.0000 0.09093  0.70771  0.49952  Biso   1.000  H
  H324     1.0000 0.02789  0.36769  0.29090  Biso   1.000  H
  H325     1.0000 0.78690  0.97738  0.09698  Biso   1.000  H
  H326     1.0000 0.12156  0.74326  0.98125  Biso   1.000  H
  H327     1.0000 0.01850  0.07545  0.79268  Biso   1.000  H
  H328     1.0000 0.28681  0.99119  0.44162  Biso   1.000  H
  H329     1.0000 0.59401  0.73525  0.52407  Biso   1.000  H
  H330     1.0000 0.52472  0.06221  0.74224  Biso   1.000  H
  H331     1.0000 0.75919  0.45318  0.09071  Biso   1.000  H
  H332     1.0000 0.43663  0.24713  0.00424  Biso   1.000  H
  H333     1.0000 0.49449  0.55432  0.79241  Biso   1.000  H
  H334     1.0000 0.25070  0.49314  0.43883  Biso   1.000  H
  H335     1.0000 0.95179  0.23330  0.53275  Biso   1.000  H
  H336     1.0000 0.02217  0.57357  0.74149  Biso   1.000  H
  H337     1.0000 0.03101  0.20034  0.94430  Biso   1.000  H
  H338     1.0000 0.92125  0.96807  0.24174  Biso   1.000  H
  H339     1.0000 0.25349  0.87636  0.04181  Biso   1.000  H
  H340     1.0000 0.55296  0.19961  0.60552  Biso   1.000  H
  H341     1.0000 0.42531  0.96618  0.30483  Biso   1.000  H
  H342     1.0000 0.73937  0.86352  0.49492  Biso   1.000  H
  H343     1.0000 0.51738  0.69624  0.92867  Biso   1.000  H
  H344     1.0000 0.63029  0.47176  0.24013  Biso   1.000  H
  H345     1.0000 0.29387  0.37962  0.03932  Biso   1.000  H
  H346     1.0000 0.01468  0.70595  0.59747  Biso   1.000  H
  H347     1.0000 0.12736  0.47312  0.28805  Biso   1.000  H
  H348     1.0000 0.80559  0.35808  0.48967  Biso   1.000  H
  H349     1.0000 0.04521  0.73858  0.09242  Biso   1.000  H
  H350     1.0000 0.12294  0.01263  0.80431  Biso   1.000  H
  H351     1.0000 0.79419  0.06353  0.00686  Biso   1.000  H
  H352     1.0000 0.51826  0.74324  0.43291  Biso   1.000  H
  H353     1.0000 0.62397  0.95676  0.74251  Biso   1.000  H
  H354     1.0000 0.29689  0.08427  0.54289  Biso   1.000  H
  H355     1.0000 0.51272  0.24708  0.10511  Biso   1.000  H
  H356     1.0000 0.42507  0.46506  0.79384  Biso   1.000  H
  H357     1.0000 0.75960  0.55483  0.00837  Biso   1.000  H
  H358     1.0000 0.03536  0.23983  0.43960  Biso   1.000  H
  H359     1.0000 0.92825  0.49058  0.73185  Biso   1.000  H
  H360     1.0000 0.24248  0.57654  0.51462  Biso   1.000  H
  H361     1.0000 0.00606  0.69775  0.41264  Biso   1.000  H
  H362     1.0000 0.44226  0.97425  0.75304  Biso   1.000  H
  H363     1.0000 0.75102  0.37574  0.98772  Biso   1.000  H
  H364     1.0000 0.51516  0.70069  0.10768  Biso   1.000  H
  H365     1.0000 0.94498  0.97929  0.78241  Biso   1.000  H
  H366     1.0000 0.25994  0.40542  0.53952  Biso   1.000  H
  H367     1.0000 0.54208  0.19780  0.42822  Biso   1.000  H
  H368     1.0000 0.10722  0.47074  0.75038  Biso   1.000  H
  H369     1.0000 0.79489  0.87789  0.00006  Biso   1.000  H
  H370     1.0000 0.03828  0.19204  0.11941  Biso   1.000  H
  H371     1.0000 0.60995  0.48001  0.78092  Biso   1.000  H
  H372     1.0000 0.28576  0.90073  0.52853  Biso   1.000  H
  H373     1.0000 0.05458  0.24910  0.61714  Biso   1.000  H
  H374     1.0000 0.60127  0.97257  0.28542  Biso   1.000  H
  H375     1.0000 0.30506  0.55660  0.99126  Biso   1.000  H
  H376     1.0000 0.55194  0.24374  0.92887  Biso   1.000  H
  H377     1.0000 0.09978  0.97469  0.25652  Biso   1.000  H
  H378     1.0000 0.78686  0.54062  0.50316  Biso   1.000  H
  H379     1.0000 0.49633  0.73771  0.61758  Biso   1.000  H
  H380     1.0000 0.94761  0.46807  0.28010  Biso   1.000  H
  H381     1.0000 0.25308  0.06321  0.03680  Biso   1.000  H
  H382     1.0000 0.00543  0.75013  0.91559  Biso   1.000  H
  H383     1.0000 0.45349  0.49068  0.25221  Biso   1.000  H
  H384     1.0000 0.76218  0.04355  0.49717  Biso   1.000  H
  H385     1.0000 0.26380  0.45963  0.35686  Biso   1.000  H
  H386     1.0000 0.30490  0.16279  0.50539  Biso   1.000  H
  H387     1.0000 0.49780  0.30178  0.24302  Biso   1.000  H
  H388     1.0000 0.70495  0.42874  0.22985  Biso   1.000  H
  H389     1.0000 0.84256  0.18541  0.06672  Biso   1.000  H
  H390     1.0000 0.99318  0.23405  0.35759  Biso   1.000  H
  H391     1.0000 0.28650  0.94432  0.36285  Biso   1.000  H
  H392     1.0000 0.18284  0.71362  0.47630  Biso   1.000  H
  H393     1.0000 0.00723  0.72690  0.16982  Biso   1.000  H
  H394     1.0000 0.78570  0.94187  0.17954  Biso   1.000  H
  H395     1.0000 0.76775  0.64151  0.04738  Biso   1.000  H
  H396     1.0000 0.54855  0.79926  0.30065  Biso   1.000  H
  H397     1.0000 0.78842  0.48648  0.67189  Biso   1.000  H
  H398     1.0000 0.73639  0.78625  0.53614  Biso   1.000  H
  H399     1.0000 0.53333  0.64319  0.79339  Biso   1.000  H
  H400     1.0000 0.34364  0.50323  0.80967  Biso   1.000  H
  H401     1.0000 0.26265  0.80539  0.99597  Biso   1.000  H
  H402     1.0000 0.06402  0.65982  0.72925  Biso   1.000  H
  H403     1.0000 0.76397  0.94463  0.68138  Biso   1.000  H
  H404     1.0000 0.80990  0.28124  0.52890  Biso   1.000  H
  H405     1.0000 0.00185  0.21171  0.85795  Biso   1.000  H
  H406     1.0000 0.25728  0.03312  0.86539  Biso   1.000  H
  H407     1.0000 0.29562  0.30290  0.99935  Biso   1.000  H
  H408     1.0000 0.50389  0.15276  0.73544  Biso   1.000  H
  H409     1.0000 0.31270  0.45224  0.20888  Biso   1.000  H
  H410     1.0000 0.22102  0.27597  0.48235  Biso   1.000  H
  H411     1.0000 0.51406  0.20622  0.34673  Biso   1.000  H
  H412     1.0000 0.86683  0.42478  0.27675  Biso   1.000  H
  H413     1.0000 0.69557  0.23708  0.00050  Biso   1.000  H
  H414     1.0000 0.98565  0.18969  0.20089  Biso   1.000  H
  H415     1.0000 0.18577  0.93941  0.25540  Biso   1.000  H
  H416     1.0000 0.33176  0.77504  0.47632  Biso   1.000  H
  H417     1.0000 0.99043  0.63552  0.28037  Biso   1.000  H
  H418     1.0000 0.73880  0.93424  0.33285  Biso   1.000  H
  H419     1.0000 0.85140  0.75397  0.05232  Biso   1.000  H
  H420     1.0000 0.50322  0.64295  0.24932  Biso   1.000  H
  H421     1.0000 0.75297  0.49109  0.82804  Biso   1.000  H
  H422     1.0000 0.77982  0.62642  0.53752  Biso   1.000  H
  H423     1.0000 0.54001  0.74204  0.69674  Biso   1.000  H
  H424     1.0000 0.18809  0.50601  0.75122  Biso   1.000  H
  H425     1.0000 0.35827  0.69580  0.97142  Biso   1.000  H
  H426     1.0000 0.04209  0.74928  0.83795  Biso   1.000  H
  H427     1.0000 0.81057  0.01159  0.83274  Biso   1.000  H
  H428     1.0000 0.76330  0.12771  0.52822  Biso   1.000  H
  H429     1.0000 0.05945  0.31319  0.75837  Biso   1.000  H
  H430     1.0000 0.35596  0.96929  0.76232  Biso   1.000  H
  H431     1.0000 0.19817  0.18996  0.99014  Biso   1.000  H
  H432     1.0000 0.52182  0.23418  0.84552  Biso   1.000  H
  H433     1.0000 0.30032  0.03064  0.71014  Biso   1.000  H
  H434     1.0000 0.75643  0.30106  0.03271  Biso   1.000  H
  H435     1.0000 0.04742  0.68652  0.33357  Biso   1.000  H
  H436     1.0000 0.85798  0.94168  0.78084  Biso   1.000  H
  H437     1.0000 0.25381  0.31333  0.56430  Biso   1.000  H
  H438     1.0000 0.54277  0.70976  0.19273  Biso   1.000  H
  H439     1.0000 0.24888  0.44895  0.70425  Biso   1.000  H
  H440     1.0000 0.80456  0.78546  0.97279  Biso   1.000  H
  H441     1.0000 0.54522  0.14175  0.28334  Biso   1.000  H
  H442     1.0000 0.68852  0.44295  0.77715  Biso   1.000  H
  H443     1.0000 0.28507  0.80079  0.55759  Biso   1.000  H
  H444     1.0000 0.03984  0.13185  0.25614  Biso   1.000  H
  H445     1.0000 0.68458  0.99719  0.28358  Biso   1.000  H
  H446     1.0000 0.30513  0.64152  0.03131  Biso   1.000  H
  H447     1.0000 0.00860  0.25461  0.70130  Biso   1.000  H
  H448     1.0000 0.23891  0.00993  0.21084  Biso   1.000  H
  H449     1.0000 0.83168  0.68219  0.48093  Biso   1.000  H
  H450     1.0000 0.58096  0.29144  0.79062  Biso   1.000  H
  H451     1.0000 0.80630  0.48372  0.32270  Biso   1.000  H
  H452     1.0000 0.25284  0.15438  0.06270  Biso   1.000  H
  H453     1.0000 0.48648  0.80080  0.74962  Biso   1.000  H
  H454     1.0000 0.36182  0.51772  0.25800  Biso   1.000  H
  H455     1.0000 0.71260  0.17937  0.46774  Biso   1.000  H
  H456     1.0000 0.00396  0.81243  0.77427  Biso   1.000  H
  H457     1.0000 0.67589  0.72831  0.49043  Biso   1.000  H
  H458     1.0000 0.47158  0.69641  0.84732  Biso   1.000  H
  H459     1.0000 0.85386  0.43999  0.72927  Biso   1.000  H
  H460     1.0000 0.19893  0.73810  0.02544  Biso   1.000  H
  H461     1.0000 0.99205  0.70262  0.68084  Biso   1.000  H
  H462     1.0000 0.28772  0.44513  0.86010  Biso   1.000  H
  H463     1.0000 0.87444  0.22764  0.48412  Biso   1.000  H
  H464     1.0000 0.05831  0.15535  0.79732  Biso   1.000  H
  H465     1.0000 0.70027  0.99666  0.73651  Biso   1.000  H
  H466     1.0000 0.35608  0.24153  0.04669  Biso   1.000  H
  H467     1.0000 0.58709  0.18447  0.69399  Biso   1.000  H
  H468     1.0000 0.20497  0.97859  0.80311  Biso   1.000  H
  H469     1.0000 0.36755  0.22096  0.54918  Biso   1.000  H
  H470     1.0000 0.56178  0.24975  0.19246  Biso   1.000  H
  H471     1.0000 0.20647  0.51330  0.30067  Biso   1.000  H
  H472     1.0000 0.81279  0.15075  0.98269  Biso   1.000  H
  H473     1.0000 0.04423  0.28488  0.29880  Biso   1.000  H
  H474     1.0000 0.76460  0.48041  0.17361  Biso   1.000  H
  H475     1.0000 0.23378  0.66133  0.53617  Biso   1.000  H
  H476     1.0000 0.03763  0.79182  0.23179  Biso   1.000  H
  H477     1.0000 0.34271  0.99811  0.30929  Biso   1.000  H
  H478     1.0000 0.69947  0.69659  0.00327  Biso   1.000  H
  H479     1.0000 0.48757  0.74255  0.35166  Biso   1.000  H
  H480     1.0000 0.83985  0.99625  0.23746  Biso   1.000  H
  N1       1.0000 0.71333  0.13237  0.50078  Biso   1.000  N
  N2       1.0000 0.52665  0.65329  0.19683  Biso   1.000  N
  N3       1.0000 0.19706  0.47416  0.70399  Biso   1.000  N
  N4       1.0000 0.20136  0.14807  0.03034  Biso   1.000  N
  N5       1.0000 0.01633  0.63987  0.33202  Biso   1.000  N
  N6       1.0000 0.69789  0.46670  0.82716  Biso   1.000  N
  N7       1.0000 0.83069  0.63196  0.51131  Biso   1.000  N
  N8       1.0000 0.01541  0.13969  0.20399  Biso   1.000  N
  N9       1.0000 0.35171  0.99545  0.70968  Biso   1.000  N
  N10      1.0000 0.35440  0.64468  0.00397  Biso   1.000  N
  N11      1.0000 0.52719  0.14922  0.33942  Biso   1.000  N
  N12      1.0000 0.85411  0.97532  0.83173  Biso   1.000  N
  N13      1.0000 0.33207  0.81046  0.52225  Biso   1.000  N
  N14      1.0000 0.54437  0.28993  0.83946  Biso   1.000  N
  N15      1.0000 0.85685  0.45501  0.32710  Biso   1.000  N
  N16      1.0000 0.85150  0.79182  0.00896  Biso   1.000  N
  N17      1.0000 0.03568  0.30483  0.70415  Biso   1.000  N
  N18      1.0000 0.36033  0.48566  0.20853  Biso   1.000  N
  N19      1.0000 0.21305  0.31300  0.52528  Biso   1.000  N
  N20      1.0000 0.02286  0.80443  0.83222  Biso   1.000  N
  N21      1.0000 0.68892  0.96468  0.33440  Biso   1.000  N
  N22      1.0000 0.70206  0.29109  0.01416  Biso   1.000  N
  N23      1.0000 0.51546  0.79258  0.70072  Biso   1.000  N
  N24      1.0000 0.18954  0.97458  0.20755  Biso   1.000  N
  N25      1.0000 0.84391  0.46462  0.67481  Biso   1.000  N
  N26      1.0000 0.68515  0.78285  0.51574  Biso   1.000  N
  N27      1.0000 0.50103  0.64271  0.84479  Biso   1.000  N
  N28      1.0000 0.34158  0.46783  0.85318  Biso   1.000  N
  N29      1.0000 0.20433  0.79466  0.00883  Biso   1.000  N
  N30      1.0000 0.02631  0.65617  0.68358  Biso   1.000  N
  N31      1.0000 0.70674  0.96836  0.68547  Biso   1.000  N
  N32      1.0000 0.86291  0.27892  0.51163  Biso   1.000  N
  N33      1.0000 0.02802  0.15625  0.85226  Biso   1.000  N
  N34      1.0000 0.20612  0.99896  0.85956  Biso   1.000  N
  N35      1.0000 0.34984  0.29643  0.01949  Biso   1.000  N
  N36      1.0000 0.54324  0.14534  0.69048  Biso   1.000  N
  N37      1.0000 0.20754  0.48285  0.34872  Biso   1.000  N
  N38      1.0000 0.35892  0.16614  0.52687  Biso   1.000  N
  N39      1.0000 0.52723  0.29942  0.19279  Biso   1.000  N
  N40      1.0000 0.71151  0.46022  0.18121  Biso   1.000  N
  N41      1.0000 0.85032  0.14536  0.02646  Biso   1.000  N
  N42      1.0000 0.02486  0.28623  0.34928  Biso   1.000  N
  N43      1.0000 0.34087  0.97115  0.35738  Biso   1.000  N
  N44      1.0000 0.18405  0.66270  0.50738  Biso   1.000  N
  N45      1.0000 0.01997  0.78288  0.17824  Biso   1.000  N
  N46      1.0000 0.83593  0.96991  0.18529  Biso   1.000  N
  N47      1.0000 0.71017  0.64318  0.02383  Biso   1.000  N
  N48      1.0000 0.51526  0.79471  0.34854  Biso   1.000  N
  O1       1.0000 0.37086  0.50969  0.02284  Biso   1.000  O
  O2       1.0000 0.03640  0.31787  0.56750  Biso   1.000  O
  O3       1.0000 0.55904  0.97648  0.36177  Biso   1.000  O
  O4       1.0000 0.86116  0.50017  0.50399  Biso   1.000  O
  O5       1.0000 0.53396  0.31542  0.97357  Biso   1.000  O
  O6       1.0000 0.05676  0.96579  0.18105  Biso   1.000  O
  O7       1.0000 0.17904  0.01398  0.03010  Biso   1.000  O
  O8       1.0000 0.50894  0.81384  0.56948  Biso   1.000  O
  O9       1.0000 0.99271  0.46021  0.35594  Biso   1.000  O
  O10      1.0000 0.68808  0.99850  0.50834  Biso   1.000  O
  O11      1.0000 0.02321  0.81724  0.96640  Biso   1.000  O
  O12      1.0000 0.49504  0.48383  0.18014  Biso   1.000  O
  O13      1.0000 0.68040  0.42582  0.00229  Biso   1.000  O
  O14      1.0000 0.00437  0.62563  0.46633  Biso   1.000  O
  O15      1.0000 0.48562  0.98102  0.67925  Biso   1.000  O
  O16      1.0000 0.18034  0.44343  0.53184  Biso   1.000  O
  O17      1.0000 0.52669  0.62666  0.06059  Biso   1.000  O
  O18      1.0000 0.98791  0.97929  0.85738  Biso   1.000  O
  O19      1.0000 0.86343  0.92520  0.01372  Biso   1.000  O
  O20      1.0000 0.52519  0.12709  0.47661  Biso   1.000  O
  O21      1.0000 0.06629  0.47821  0.67532  Biso   1.000  O
  O22      1.0000 0.35933  0.94366  0.52890  Biso   1.000  O
  O23      1.0000 0.02969  0.12309  0.06905  Biso   1.000  O
  O24      1.0000 0.56200  0.46846  0.85647  Biso   1.000  O
  O25      1.0000 0.97315  0.96345  0.17273  Biso   1.000  O
  O26      1.0000 0.17811  0.92744  0.03259  Biso   1.000  O
  O27      1.0000 0.02415  0.12882  0.98622  Biso   1.000  O
  O28      1.0000 0.47570  0.96894  0.37149  Biso   1.000  O
  O29      1.0000 0.67356  0.91769  0.51747  Biso   1.000  O
  O30      1.0000 0.53921  0.13058  0.55833  Biso   1.000  O
  O31      1.0000 0.57746  0.47391  0.17399  Biso   1.000  O
  O32      1.0000 0.36889  0.42919  0.03481  Biso   1.000  O
  O33      1.0000 0.53415  0.62482  0.97423  Biso   1.000  O
  O34      1.0000 0.07431  0.46162  0.36005  Biso   1.000  O
  O35      1.0000 0.87054  0.41661  0.50526  Biso   1.000  O
  O36      1.0000 0.01280  0.63256  0.55095  Biso   1.000  O
  O37      1.0000 0.07143  0.97954  0.86696  Biso   1.000  O
  O38      1.0000 0.86661  0.01113  0.00982  Biso   1.000  O
  O39      1.0000 0.04203  0.80934  0.04793  Biso   1.000  O
  O40      1.0000 0.56979  0.96334  0.67258  Biso   1.000  O
  O41      1.0000 0.36669  0.02900  0.53369  Biso   1.000  O
  O42      1.0000 0.51093  0.81112  0.48550  Biso   1.000  O
  O43      1.0000 0.48076  0.46126  0.86166  Biso   1.000  O
  O44      1.0000 0.68096  0.51031  0.00627  Biso   1.000  O
  O45      1.0000 0.51975  0.31686  0.05781  Biso   1.000  O
  O46      1.0000 0.98099  0.48121  0.66388  Biso   1.000  O
  O47      1.0000 0.17126  0.52803  0.52356  Biso   1.000  O
  O48      1.0000 0.03060  0.31540  0.48150  Biso   1.000  O
  O49      1.0000 0.01840  0.92228  0.16758  Biso   1.000  O
  O50      1.0000 0.18210  0.96751  0.99083  Biso   1.000  O
  O51      1.0000 0.98281  0.12566  0.02796  Biso   1.000  O
  O52      1.0000 0.52181  0.93285  0.36686  Biso   1.000  O
  O53      1.0000 0.68638  0.96011  0.55555  Biso   1.000  O
  O54      1.0000 0.49028  0.13120  0.52040  Biso   1.000  O
  O55      1.0000 0.53386  0.43653  0.17612  Biso   1.000  O
  O56      1.0000 0.37109  0.46434  0.98744  Biso   1.000  O
  O57      1.0000 0.57371  0.62424  0.02188  Biso   1.000  O
  O58      1.0000 0.03438  0.42063  0.35987  Biso   1.000  O
  O59      1.0000 0.86809  0.45388  0.54333  Biso   1.000  O
  O60      1.0000 0.05113  0.63490  0.50737  Biso   1.000  O
  O61      1.0000 0.02963  0.01985  0.86254  Biso   1.000  O
  O62      1.0000 0.86336  0.96965  0.05119  Biso   1.000  O
  O63      1.0000 0.06973  0.81366  0.00025  Biso   1.000  O
  O64      1.0000 0.53042  0.01151  0.67179  Biso   1.000  O
  O65      1.0000 0.36233  0.98691  0.49019  Biso   1.000  O
  O66      1.0000 0.55234  0.81065  0.52493  Biso   1.000  O
  O67      1.0000 0.51877  0.50730  0.86129  Biso   1.000  O
  O68      1.0000 0.68255  0.46692  0.04677  Biso   1.000  O
  O69      1.0000 0.48444  0.31892  0.00966  Biso   1.000  O
  O70      1.0000 0.02576  0.52207  0.67046  Biso   1.000  O
  O71      1.0000 0.17673  0.48229  0.48349  Biso   1.000  O
  O72      1.0000 0.99314  0.31152  0.52716  Biso   1.000  O
  O73      1.0000 0.02362  0.43755  0.67275  Biso   1.000  O
  O74      1.0000 0.67569  0.95477  0.47219  Biso   1.000  O
  O75      1.0000 0.48970  0.62449  0.01688  Biso   1.000  O
  O76      1.0000 0.52654  0.42265  0.85713  Biso   1.000  O
  O77      1.0000 0.17462  0.97358  0.07369  Biso   1.000  O
  O78      1.0000 0.96564  0.62580  0.51518  Biso   1.000  O
  O79      1.0000 0.52435  0.92658  0.67921  Biso   1.000  O
  O80      1.0000 0.86982  0.45694  0.46117  Biso   1.000  O
  O81      1.0000 0.06922  0.12498  0.02801  Biso   1.000  O
  O82      1.0000 0.03139  0.93695  0.85830  Biso   1.000  O
  O83      1.0000 0.37082  0.47564  0.07033  Biso   1.000  O
  O84      1.0000 0.57508  0.12033  0.50998  Biso   1.000  O
  O85      1.0000 0.02639  0.50357  0.35655  Biso   1.000  O
  O86      1.0000 0.36419  0.98255  0.57402  Biso   1.000  O
  O87      1.0000 0.56874  0.31361  0.02302  Biso   1.000  O
  O88      1.0000 0.53968  0.52032  0.17951  Biso   1.000  O
  O89      1.0000 0.86391  0.96525  0.96959  Biso   1.000  O
  O90      1.0000 0.07518  0.32134  0.51900  Biso   1.000  O
  O91      1.0000 0.51476  0.01773  0.36458  Biso   1.000  O
  O92      1.0000 0.17898  0.48965  0.56938  Biso   1.000  O
  O93      1.0000 0.98583  0.81393  0.01752  Biso   1.000  O
  O94      1.0000 0.01778  0.00541  0.18071  Biso   1.000  O
  O95      1.0000 0.68282  0.47191  0.96142  Biso   1.000  O
  O96      1.0000 0.47032  0.81650  0.52510  Biso   1.000  O
  O97      1.0000 0.49592  0.18029  0.52023  Biso   1.000  O
  O98      1.0000 0.53032  0.43454  0.22478  Biso   1.000  O
  O99      1.0000 0.22422  0.48796  0.48345  Biso   1.000  O
  O100     1.0000 0.98430  0.17292  0.04171  Biso   1.000  O
  O101     1.0000 0.03141  0.41953  0.31134  Biso   1.000  O
  O102     1.0000 0.73133  0.46190  0.04537  Biso   1.000  O
  O103     1.0000 0.04591  0.68371  0.50213  Biso   1.000  O
  O104     1.0000 0.01310  0.91559  0.21693  Biso   1.000  O
  O105     1.0000 0.31404  0.99045  0.49244  Biso   1.000  O
  O106     1.0000 0.57272  0.67145  0.02152  Biso   1.000  O
  O107     1.0000 0.51474  0.92978  0.31915  Biso   1.000  O
  O108     1.0000 0.81518  0.97013  0.04832  Biso   1.000  O
  O109     1.0000 0.54843  0.76362  0.52771  Biso   1.000  O
  O110     1.0000 0.51215  0.50645  0.81290  Biso   1.000  O
  O111     1.0000 0.81981  0.45110  0.54156  Biso   1.000  O
  O112     1.0000 0.07038  0.76531  0.99439  Biso   1.000  O
  O113     1.0000 0.02170  0.52299  0.71756  Biso   1.000  O
  O114     1.0000 0.32280  0.46709  0.99031  Biso   1.000  O
  O115     1.0000 0.99847  0.26052  0.53045  Biso   1.000  O
  O116     1.0000 0.03518  0.02205  0.81438  Biso   1.000  O
  O117     1.0000 0.73455  0.96246  0.54825  Biso   1.000  O
  O118     1.0000 0.48339  0.27007  0.00897  Biso   1.000  O
  O119     1.0000 0.53320  0.01302  0.72014  Biso   1.000  O
  O120     1.0000 0.23014  0.97163  0.99457  Biso   1.000  O
  O121     1.0000 0.05810  0.47599  0.72480  Biso   1.000  O
  O122     1.0000 0.73578  0.99502  0.49973  Biso   1.000  O
  O123     1.0000 0.52751  0.67538  0.05862  Biso   1.000  O
  O124     1.0000 0.56035  0.47292  0.80830  Biso   1.000  O
  O125     1.0000 0.22765  0.01234  0.03452  Biso   1.000  O
  O126     1.0000 0.00260  0.67528  0.46496  Biso   1.000  O
  O127     1.0000 0.48924  0.96899  0.72620  Biso   1.000  O
  O128     1.0000 0.81371  0.49346  0.49947  Biso   1.000  O
  O129     1.0000 0.03207  0.17343  0.07354  Biso   1.000  O
  O130     1.0000 0.99287  0.98065  0.80843  Biso   1.000  O
  O131     1.0000 0.32212  0.51480  0.02389  Biso   1.000  O
  O132     1.0000 0.53819  0.17485  0.47642  Biso   1.000  O
  O133     1.0000 0.99368  0.46364  0.30762  Biso   1.000  O
  O134     1.0000 0.31168  0.94698  0.53260  Biso   1.000  O
  O135     1.0000 0.52769  0.26704  0.97487  Biso   1.000  O
  O136     1.0000 0.49604  0.48180  0.22832  Biso   1.000  O
  O137     1.0000 0.81442  0.92734  0.00689  Biso   1.000  O
  O138     1.0000 0.04499  0.26922  0.56992  Biso   1.000  O
  O139     1.0000 0.55192  0.97527  0.31295  Biso   1.000  O
  O140     1.0000 0.22986  0.44913  0.53126  Biso   1.000  O
  O141     1.0000 0.01748  0.76844  0.96516  Biso   1.000  O
  O142     1.0000 0.05397  0.95939  0.22892  Biso   1.000  O
  O143     1.0000 0.72831  0.42327  0.99835  Biso   1.000  O
  O144     1.0000 0.50310  0.76473  0.56563  Biso   1.000  O
  O145     1.0000 0.57947  0.46715  0.22277  Biso   1.000  O
  O146     1.0000 0.22094  0.52983  0.52336  Biso   1.000  O
  O147     1.0000 0.54104  0.17887  0.55831  Biso   1.000  O
  O148     1.0000 0.07386  0.45888  0.31156  Biso   1.000  O
  O149     1.0000 0.72800  0.50678  0.00054  Biso   1.000  O
  O150     1.0000 0.02022  0.17616  0.99079  Biso   1.000  O
  O151     1.0000 0.97052  0.95777  0.22134  Biso   1.000  O
  O152     1.0000 0.31730  0.03114  0.53286  Biso   1.000  O
  O153     1.0000 0.00890  0.68110  0.54883  Biso   1.000  O
  O154     1.0000 0.47028  0.96586  0.32351  Biso   1.000  O
  O155     1.0000 0.81921  0.01212  0.00530  Biso   1.000  O
  O156     1.0000 0.53274  0.67367  0.97566  Biso   1.000  O
  O157     1.0000 0.47664  0.46453  0.81390  Biso   1.000  O
  O158     1.0000 0.82321  0.40794  0.50208  Biso   1.000  O
  O159     1.0000 0.50990  0.76215  0.48163  Biso   1.000  O
  O160     1.0000 0.97449  0.48167  0.71258  Biso   1.000  O
  O161     1.0000 0.32001  0.43124  0.03781  Biso   1.000  O
  O162     1.0000 0.03601  0.76026  0.04606  Biso   1.000  O
  O163     1.0000 0.07714  0.98565  0.81873  Biso   1.000  O
  O164     1.0000 0.72151  0.91259  0.51032  Biso   1.000  O
  O165     1.0000 0.03533  0.26584  0.48403  Biso   1.000  O
  O166     1.0000 0.57347  0.96978  0.72111  Biso   1.000  O
  O167     1.0000 0.22752  0.92875  0.03657  Biso   1.000  O
  O168     1.0000 0.51435  0.26796  0.05786  Biso   1.000  O
  O169     1.0000 0.00805  0.00057  0.22684  Biso   1.000  O
  O170     1.0000 0.22345  0.96751  0.07715  Biso   1.000  O
  O171     1.0000 0.06927  0.17530  0.03037  Biso   1.000  O
  O172     1.0000 0.50800  0.01324  0.31681  Biso   1.000  O
  O173     1.0000 0.72369  0.94516  0.46567  Biso   1.000  O
  O174     1.0000 0.58103  0.17040  0.51357  Biso   1.000  O
  O175     1.0000 0.54137  0.51659  0.22692  Biso   1.000  O
  O176     1.0000 0.32257  0.48118  0.07388  Biso   1.000  O
  O177     1.0000 0.48824  0.67324  0.01748  Biso   1.000  O
  O178     1.0000 0.03580  0.50343  0.30886  Biso   1.000  O
  O179     1.0000 0.82195  0.44961  0.46015  Biso   1.000  O
  O180     1.0000 0.96124  0.67409  0.50920  Biso   1.000  O
  O181     1.0000 0.03583  0.94003  0.81109  Biso   1.000  O
  O182     1.0000 0.81527  0.96846  0.96414  Biso   1.000  O
  O183     1.0000 0.98686  0.76659  0.01469  Biso   1.000  O
  O184     1.0000 0.52945  0.92734  0.72723  Biso   1.000  O
  O185     1.0000 0.31377  0.98440  0.57696  Biso   1.000  O
  O186     1.0000 0.46316  0.76854  0.52194  Biso   1.000  O
  O187     1.0000 0.52549  0.42466  0.80853  Biso   1.000  O
  O188     1.0000 0.73168  0.46947  0.96167  Biso   1.000  O
  O189     1.0000 0.56567  0.26477  0.02319  Biso   1.000  O
  O190     1.0000 0.01439  0.43920  0.72048  Biso   1.000  O
  O191     1.0000 0.22880  0.48831  0.56820  Biso   1.000  O
  O192     1.0000 0.08137  0.27503  0.52740  Biso   1.000  O
