data_DUT-49op
_audit_creation_method         'generated by CrystalMaker X for macOS'
_cell_length_a                  46.723700
_cell_length_b                  46.723700
_cell_length_c                  46.723700
_cell_angle_alpha               90.000000
_cell_angle_beta                90.000000
_cell_angle_gamma               90.000000

_symmetry_space_group_name_H-M     'P 1'

loop_
_symmetry_equiv_pos_as_xyz
'+x,+y,+z'

loop_
_atom_site_label
_atom_site_type_symbol
_atom_site_occupancy
_atom_site_fract_x
_atom_site_fract_y
_atom_site_fract_z
 C1  C 1.0  0.5542  0.0  0.3218
 C1_2  C 1.0  0.3218  0.5542  0.0
 C1_3  C 1.0  0.0  0.3218  0.5542
 C1_4  C 1.0  0.0542  0.0  0.1782
 C1_5  C 1.0  0.8218  0.5542  0.5
 C1_6  C 1.0  0.5  0.3218  0.9458
 C1_7  C 1.0  0.9458  0.5  0.3218
 C1_8  C 1.0  0.1782  0.0542  0.0
 C1_9  C 1.0  0.5  0.8218  0.5542
 C1_10  C 1.0  0.4458  0.5  0.1782
 C1_11  C 1.0  0.6782  0.0542  0.5
 C1_12  C 1.0  0.0  0.8218  0.9458
 C1_13  C 1.0  0.4458  0.0  0.6782
 C1_14  C 1.0  0.6782  0.4458  0.0
 C1_15  C 1.0  0.0  0.6782  0.4458
 C1_16  C 1.0  0.9458  0.0  0.8218
 C1_17  C 1.0  0.1782  0.4458  0.5
 C1_18  C 1.0  0.5  0.6782  0.0542
 C1_19  C 1.0  0.0542  0.5  0.6782
 C1_20  C 1.0  0.8218  0.9458  0.0
 C1_21  C 1.0  0.5  0.1782  0.4458
 C1_22  C 1.0  0.5542  0.5  0.8218
 C1_23  C 1.0  0.3218  0.9458  0.5
 C1_24  C 1.0  0.0  0.1782  0.0542
 C2  C 1.0  0.3218  0.0542  0.5
 C2_2  C 1.0  0.5  0.3218  0.0542
 C2_3  C 1.0  0.0542  0.5  0.3218
 C2_4  C 1.0  0.8218  0.0542  0.0
 C2_5  C 1.0  0.0  0.3218  0.4458
 C2_6  C 1.0  0.5542  0.5  0.1782
 C2_7  C 1.0  0.1782  0.5542  0.5
 C2_8  C 1.0  0.0  0.8218  0.0542
 C2_9  C 1.0  0.4458  0.0  0.3218
 C2_10  C 1.0  0.6782  0.5542  0.0
 C2_11  C 1.0  0.5  0.8218  0.4458
 C2_12  C 1.0  0.9458  0.0  0.1782
 C2_13  C 1.0  0.6782  0.9458  0.5
 C2_14  C 1.0  0.5  0.6782  0.9458
 C2_15  C 1.0  0.9458  0.5  0.6782
 C2_16  C 1.0  0.1782  0.9458  0.0
 C2_17  C 1.0  0.0  0.6782  0.5542
 C2_18  C 1.0  0.4458  0.5  0.8218
 C2_19  C 1.0  0.8218  0.4458  0.5
 C2_20  C 1.0  0.0  0.1782  0.9458
 C2_21  C 1.0  0.5542  0.0  0.6782
 C2_22  C 1.0  0.3218  0.4458  0.0
 C2_23  C 1.0  0.5  0.1782  0.5542
 C2_24  C 1.0  0.0542  0.0  0.8218
 C3  C 1.0  0.0  0.0542  0.8218
 C3_2  C 1.0  0.8218  0.0  0.0542
 C3_3  C 1.0  0.0542  0.8218  0.0
 C3_4  C 1.0  0.5  0.0542  0.6782
 C3_5  C 1.0  0.3218  0.0  0.4458
 C3_6  C 1.0  0.5542  0.8218  0.5
 C3_7  C 1.0  0.5  0.5542  0.8218
 C3_8  C 1.0  0.6782  0.5  0.0542
 C3_9  C 1.0  0.4458  0.3218  0.0
 C3_10  C 1.0  0.0  0.5542  0.6782
 C3_11  C 1.0  0.1782  0.5  0.4458
 C3_12  C 1.0  0.9458  0.3218  0.5
 C3_13  C 1.0  0.0  0.9458  0.1782
 C3_14  C 1.0  0.1782  0.0  0.9458
 C3_15  C 1.0  0.9458  0.1782  0.0
 C3_16  C 1.0  0.5  0.9458  0.3218
 C3_17  C 1.0  0.6782  0.0  0.5542
 C3_18  C 1.0  0.4458  0.1782  0.5
 C3_19  C 1.0  0.5  0.4458  0.1782
 C3_20  C 1.0  0.3218  0.5  0.9458
 C3_21  C 1.0  0.5542  0.6782  0.0
 C3_22  C 1.0  0.0  0.4458  0.3218
 C3_23  C 1.0  0.8218  0.5  0.5542
 C3_24  C 1.0  0.0542  0.6782  0.5
 C4  C 1.0  0.0  0.5542  0.3218
 C4_2  C 1.0  0.3218  0.0  0.5542
 C4_3  C 1.0  0.5542  0.3218  0.0
 C4_4  C 1.0  0.5  0.5542  0.1782
 C4_5  C 1.0  0.8218  0.0  0.9458
 C4_6  C 1.0  0.0542  0.3218  0.5
 C4_7  C 1.0  0.5  0.0542  0.3218
 C4_8  C 1.0  0.1782  0.5  0.5542
 C4_9  C 1.0  0.9458  0.8218  0.0
 C4_10  C 1.0  0.0  0.0542  0.1782
 C4_11  C 1.0  0.6782  0.5  0.9458
 C4_12  C 1.0  0.4458  0.8218  0.5
 C4_13  C 1.0  0.0  0.4458  0.6782
 C4_14  C 1.0  0.6782  0.0  0.4458
 C4_15  C 1.0  0.4458  0.6782  0.0
 C4_16  C 1.0  0.5  0.4458  0.8218
 C4_17  C 1.0  0.1782  0.0  0.0542
 C4_18  C 1.0  0.9458  0.6782  0.5
 C4_19  C 1.0  0.5  0.9458  0.6782
 C4_20  C 1.0  0.8218  0.5  0.4458
 C4_21  C 1.0  0.0542  0.1782  0.0
 C4_22  C 1.0  0.0  0.9458  0.8218
 C4_23  C 1.0  0.3218  0.5  0.0542
 C4_24  C 1.0  0.5542  0.1782  0.5
 C5  C 1.0  0.6782  0.086  0.5
 C5_2  C 1.0  0.5  0.6782  0.086
 C5_3  C 1.0  0.086  0.5  0.6782
 C5_4  C 1.0  0.1782  0.086  0.0
 C5_5  C 1.0  0.0  0.6782  0.414
 C5_6  C 1.0  0.586  0.5  0.8218
 C5_7  C 1.0  0.8218  0.586  0.5
 C5_8  C 1.0  0.0  0.1782  0.086
 C5_9  C 1.0  0.414  0.0  0.6782
 C5_10  C 1.0  0.3218  0.586  0.0
 C5_11  C 1.0  0.5  0.1782  0.414
 C5_12  C 1.0  0.914  0.0  0.8218
 C5_13  C 1.0  0.3218  0.914  0.5
 C5_14  C 1.0  0.5  0.3218  0.914
 C5_15  C 1.0  0.914  0.5  0.3218
 C5_16  C 1.0  0.8218  0.914  0.0
 C5_17  C 1.0  0.0  0.3218  0.586
 C5_18  C 1.0  0.414  0.5  0.1782
 C5_19  C 1.0  0.1782  0.414  0.5
 C5_20  C 1.0  0.0  0.8218  0.914
 C5_21  C 1.0  0.586  0.0  0.3218
 C5_22  C 1.0  0.6782  0.414  0.0
 C5_23  C 1.0  0.5  0.8218  0.586
 C5_24  C 1.0  0.086  0.0  0.1782
 C6  C 1.0  0.8218  0.0  0.086
 C6_2  C 1.0  0.086  0.8218  0.0
 C6_3  C 1.0  0.0  0.086  0.8218
 C6_4  C 1.0  0.3218  0.0  0.414
 C6_5  C 1.0  0.586  0.8218  0.5
 C6_6  C 1.0  0.5  0.086  0.6782
 C6_7  C 1.0  0.6782  0.5  0.086
 C6_8  C 1.0  0.414  0.3218  0.0
 C6_9  C 1.0  0.5  0.586  0.8218
 C6_10  C 1.0  0.1782  0.5  0.414
 C6_11  C 1.0  0.914  0.3218  0.5
 C6_12  C 1.0  0.0  0.586  0.6782
 C6_13  C 1.0  0.1782  0.0  0.914
 C6_14  C 1.0  0.914  0.1782  0.0
 C6_15  C 1.0  0.0  0.914  0.1782
 C6_16  C 1.0  0.6782  0.0  0.586
 C6_17  C 1.0  0.414  0.1782  0.5
 C6_18  C 1.0  0.5  0.914  0.3218
 C6_19  C 1.0  0.3218  0.5  0.914
 C6_20  C 1.0  0.586  0.6782  0.0
 C6_21  C 1.0  0.5  0.414  0.1782
 C6_22  C 1.0  0.8218  0.5  0.586
 C6_23  C 1.0  0.086  0.6782  0.5
 C6_24  C 1.0  0.0  0.414  0.3218
 C7  C 1.0  0.3218  0.5  0.086
 C7_2  C 1.0  0.086  0.3218  0.5
 C7_3  C 1.0  0.5  0.086  0.3218
 C7_4  C 1.0  0.8218  0.5  0.414
 C7_5  C 1.0  0.586  0.3218  0.0
 C7_6  C 1.0  0.0  0.086  0.1782
 C7_7  C 1.0  0.1782  0.0  0.086
 C7_8  C 1.0  0.414  0.8218  0.5
 C7_9  C 1.0  0.0  0.586  0.3218
 C7_10  C 1.0  0.6782  0.0  0.414
 C7_11  C 1.0  0.914  0.8218  0.0
 C7_12  C 1.0  0.5  0.586  0.1782
 C7_13  C 1.0  0.6782  0.5  0.914
 C7_14  C 1.0  0.914  0.6782  0.5
 C7_15  C 1.0  0.5  0.914  0.6782
 C7_16  C 1.0  0.1782  0.5  0.586
 C7_17  C 1.0  0.414  0.6782  0.0
 C7_18  C 1.0  0.0  0.914  0.8218
 C7_19  C 1.0  0.8218  0.0  0.914
 C7_20  C 1.0  0.586  0.1782  0.5
 C7_21  C 1.0  0.0  0.414  0.6782
 C7_22  C 1.0  0.3218  0.0  0.586
 C7_23  C 1.0  0.086  0.1782  0.0
 C7_24  C 1.0  0.5  0.414  0.8218
 C8  C 1.0  0.0  0.8218  0.086
 C8_2  C 1.0  0.086  0.0  0.8218
 C8_3  C 1.0  0.8218  0.086  0.0
 C8_4  C 1.0  0.5  0.8218  0.414
 C8_5  C 1.0  0.586  0.0  0.6782
 C8_6  C 1.0  0.3218  0.086  0.5
 C8_7  C 1.0  0.5  0.3218  0.086
 C8_8  C 1.0  0.414  0.5  0.8218
 C8_9  C 1.0  0.6782  0.586  0.0
 C8_10  C 1.0  0.0  0.3218  0.414
 C8_11  C 1.0  0.914  0.5  0.6782
 C8_12  C 1.0  0.1782  0.586  0.5
 C8_13  C 1.0  0.0  0.1782  0.914
 C8_14  C 1.0  0.914  0.0  0.1782
 C8_15  C 1.0  0.1782  0.914  0.0
 C8_16  C 1.0  0.5  0.1782  0.586
 C8_17  C 1.0  0.414  0.0  0.3218
 C8_18  C 1.0  0.6782  0.914  0.5
 C8_19  C 1.0  0.5  0.6782  0.914
 C8_20  C 1.0  0.586  0.5  0.1782
 C8_21  C 1.0  0.3218  0.414  0.0
 C8_22  C 1.0  0.0  0.6782  0.586
 C8_23  C 1.0  0.086  0.5  0.3218
 C8_24  C 1.0  0.8218  0.414  0.5
 C9  C 1.0  0.8479  0.0  0.8992
 C9_2  C 1.0  0.8992  0.8479  0.0
 C9_3  C 1.0  0.0  0.8992  0.8479
 C9_4  C 1.0  0.3479  0.0  0.6008
 C9_5  C 1.0  0.3992  0.8479  0.5
 C9_6  C 1.0  0.5  0.8992  0.6521
 C9_7  C 1.0  0.6521  0.5  0.8992
 C9_8  C 1.0  0.6008  0.3479  0.0
 C9_9  C 1.0  0.5  0.3992  0.8479
 C9_10  C 1.0  0.1521  0.5  0.6008
 C9_11  C 1.0  0.1008  0.3479  0.5
 C9_12  C 1.0  0.0  0.3992  0.6521
 C9_13  C 1.0  0.1521  0.0  0.1008
 C9_14  C 1.0  0.1008  0.1521  0.0
 C9_15  C 1.0  0.0  0.1008  0.1521
 C9_16  C 1.0  0.6521  0.0  0.3992
 C9_17  C 1.0  0.6008  0.1521  0.5
 C9_18  C 1.0  0.5  0.1008  0.3479
 C9_19  C 1.0  0.3479  0.5  0.1008
 C9_20  C 1.0  0.3992  0.6521  0.0
 C9_21  C 1.0  0.5  0.6008  0.1521
 C9_22  C 1.0  0.8479  0.5  0.3992
 C9_23  C 1.0  0.8992  0.6521  0.5
 C9_24  C 1.0  0.0  0.6008  0.3479
 C10  C 1.0  0.1008  0.0  0.8479
 C10_2  C 1.0  0.8479  0.1008  0.0
 C10_3  C 1.0  0.0  0.8479  0.1008
 C10_4  C 1.0  0.6008  0.0  0.6521
 C10_5  C 1.0  0.3479  0.1008  0.5
 C10_6  C 1.0  0.5  0.8479  0.3992
 C10_7  C 1.0  0.3992  0.5  0.8479
 C10_8  C 1.0  0.6521  0.6008  0.0
 C10_9  C 1.0  0.5  0.3479  0.1008
 C10_10  C 1.0  0.8992  0.5  0.6521
 C10_11  C 1.0  0.1521  0.6008  0.5
 C10_12  C 1.0  0.0  0.3479  0.3992
 C10_13  C 1.0  0.8992  0.0  0.1521
 C10_14  C 1.0  0.1521  0.8992  0.0
 C10_15  C 1.0  0.0  0.1521  0.8992
 C10_16  C 1.0  0.3992  0.0  0.3479
 C10_17  C 1.0  0.6521  0.8992  0.5
 C10_18  C 1.0  0.5  0.1521  0.6008
 C10_19  C 1.0  0.6008  0.5  0.1521
 C10_20  C 1.0  0.3479  0.3992  0.0
 C10_21  C 1.0  0.5  0.6521  0.8992
 C10_22  C 1.0  0.1008  0.5  0.3479
 C10_23  C 1.0  0.8479  0.3992  0.5
 C10_24  C 1.0  0.0  0.6521  0.6008
 C11  C 1.0  0.6008  0.5  0.8479
 C11_2  C 1.0  0.8479  0.6008  0.5
 C11_3  C 1.0  0.5  0.8479  0.6008
 C11_4  C 1.0  0.1008  0.5  0.6521
 C11_5  C 1.0  0.3479  0.6008  0.0
 C11_6  C 1.0  0.0  0.8479  0.8992
 C11_7  C 1.0  0.8992  0.0  0.8479
 C11_8  C 1.0  0.6521  0.1008  0.5
 C11_9  C 1.0  0.0  0.3479  0.6008
 C11_10  C 1.0  0.3992  0.0  0.6521
 C11_11  C 1.0  0.1521  0.1008  0.0
 C11_12  C 1.0  0.5  0.3479  0.8992
 C11_13  C 1.0  0.3992  0.5  0.1521
 C11_14  C 1.0  0.1521  0.3992  0.5
 C11_15  C 1.0  0.5  0.1521  0.3992
 C11_16  C 1.0  0.8992  0.5  0.3479
 C11_17  C 1.0  0.6521  0.3992  0.0
 C11_18  C 1.0  0.0  0.1521  0.1008
 C11_19  C 1.0  0.1008  0.0  0.1521
 C11_20  C 1.0  0.3479  0.8992  0.5
 C11_21  C 1.0  0.0  0.6521  0.3992
 C11_22  C 1.0  0.6008  0.0  0.3479
 C11_23  C 1.0  0.8479  0.8992  0.0
 C11_24  C 1.0  0.5  0.6521  0.1008
 C12  C 1.0  0.0  0.1008  0.8479
 C12_2  C 1.0  0.8479  0.0  0.1008
 C12_3  C 1.0  0.1008  0.8479  0.0
 C12_4  C 1.0  0.5  0.1008  0.6521
 C12_5  C 1.0  0.3479  0.0  0.3992
 C12_6  C 1.0  0.6008  0.8479  0.5
 C12_7  C 1.0  0.5  0.6008  0.8479
 C12_8  C 1.0  0.6521  0.5  0.1008
 C12_9  C 1.0  0.3992  0.3479  0.0
 C12_10  C 1.0  0.0  0.6008  0.6521
 C12_11  C 1.0  0.1521  0.5  0.3992
 C12_12  C 1.0  0.8992  0.3479  0.5
 C12_13  C 1.0  0.0  0.8992  0.1521
 C12_14  C 1.0  0.1521  0.0  0.8992
 C12_15  C 1.0  0.8992  0.1521  0.0
 C12_16  C 1.0  0.5  0.8992  0.3479
 C12_17  C 1.0  0.6521  0.0  0.6008
 C12_18  C 1.0  0.3992  0.1521  0.5
 C12_19  C 1.0  0.5  0.3992  0.1521
 C12_20  C 1.0  0.3479  0.5  0.8992
 C12_21  C 1.0  0.6008  0.6521  0.0
 C12_22  C 1.0  0.0  0.3992  0.3479
 C12_23  C 1.0  0.8479  0.5  0.6008
 C12_24  C 1.0  0.1008  0.6521  0.5
 C13  C 1.0  0.3474  0.8693  0.5
 C13_2  C 1.0  0.5  0.3474  0.8693
 C13_3  C 1.0  0.8693  0.5  0.3474
 C13_4  C 1.0  0.8474  0.8693  0.0
 C13_5  C 1.0  0.0  0.3474  0.6307
 C13_6  C 1.0  0.3693  0.5  0.1526
 C13_7  C 1.0  0.1526  0.3693  0.5
 C13_8  C 1.0  0.0  0.8474  0.8693
 C13_9  C 1.0  0.6307  0.0  0.3474
 C13_10  C 1.0  0.6526  0.3693  0.0
 C13_11  C 1.0  0.5  0.8474  0.6307
 C13_12  C 1.0  0.1307  0.0  0.1526
 C13_13  C 1.0  0.6526  0.1307  0.5
 C13_14  C 1.0  0.5  0.6526  0.1307
 C13_15  C 1.0  0.1307  0.5  0.6526
 C13_16  C 1.0  0.1526  0.1307  0.0
 C13_17  C 1.0  0.0  0.6526  0.3693
 C13_18  C 1.0  0.6307  0.5  0.8474
 C13_19  C 1.0  0.8474  0.6307  0.5
 C13_20  C 1.0  0.0  0.1526  0.1307
 C13_21  C 1.0  0.3693  0.0  0.6526
 C13_22  C 1.0  0.3474  0.6307  0.0
 C13_23  C 1.0  0.5  0.1526  0.3693
 C13_24  C 1.0  0.8693  0.0  0.8474
 C14  C 1.0  0.1526  0.5  0.3693
 C14_2  C 1.0  0.3693  0.1526  0.5
 C14_3  C 1.0  0.5  0.3693  0.1526
 C14_4  C 1.0  0.6526  0.5  0.1307
 C14_5  C 1.0  0.8693  0.1526  0.0
 C14_6  C 1.0  0.0  0.3693  0.3474
 C14_7  C 1.0  0.3474  0.0  0.3693
 C14_8  C 1.0  0.1307  0.6526  0.5
 C14_9  C 1.0  0.0  0.8693  0.1526
 C14_10  C 1.0  0.8474  0.0  0.1307
 C14_11  C 1.0  0.6307  0.6526  0.0
 C14_12  C 1.0  0.5  0.8693  0.3474
 C14_13  C 1.0  0.8474  0.5  0.6307
 C14_14  C 1.0  0.6307  0.8474  0.5
 C14_15  C 1.0  0.5  0.6307  0.8474
 C14_16  C 1.0  0.3474  0.5  0.8693
 C14_17  C 1.0  0.1307  0.8474  0.0
 C14_18  C 1.0  0.0  0.6307  0.6526
 C14_19  C 1.0  0.6526  0.0  0.6307
 C14_20  C 1.0  0.8693  0.3474  0.5
 C14_21  C 1.0  0.0  0.1307  0.8474
 C14_22  C 1.0  0.1526  0.0  0.8693
 C14_23  C 1.0  0.3693  0.3474  0.0
 C14_24  C 1.0  0.5  0.1307  0.6526
 C15  C 1.0  0.6526  0.5  0.8693
 C15_2  C 1.0  0.8693  0.6526  0.5
 C15_3  C 1.0  0.5  0.8693  0.6526
 C15_4  C 1.0  0.1526  0.5  0.6307
 C15_5  C 1.0  0.3693  0.6526  0.0
 C15_6  C 1.0  0.0  0.8693  0.8474
 C15_7  C 1.0  0.8474  0.0  0.8693
 C15_8  C 1.0  0.6307  0.1526  0.5
 C15_9  C 1.0  0.0  0.3693  0.6526
 C15_10  C 1.0  0.3474  0.0  0.6307
 C15_11  C 1.0  0.1307  0.1526  0.0
 C15_12  C 1.0  0.5  0.3693  0.8474
 C15_13  C 1.0  0.3474  0.5  0.1307
 C15_14  C 1.0  0.1307  0.3474  0.5
 C15_15  C 1.0  0.5  0.1307  0.3474
 C15_16  C 1.0  0.8474  0.5  0.3693
 C15_17  C 1.0  0.6307  0.3474  0.0
 C15_18  C 1.0  0.0  0.1307  0.1526
 C15_19  C 1.0  0.1526  0.0  0.1307
 C15_20  C 1.0  0.3693  0.8474  0.5
 C15_21  C 1.0  0.0  0.6307  0.3474
 C15_22  C 1.0  0.6526  0.0  0.3693
 C15_23  C 1.0  0.8693  0.8474  0.0
 C15_24  C 1.0  0.5  0.6307  0.1526
 C16  C 1.0  0.0  0.1526  0.8693
 C16_2  C 1.0  0.8693  0.0  0.1526
 C16_3  C 1.0  0.1526  0.8693  0.0
 C16_4  C 1.0  0.5  0.1526  0.6307
 C16_5  C 1.0  0.3693  0.0  0.3474
 C16_6  C 1.0  0.6526  0.8693  0.5
 C16_7  C 1.0  0.5  0.6526  0.8693
 C16_8  C 1.0  0.6307  0.5  0.1526
 C16_9  C 1.0  0.3474  0.3693  0.0
 C16_10  C 1.0  0.0  0.6526  0.6307
 C16_11  C 1.0  0.1307  0.5  0.3474
 C16_12  C 1.0  0.8474  0.3693  0.5
 C16_13  C 1.0  0.0  0.8474  0.1307
 C16_14  C 1.0  0.1307  0.0  0.8474
 C16_15  C 1.0  0.8474  0.1307  0.0
 C16_16  C 1.0  0.5  0.8474  0.3693
 C16_17  C 1.0  0.6307  0.0  0.6526
 C16_18  C 1.0  0.3474  0.1307  0.5
 C16_19  C 1.0  0.5  0.3474  0.1307
 C16_20  C 1.0  0.3693  0.5  0.8474
 C16_21  C 1.0  0.6526  0.6307  0.0
 C16_22  C 1.0  0.0  0.3474  0.3693
 C16_23  C 1.0  0.8693  0.5  0.6526
 C16_24  C 1.0  0.1526  0.6307  0.5
 C17  C 1.0  0.1794  0.1452  0.0
 C17_2  C 1.0  0.0  0.1794  0.1452
 C17_3  C 1.0  0.1452  0.0  0.1794
 C17_4  C 1.0  0.6794  0.1452  0.5
 C17_5  C 1.0  0.5  0.1794  0.3548
 C17_6  C 1.0  0.6452  0.0  0.3206
 C17_7  C 1.0  0.3206  0.6452  0.0
 C17_8  C 1.0  0.5  0.6794  0.1452
 C17_9  C 1.0  0.3548  0.5  0.1794
 C17_10  C 1.0  0.8206  0.6452  0.5
 C17_11  C 1.0  0.0  0.6794  0.3548
 C17_12  C 1.0  0.8548  0.5  0.3206
 C17_13  C 1.0  0.8206  0.8548  0.0
 C17_14  C 1.0  0.0  0.8206  0.8548
 C17_15  C 1.0  0.8548  0.0  0.8206
 C17_16  C 1.0  0.3206  0.8548  0.5
 C17_17  C 1.0  0.5  0.8206  0.6452
 C17_18  C 1.0  0.3548  0.0  0.6794
 C17_19  C 1.0  0.6794  0.3548  0.0
 C17_20  C 1.0  0.5  0.3206  0.8548
 C17_21  C 1.0  0.6452  0.5  0.8206
 C17_22  C 1.0  0.1794  0.3548  0.5
 C17_23  C 1.0  0.0  0.3206  0.6452
 C17_24  C 1.0  0.1452  0.5  0.6794
 C18  C 1.0  0.1452  0.0  0.8206
 C18_2  C 1.0  0.8206  0.1452  0.0
 C18_3  C 1.0  0.0  0.8206  0.1452
 C18_4  C 1.0  0.6452  0.0  0.6794
 C18_5  C 1.0  0.3206  0.1452  0.5
 C18_6  C 1.0  0.5  0.8206  0.3548
 C18_7  C 1.0  0.3548  0.5  0.8206
 C18_8  C 1.0  0.6794  0.6452  0.0
 C18_9  C 1.0  0.5  0.3206  0.1452
 C18_10  C 1.0  0.8548  0.5  0.6794
 C18_11  C 1.0  0.1794  0.6452  0.5
 C18_12  C 1.0  0.0  0.3206  0.3548
 C18_13  C 1.0  0.8548  0.0  0.1794
 C18_14  C 1.0  0.1794  0.8548  0.0
 C18_15  C 1.0  0.0  0.1794  0.8548
 C18_16  C 1.0  0.3548  0.0  0.3206
 C18_17  C 1.0  0.6794  0.8548  0.5
 C18_18  C 1.0  0.5  0.1794  0.6452
 C18_19  C 1.0  0.6452  0.5  0.1794
 C18_20  C 1.0  0.3206  0.3548  0.0
 C18_21  C 1.0  0.5  0.6794  0.8548
 C18_22  C 1.0  0.1452  0.5  0.3206
 C18_23  C 1.0  0.8206  0.3548  0.5
 C18_24  C 1.0  0.0  0.6794  0.6452
 C19  C 1.0  0.0  0.1452  0.8206
 C19_2  C 1.0  0.8206  0.0  0.1452
 C19_3  C 1.0  0.1452  0.8206  0.0
 C19_4  C 1.0  0.5  0.1452  0.6794
 C19_5  C 1.0  0.3206  0.0  0.3548
 C19_6  C 1.0  0.6452  0.8206  0.5
 C19_7  C 1.0  0.5  0.6452  0.8206
 C19_8  C 1.0  0.6794  0.5  0.1452
 C19_9  C 1.0  0.3548  0.3206  0.0
 C19_10  C 1.0  0.0  0.6452  0.6794
 C19_11  C 1.0  0.1794  0.5  0.3548
 C19_12  C 1.0  0.8548  0.3206  0.5
 C19_13  C 1.0  0.0  0.8548  0.1794
 C19_14  C 1.0  0.1794  0.0  0.8548
 C19_15  C 1.0  0.8548  0.1794  0.0
 C19_16  C 1.0  0.5  0.8548  0.3206
 C19_17  C 1.0  0.6794  0.0  0.6452
 C19_18  C 1.0  0.3548  0.1794  0.5
 C19_19  C 1.0  0.5  0.3548  0.1794
 C19_20  C 1.0  0.3206  0.5  0.8548
 C19_21  C 1.0  0.6452  0.6794  0.0
 C19_22  C 1.0  0.0  0.3548  0.3206
 C19_23  C 1.0  0.8206  0.5  0.6452
 C19_24  C 1.0  0.1452  0.6794  0.5
 C20  C 1.0  0.0  0.6452  0.3206
 C20_2  C 1.0  0.3206  0.0  0.6452
 C20_3  C 1.0  0.6452  0.3206  0.0
 C20_4  C 1.0  0.5  0.6452  0.1794
 C20_5  C 1.0  0.8206  0.0  0.8548
 C20_6  C 1.0  0.1452  0.3206  0.5
 C20_7  C 1.0  0.5  0.1452  0.3206
 C20_8  C 1.0  0.1794  0.5  0.6452
 C20_9  C 1.0  0.8548  0.8206  0.0
 C20_10  C 1.0  0.0  0.1452  0.1794
 C20_11  C 1.0  0.6794  0.5  0.8548
 C20_12  C 1.0  0.3548  0.8206  0.5
 C20_13  C 1.0  0.0  0.3548  0.6794
 C20_14  C 1.0  0.6794  0.0  0.3548
 C20_15  C 1.0  0.3548  0.6794  0.0
 C20_16  C 1.0  0.5  0.3548  0.8206
 C20_17  C 1.0  0.1794  0.0  0.1452
 C20_18  C 1.0  0.8548  0.6794  0.5
 C20_19  C 1.0  0.5  0.8548  0.6794
 C20_20  C 1.0  0.8206  0.5  0.3548
 C20_21  C 1.0  0.1452  0.1794  0.0
 C20_22  C 1.0  0.0  0.8548  0.8206
 C20_23  C 1.0  0.3206  0.5  0.1452
 C20_24  C 1.0  0.6452  0.1794  0.5
 C21  C 1.0  0.3693  0.7944  0.5
 C21_2  C 1.0  0.5  0.3693  0.7944
 C21_3  C 1.0  0.7944  0.5  0.3693
 C21_4  C 1.0  0.8693  0.7944  0.0
 C21_5  C 1.0  0.0  0.3693  0.7056
 C21_6  C 1.0  0.2944  0.5  0.1307
 C21_7  C 1.0  0.1307  0.2944  0.5
 C21_8  C 1.0  0.0  0.8693  0.7944
 C21_9  C 1.0  0.7056  0.0  0.3693
 C21_10  C 1.0  0.6307  0.2944  0.0
 C21_11  C 1.0  0.5  0.8693  0.7056
 C21_12  C 1.0  0.2056  0.0  0.1307
 C21_13  C 1.0  0.6307  0.2056  0.5
 C21_14  C 1.0  0.5  0.6307  0.2056
 C21_15  C 1.0  0.2056  0.5  0.6307
 C21_16  C 1.0  0.1307  0.2056  0.0
 C21_17  C 1.0  0.0  0.6307  0.2944
 C21_18  C 1.0  0.7056  0.5  0.8693
 C21_19  C 1.0  0.8693  0.7056  0.5
 C21_20  C 1.0  0.0  0.1307  0.2056
 C21_21  C 1.0  0.2944  0.0  0.6307
 C21_22  C 1.0  0.3693  0.7056  0.0
 C21_23  C 1.0  0.5  0.1307  0.2944
 C21_24  C 1.0  0.7944  0.0  0.8693
 C22  C 1.0  0.6307  0.5  0.7944
 C22_2  C 1.0  0.7944  0.6307  0.5
 C22_3  C 1.0  0.5  0.7944  0.6307
 C22_4  C 1.0  0.1307  0.5  0.7056
 C22_5  C 1.0  0.2944  0.6307  0.0
 C22_6  C 1.0  0.0  0.7944  0.8693
 C22_7  C 1.0  0.8693  0.0  0.7944
 C22_8  C 1.0  0.7056  0.1307  0.5
 C22_9  C 1.0  0.0  0.2944  0.6307
 C22_10  C 1.0  0.3693  0.0  0.7056
 C22_11  C 1.0  0.2056  0.1307  0.0
 C22_12  C 1.0  0.5  0.2944  0.8693
 C22_13  C 1.0  0.3693  0.5  0.2056
 C22_14  C 1.0  0.2056  0.3693  0.5
 C22_15  C 1.0  0.5  0.2056  0.3693
 C22_16  C 1.0  0.8693  0.5  0.2944
 C22_17  C 1.0  0.7056  0.3693  0.0
 C22_18  C 1.0  0.0  0.2056  0.1307
 C22_19  C 1.0  0.1307  0.0  0.2056
 C22_20  C 1.0  0.2944  0.8693  0.5
 C22_21  C 1.0  0.0  0.7056  0.3693
 C22_22  C 1.0  0.6307  0.0  0.2944
 C22_23  C 1.0  0.7944  0.8693  0.0
 C22_24  C 1.0  0.5  0.7056  0.1307
 C23  C 1.0  0.7944  0.1307  0.0
 C23_2  C 1.0  0.0  0.7944  0.1307
 C23_3  C 1.0  0.1307  0.0  0.7944
 C23_4  C 1.0  0.2944  0.1307  0.5
 C23_5  C 1.0  0.5  0.7944  0.3693
 C23_6  C 1.0  0.6307  0.0  0.7056
 C23_7  C 1.0  0.7056  0.6307  0.0
 C23_8  C 1.0  0.5  0.2944  0.1307
 C23_9  C 1.0  0.3693  0.5  0.7944
 C23_10  C 1.0  0.2056  0.6307  0.5
 C23_11  C 1.0  0.0  0.2944  0.3693
 C23_12  C 1.0  0.8693  0.5  0.7056
 C23_13  C 1.0  0.2056  0.8693  0.0
 C23_14  C 1.0  0.0  0.2056  0.8693
 C23_15  C 1.0  0.8693  0.0  0.2056
 C23_16  C 1.0  0.7056  0.8693  0.5
 C23_17  C 1.0  0.5  0.2056  0.6307
 C23_18  C 1.0  0.3693  0.0  0.2944
 C23_19  C 1.0  0.2944  0.3693  0.0
 C23_20  C 1.0  0.5  0.7056  0.8693
 C23_21  C 1.0  0.6307  0.5  0.2056
 C23_22  C 1.0  0.7944  0.3693  0.5
 C23_23  C 1.0  0.0  0.7056  0.6307
 C23_24  C 1.0  0.1307  0.5  0.2944
 C24  C 1.0  0.0  0.1307  0.7944
 C24_2  C 1.0  0.7944  0.0  0.1307
 C24_3  C 1.0  0.1307  0.7944  0.0
 C24_4  C 1.0  0.5  0.1307  0.7056
 C24_5  C 1.0  0.2944  0.0  0.3693
 C24_6  C 1.0  0.6307  0.7944  0.5
 C24_7  C 1.0  0.5  0.6307  0.7944
 C24_8  C 1.0  0.7056  0.5  0.1307
 C24_9  C 1.0  0.3693  0.2944  0.0
 C24_10  C 1.0  0.0  0.6307  0.7056
 C24_11  C 1.0  0.2056  0.5  0.3693
 C24_12  C 1.0  0.8693  0.2944  0.5
 C24_13  C 1.0  0.0  0.8693  0.2056
 C24_14  C 1.0  0.2056  0.0  0.8693
 C24_15  C 1.0  0.8693  0.2056  0.0
 C24_16  C 1.0  0.5  0.8693  0.2944
 C24_17  C 1.0  0.7056  0.0  0.6307
 C24_18  C 1.0  0.3693  0.2056  0.5
 C24_19  C 1.0  0.5  0.3693  0.2056
 C24_20  C 1.0  0.2944  0.5  0.8693
 C24_21  C 1.0  0.6307  0.7056  0.0
 C24_22  C 1.0  0.0  0.3693  0.2944
 C24_23  C 1.0  0.7944  0.5  0.6307
 C24_24  C 1.0  0.1307  0.7056  0.5
 C25  C 1.0  0.2954  0.5  0.1009
 C25_2  C 1.0  0.1009  0.2954  0.5
 C25_3  C 1.0  0.5  0.1009  0.2954
 C25_4  C 1.0  0.7954  0.5  0.3991
 C25_5  C 1.0  0.6009  0.2954  0.0
 C25_6  C 1.0  0.0  0.1009  0.2046
 C25_7  C 1.0  0.2046  0.0  0.1009
 C25_8  C 1.0  0.3991  0.7954  0.5
 C25_9  C 1.0  0.0  0.6009  0.2954
 C25_10  C 1.0  0.7046  0.0  0.3991
 C25_11  C 1.0  0.8991  0.7954  0.0
 C25_12  C 1.0  0.5  0.6009  0.2046
 C25_13  C 1.0  0.7046  0.5  0.8991
 C25_14  C 1.0  0.8991  0.7046  0.5
 C25_15  C 1.0  0.5  0.8991  0.7046
 C25_16  C 1.0  0.2046  0.5  0.6009
 C25_17  C 1.0  0.3991  0.7046  0.0
 C25_18  C 1.0  0.0  0.8991  0.7954
 C25_19  C 1.0  0.7954  0.0  0.8991
 C25_20  C 1.0  0.6009  0.2046  0.5
 C25_21  C 1.0  0.0  0.3991  0.7046
 C25_22  C 1.0  0.2954  0.0  0.6009
 C25_23  C 1.0  0.1009  0.2046  0.0
 C25_24  C 1.0  0.5  0.3991  0.7954
 C26  C 1.0  0.2046  0.0  0.8991
 C26_2  C 1.0  0.8991  0.2046  0.0
 C26_3  C 1.0  0.0  0.8991  0.2046
 C26_4  C 1.0  0.7046  0.0  0.6009
 C26_5  C 1.0  0.3991  0.2046  0.5
 C26_6  C 1.0  0.5  0.8991  0.2954
 C26_7  C 1.0  0.2954  0.5  0.8991
 C26_8  C 1.0  0.6009  0.7046  0.0
 C26_9  C 1.0  0.5  0.3991  0.2046
 C26_10  C 1.0  0.7954  0.5  0.6009
 C26_11  C 1.0  0.1009  0.7046  0.5
 C26_12  C 1.0  0.0  0.3991  0.2954
 C26_13  C 1.0  0.7954  0.0  0.1009
 C26_14  C 1.0  0.1009  0.7954  0.0
 C26_15  C 1.0  0.0  0.1009  0.7954
 C26_16  C 1.0  0.2954  0.0  0.3991
 C26_17  C 1.0  0.6009  0.7954  0.5
 C26_18  C 1.0  0.5  0.1009  0.7046
 C26_19  C 1.0  0.7046  0.5  0.1009
 C26_20  C 1.0  0.3991  0.2954  0.0
 C26_21  C 1.0  0.5  0.6009  0.7954
 C26_22  C 1.0  0.2046  0.5  0.3991
 C26_23  C 1.0  0.8991  0.2954  0.5
 C26_24  C 1.0  0.0  0.6009  0.7046
 C27  C 1.0  0.0  0.2046  0.8991
 C27_2  C 1.0  0.8991  0.0  0.2046
 C27_3  C 1.0  0.2046  0.8991  0.0
 C27_4  C 1.0  0.5  0.2046  0.6009
 C27_5  C 1.0  0.3991  0.0  0.2954
 C27_6  C 1.0  0.7046  0.8991  0.5
 C27_7  C 1.0  0.5  0.7046  0.8991
 C27_8  C 1.0  0.6009  0.5  0.2046
 C27_9  C 1.0  0.2954  0.3991  0.0
 C27_10  C 1.0  0.0  0.7046  0.6009
 C27_11  C 1.0  0.1009  0.5  0.2954
 C27_12  C 1.0  0.7954  0.3991  0.5
 C27_13  C 1.0  0.0  0.7954  0.1009
 C27_14  C 1.0  0.1009  0.0  0.7954
 C27_15  C 1.0  0.7954  0.1009  0.0
 C27_16  C 1.0  0.5  0.7954  0.3991
 C27_17  C 1.0  0.6009  0.0  0.7046
 C27_18  C 1.0  0.2954  0.1009  0.5
 C27_19  C 1.0  0.5  0.2954  0.1009
 C27_20  C 1.0  0.3991  0.5  0.7954
 C27_21  C 1.0  0.7046  0.6009  0.0
 C27_22  C 1.0  0.0  0.2954  0.3991
 C27_23  C 1.0  0.8991  0.5  0.7046
 C27_24  C 1.0  0.2046  0.6009  0.5
 C28  C 1.0  0.0  0.7046  0.3991
 C28_2  C 1.0  0.3991  0.0  0.7046
 C28_3  C 1.0  0.7046  0.3991  0.0
 C28_4  C 1.0  0.5  0.7046  0.1009
 C28_5  C 1.0  0.8991  0.0  0.7954
 C28_6  C 1.0  0.2046  0.3991  0.5
 C28_7  C 1.0  0.5  0.2046  0.3991
 C28_8  C 1.0  0.1009  0.5  0.7046
 C28_9  C 1.0  0.7954  0.8991  0.0
 C28_10  C 1.0  0.0  0.2046  0.1009
 C28_11  C 1.0  0.6009  0.5  0.7954
 C28_12  C 1.0  0.2954  0.8991  0.5
 C28_13  C 1.0  0.0  0.2954  0.6009
 C28_14  C 1.0  0.6009  0.0  0.2954
 C28_15  C 1.0  0.2954  0.6009  0.0
 C28_16  C 1.0  0.5  0.2954  0.8991
 C28_17  C 1.0  0.1009  0.0  0.2046
 C28_18  C 1.0  0.7954  0.6009  0.5
 C28_19  C 1.0  0.5  0.7954  0.6009
 C28_20  C 1.0  0.8991  0.5  0.2954
 C28_21  C 1.0  0.2046  0.1009  0.0
 C28_22  C 1.0  0.0  0.7954  0.8991
 C28_23  C 1.0  0.3991  0.5  0.2046
 C28_24  C 1.0  0.7046  0.1009  0.5
 C29  C 1.0  0.1959  0.0  0.8041
 C29_2  C 1.0  0.8041  0.1959  0.0
 C29_3  C 1.0  0.0  0.8041  0.1959
 C29_4  C 1.0  0.6959  0.0  0.6959
 C29_5  C 1.0  0.3041  0.1959  0.5
 C29_6  C 1.0  0.5  0.8041  0.3041
 C29_7  C 1.0  0.3041  0.5  0.8041
 C29_8  C 1.0  0.6959  0.6959  0.0
 C29_9  C 1.0  0.5  0.3041  0.1959
 C29_10  C 1.0  0.8041  0.5  0.6959
 C29_11  C 1.0  0.1959  0.6959  0.5
 C29_12  C 1.0  0.0  0.3041  0.3041
 C29_13  C 1.0  0.8041  0.0  0.1959
 C29_14  C 1.0  0.1959  0.8041  0.0
 C29_15  C 1.0  0.0  0.1959  0.8041
 C29_16  C 1.0  0.3041  0.0  0.3041
 C29_17  C 1.0  0.6959  0.8041  0.5
 C29_18  C 1.0  0.5  0.1959  0.6959
 C29_19  C 1.0  0.6959  0.5  0.1959
 C29_20  C 1.0  0.3041  0.3041  0.0
 C29_21  C 1.0  0.5  0.6959  0.8041
 C29_22  C 1.0  0.1959  0.5  0.3041
 C29_23  C 1.0  0.8041  0.3041  0.5
 C29_24  C 1.0  0.0  0.6959  0.6959
 C30  C 1.0  0.6959  0.0  0.3041
 C30_2  C 1.0  0.3041  0.6959  0.0
 C30_3  C 1.0  0.0  0.3041  0.6959
 C30_4  C 1.0  0.1959  0.0  0.1959
 C30_5  C 1.0  0.8041  0.6959  0.5
 C30_6  C 1.0  0.5  0.3041  0.8041
 C30_7  C 1.0  0.8041  0.5  0.3041
 C30_8  C 1.0  0.1959  0.1959  0.0
 C30_9  C 1.0  0.5  0.8041  0.6959
 C30_10  C 1.0  0.3041  0.5  0.1959
 C30_11  C 1.0  0.6959  0.1959  0.5
 C30_12  C 1.0  0.0  0.8041  0.8041
 C30_13  C 1.0  0.3041  0.0  0.6959
 C30_14  C 1.0  0.6959  0.3041  0.0
 C30_15  C 1.0  0.0  0.6959  0.3041
 C30_16  C 1.0  0.8041  0.0  0.8041
 C30_17  C 1.0  0.1959  0.3041  0.5
 C30_18  C 1.0  0.5  0.6959  0.1959
 C30_19  C 1.0  0.1959  0.5  0.6959
 C30_20  C 1.0  0.8041  0.8041  0.0
 C30_21  C 1.0  0.5  0.1959  0.3041
 C30_22  C 1.0  0.6959  0.5  0.8041
 C30_23  C 1.0  0.3041  0.8041  0.5
 C30_24  C 1.0  0.0  0.1959  0.1959
 C31  C 1.0  0.5259  0.7935  0.2935
 C31_2  C 1.0  0.2935  0.5259  0.7935
 C31_3  C 1.0  0.7935  0.2935  0.5259
 C31_4  C 1.0  0.0259  0.7935  0.2065
 C31_5  C 1.0  0.7935  0.5259  0.7065
 C31_6  C 1.0  0.2935  0.2935  0.9741
 C31_7  C 1.0  0.9741  0.2935  0.2935
 C31_8  C 1.0  0.2065  0.0259  0.7935
 C31_9  C 1.0  0.7065  0.7935  0.5259
 C31_10  C 1.0  0.4741  0.2935  0.2065
 C31_11  C 1.0  0.7065  0.0259  0.7065
 C31_12  C 1.0  0.2065  0.7935  0.9741
 C31_13  C 1.0  0.4741  0.2065  0.7065
 C31_14  C 1.0  0.7065  0.4741  0.2065
 C31_15  C 1.0  0.2065  0.7065  0.4741
 C31_16  C 1.0  0.9741  0.2065  0.7935
 C31_17  C 1.0  0.2065  0.4741  0.2935
 C31_18  C 1.0  0.7065  0.7065  0.0259
 C31_19  C 1.0  0.0259  0.7065  0.7065
 C31_20  C 1.0  0.7935  0.9741  0.2065
 C31_21  C 1.0  0.2935  0.2065  0.4741
 C31_22  C 1.0  0.5259  0.7065  0.7935
 C31_23  C 1.0  0.2935  0.9741  0.2935
 C31_24  C 1.0  0.7935  0.2065  0.0259
 C32  C 1.0  0.9741  0.7065  0.2935
 C32_2  C 1.0  0.2935  0.9741  0.7065
 C32_3  C 1.0  0.7065  0.2935  0.9741
 C32_4  C 1.0  0.4741  0.7065  0.2065
 C32_5  C 1.0  0.7935  0.9741  0.7935
 C32_6  C 1.0  0.2065  0.2935  0.5259
 C32_7  C 1.0  0.5259  0.2065  0.2935
 C32_8  C 1.0  0.2065  0.4741  0.7065
 C32_9  C 1.0  0.7935  0.7935  0.9741
 C32_10  C 1.0  0.0259  0.2065  0.2065
 C32_11  C 1.0  0.7065  0.4741  0.7935
 C32_12  C 1.0  0.2935  0.7935  0.5259
 C32_13  C 1.0  0.0259  0.2935  0.7065
 C32_14  C 1.0  0.7065  0.0259  0.2935
 C32_15  C 1.0  0.2935  0.7065  0.0259
 C32_16  C 1.0  0.5259  0.2935  0.7935
 C32_17  C 1.0  0.2065  0.0259  0.2065
 C32_18  C 1.0  0.7935  0.7065  0.4741
 C32_19  C 1.0  0.4741  0.7935  0.7065
 C32_20  C 1.0  0.7935  0.5259  0.2935
 C32_21  C 1.0  0.2065  0.2065  0.0259
 C32_22  C 1.0  0.9741  0.7935  0.7935
 C32_23  C 1.0  0.2935  0.5259  0.2065
 C32_24  C 1.0  0.7065  0.2065  0.4741
 C33  C 1.0  0.4741  0.7065  0.7935
 C33_2  C 1.0  0.7935  0.4741  0.7065
 C33_3  C 1.0  0.7065  0.7935  0.4741
 C33_4  C 1.0  0.9741  0.7065  0.7065
 C33_5  C 1.0  0.2935  0.4741  0.7935
 C33_6  C 1.0  0.2065  0.7935  0.0259
 C33_7  C 1.0  0.0259  0.2065  0.7935
 C33_8  C 1.0  0.7065  0.9741  0.7065
 C33_9  C 1.0  0.7935  0.2935  0.4741
 C33_10  C 1.0  0.5259  0.2065  0.7065
 C33_11  C 1.0  0.2065  0.9741  0.7935
 C33_12  C 1.0  0.2935  0.2935  0.0259
 C33_13  C 1.0  0.5259  0.2935  0.2065
 C33_14  C 1.0  0.2065  0.5259  0.2935
 C33_15  C 1.0  0.2935  0.2065  0.5259
 C33_16  C 1.0  0.0259  0.2935  0.2935
 C33_17  C 1.0  0.7065  0.5259  0.2065
 C33_18  C 1.0  0.7935  0.2065  0.9741
 C33_19  C 1.0  0.9741  0.7935  0.2065
 C33_20  C 1.0  0.2935  0.0259  0.2935
 C33_21  C 1.0  0.2065  0.7065  0.5259
 C33_22  C 1.0  0.4741  0.7935  0.2935
 C33_23  C 1.0  0.7935  0.0259  0.2065
 C33_24  C 1.0  0.7065  0.7065  0.9741
 C34  C 1.0  0.4741  0.2065  0.2935
 C34_2  C 1.0  0.2935  0.4741  0.2065
 C34_3  C 1.0  0.2065  0.2935  0.4741
 C34_4  C 1.0  0.9741  0.2065  0.2065
 C34_5  C 1.0  0.7935  0.4741  0.2935
 C34_6  C 1.0  0.7065  0.2935  0.0259
 C34_7  C 1.0  0.0259  0.7065  0.2935
 C34_8  C 1.0  0.2065  0.9741  0.2065
 C34_9  C 1.0  0.2935  0.7935  0.4741
 C34_10  C 1.0  0.5259  0.7065  0.2065
 C34_11  C 1.0  0.7065  0.9741  0.2935
 C34_12  C 1.0  0.7935  0.7935  0.0259
 C34_13  C 1.0  0.5259  0.7935  0.7065
 C34_14  C 1.0  0.7065  0.5259  0.7935
 C34_15  C 1.0  0.7935  0.7065  0.5259
 C34_16  C 1.0  0.0259  0.7935  0.7935
 C34_17  C 1.0  0.2065  0.5259  0.7065
 C34_18  C 1.0  0.2935  0.7065  0.9741
 C34_19  C 1.0  0.9741  0.2935  0.7065
 C34_20  C 1.0  0.7935  0.0259  0.7935
 C34_21  C 1.0  0.7065  0.2065  0.5259
 C34_22  C 1.0  0.4741  0.2935  0.7935
 C34_23  C 1.0  0.2935  0.0259  0.7065
 C34_24  C 1.0  0.2065  0.2065  0.9741
 C35  C 1.0  0.9742  0.2276  0.7724
 C35_2  C 1.0  0.7724  0.9742  0.2276
 C35_3  C 1.0  0.2276  0.7724  0.9742
 C35_4  C 1.0  0.4742  0.2276  0.7276
 C35_5  C 1.0  0.2724  0.9742  0.2724
 C35_6  C 1.0  0.7276  0.7724  0.5258
 C35_7  C 1.0  0.5258  0.7276  0.7724
 C35_8  C 1.0  0.7276  0.4742  0.2276
 C35_9  C 1.0  0.2724  0.2724  0.9742
 C35_10  C 1.0  0.0258  0.7276  0.7276
 C35_11  C 1.0  0.2276  0.4742  0.2724
 C35_12  C 1.0  0.7724  0.2724  0.5258
 C35_13  C 1.0  0.0258  0.7724  0.2276
 C35_14  C 1.0  0.2276  0.0258  0.7724
 C35_15  C 1.0  0.7724  0.2276  0.0258
 C35_16  C 1.0  0.5258  0.7724  0.2724
 C35_17  C 1.0  0.7276  0.0258  0.7276
 C35_18  C 1.0  0.2724  0.2276  0.4742
 C35_19  C 1.0  0.4742  0.2724  0.2276
 C35_20  C 1.0  0.2724  0.5258  0.7724
 C35_21  C 1.0  0.7276  0.7276  0.0258
 C35_22  C 1.0  0.9742  0.2724  0.2724
 C35_23  C 1.0  0.7724  0.5258  0.7276
 C35_24  C 1.0  0.2276  0.7276  0.4742
 C36  C 1.0  0.2276  0.9742  0.7724
 C36_2  C 1.0  0.7724  0.2276  0.9742
 C36_3  C 1.0  0.9742  0.7724  0.2276
 C36_4  C 1.0  0.7276  0.9742  0.7276
 C36_5  C 1.0  0.2724  0.2276  0.5258
 C36_6  C 1.0  0.4742  0.7724  0.2724
 C36_7  C 1.0  0.2724  0.4742  0.7724
 C36_8  C 1.0  0.7276  0.7276  0.9742
 C36_9  C 1.0  0.5258  0.2724  0.2276
 C36_10  C 1.0  0.7724  0.4742  0.7276
 C36_11  C 1.0  0.2276  0.7276  0.5258
 C36_12  C 1.0  0.0258  0.2724  0.2724
 C36_13  C 1.0  0.7724  0.0258  0.2276
 C36_14  C 1.0  0.2276  0.7724  0.0258
 C36_15  C 1.0  0.0258  0.2276  0.7724
 C36_16  C 1.0  0.2724  0.0258  0.2724
 C36_17  C 1.0  0.7276  0.7724  0.4742
 C36_18  C 1.0  0.5258  0.2276  0.7276
 C36_19  C 1.0  0.7276  0.5258  0.2276
 C36_20  C 1.0  0.2724  0.2724  0.0258
 C36_21  C 1.0  0.4742  0.7276  0.7724
 C36_22  C 1.0  0.2276  0.5258  0.2724
 C36_23  C 1.0  0.7724  0.2724  0.4742
 C36_24  C 1.0  0.9742  0.7276  0.7276
 C37  C 1.0  0.7276  0.4742  0.7724
 C37_2  C 1.0  0.7724  0.7276  0.4742
 C37_3  C 1.0  0.4742  0.7724  0.7276
 C37_4  C 1.0  0.2276  0.4742  0.7276
 C37_5  C 1.0  0.2724  0.7276  0.0258
 C37_6  C 1.0  0.9742  0.7724  0.7724
 C37_7  C 1.0  0.7724  0.9742  0.7724
 C37_8  C 1.0  0.7276  0.2276  0.4742
 C37_9  C 1.0  0.0258  0.2724  0.7276
 C37_10  C 1.0  0.2724  0.9742  0.7276
 C37_11  C 1.0  0.2276  0.2276  0.0258
 C37_12  C 1.0  0.5258  0.2724  0.7724
 C37_13  C 1.0  0.2724  0.5258  0.2276
 C37_14  C 1.0  0.2276  0.2724  0.5258
 C37_15  C 1.0  0.5258  0.2276  0.2724
 C37_16  C 1.0  0.7724  0.5258  0.2724
 C37_17  C 1.0  0.7276  0.2724  0.9742
 C37_18  C 1.0  0.0258  0.2276  0.2276
 C37_19  C 1.0  0.2276  0.0258  0.2276
 C37_20  C 1.0  0.2724  0.7724  0.5258
 C37_21  C 1.0  0.9742  0.7276  0.2724
 C37_22  C 1.0  0.7276  0.0258  0.2724
 C37_23  C 1.0  0.7724  0.7724  0.9742
 C37_24  C 1.0  0.4742  0.7276  0.2276
 C38  C 1.0  0.7276  0.9742  0.2724
 C38_2  C 1.0  0.2724  0.7276  0.9742
 C38_3  C 1.0  0.9742  0.2724  0.7276
 C38_4  C 1.0  0.2276  0.9742  0.2276
 C38_5  C 1.0  0.7724  0.7276  0.5258
 C38_6  C 1.0  0.4742  0.2724  0.7724
 C38_7  C 1.0  0.7724  0.4742  0.2724
 C38_8  C 1.0  0.2276  0.2276  0.9742
 C38_9  C 1.0  0.5258  0.7724  0.7276
 C38_10  C 1.0  0.2724  0.4742  0.2276
 C38_11  C 1.0  0.7276  0.2276  0.5258
 C38_12  C 1.0  0.0258  0.7724  0.7724
 C38_13  C 1.0  0.2724  0.0258  0.7276
 C38_14  C 1.0  0.7276  0.2724  0.0258
 C38_15  C 1.0  0.0258  0.7276  0.2724
 C38_16  C 1.0  0.7724  0.0258  0.7724
 C38_17  C 1.0  0.2276  0.2724  0.4742
 C38_18  C 1.0  0.5258  0.7276  0.2276
 C38_19  C 1.0  0.2276  0.5258  0.7276
 C38_20  C 1.0  0.7724  0.7724  0.0258
 C38_21  C 1.0  0.4742  0.2276  0.2724
 C38_22  C 1.0  0.7276  0.5258  0.7724
 C38_23  C 1.0  0.2724  0.7724  0.4742
 C38_24  C 1.0  0.9742  0.2276  0.2276
 C39  C 1.0  0.7612  0.5  0.7388
 C39_2  C 1.0  0.7388  0.7612  0.5
 C39_3  C 1.0  0.5  0.7388  0.7612
 C39_4  C 1.0  0.2612  0.5  0.7612
 C39_5  C 1.0  0.2388  0.7612  0.0
 C39_6  C 1.0  0.0  0.7388  0.7388
 C39_7  C 1.0  0.7388  0.0  0.7388
 C39_8  C 1.0  0.7612  0.2612  0.5
 C39_9  C 1.0  0.0  0.2388  0.7612
 C39_10  C 1.0  0.2388  0.0  0.7612
 C39_11  C 1.0  0.2612  0.2612  0.0
 C39_12  C 1.0  0.5  0.2388  0.7388
 C39_13  C 1.0  0.2388  0.5  0.2612
 C39_14  C 1.0  0.2612  0.2388  0.5
 C39_15  C 1.0  0.5  0.2612  0.2388
 C39_16  C 1.0  0.7388  0.5  0.2388
 C39_17  C 1.0  0.7612  0.2388  0.0
 C39_18  C 1.0  0.0  0.2612  0.2612
 C39_19  C 1.0  0.2612  0.0  0.2612
 C39_20  C 1.0  0.2388  0.7388  0.5
 C39_21  C 1.0  0.0  0.7612  0.2388
 C39_22  C 1.0  0.7612  0.0  0.2388
 C39_23  C 1.0  0.7388  0.7388  0.0
 C39_24  C 1.0  0.5  0.7612  0.2612
 C40  C 1.0  0.7388  0.2612  0.0
 C40_2  C 1.0  0.0  0.7388  0.2612
 C40_3  C 1.0  0.2612  0.0  0.7388
 C40_4  C 1.0  0.2388  0.2612  0.5
 C40_5  C 1.0  0.5  0.7388  0.2388
 C40_6  C 1.0  0.7612  0.0  0.7612
 C40_7  C 1.0  0.7612  0.7612  0.0
 C40_8  C 1.0  0.5  0.2388  0.2612
 C40_9  C 1.0  0.2388  0.5  0.7388
 C40_10  C 1.0  0.2612  0.7612  0.5
 C40_11  C 1.0  0.0  0.2388  0.2388
 C40_12  C 1.0  0.7388  0.5  0.7612
 C40_13  C 1.0  0.2612  0.7388  0.0
 C40_14  C 1.0  0.0  0.2612  0.7388
 C40_15  C 1.0  0.7388  0.0  0.2612
 C40_16  C 1.0  0.7612  0.7388  0.5
 C40_17  C 1.0  0.5  0.2612  0.7612
 C40_18  C 1.0  0.2388  0.0  0.2388
 C40_19  C 1.0  0.2388  0.2388  0.0
 C40_20  C 1.0  0.5  0.7612  0.7388
 C40_21  C 1.0  0.7612  0.5  0.2612
 C40_22  C 1.0  0.7388  0.2388  0.5
 C40_23  C 1.0  0.0  0.7612  0.7612
 C40_24  C 1.0  0.2612  0.5  0.2388
 Cu1  Cu 1.0  0.0  0.5  0.6524
 Cu1_2  Cu 1.0  0.6524  0.0  0.5
 Cu1_3  Cu 1.0  0.5  0.6524  0.0
 Cu1_4  Cu 1.0  0.5  0.5  0.8476
 Cu1_5  Cu 1.0  0.1524  0.0  0.0
 Cu1_6  Cu 1.0  0.0  0.6524  0.5
 Cu1_7  Cu 1.0  0.5  0.0  0.6524
 Cu1_8  Cu 1.0  0.8476  0.5  0.5
 Cu1_9  Cu 1.0  0.0  0.1524  0.0
 Cu1_10  Cu 1.0  0.0  0.0  0.8476
 Cu1_11  Cu 1.0  0.3476  0.5  0.0
 Cu1_12  Cu 1.0  0.5  0.1524  0.5
 Cu1_13  Cu 1.0  0.0  0.5  0.3476
 Cu1_14  Cu 1.0  0.3476  0.0  0.5
 Cu1_15  Cu 1.0  0.5  0.3476  0.0
 Cu1_16  Cu 1.0  0.5  0.5  0.1524
 Cu1_17  Cu 1.0  0.8476  0.0  0.0
 Cu1_18  Cu 1.0  0.0  0.3476  0.5
 Cu1_19  Cu 1.0  0.5  0.0  0.3476
 Cu1_20  Cu 1.0  0.1524  0.5  0.5
 Cu1_21  Cu 1.0  0.0  0.8476  0.0
 Cu1_22  Cu 1.0  0.0  0.0  0.1524
 Cu1_23  Cu 1.0  0.6524  0.5  0.0
 Cu1_24  Cu 1.0  0.5  0.8476  0.5
 Cu2  Cu 1.0  0.2039  0.0  0.0
 Cu2_2  Cu 1.0  0.0  0.2039  0.0
 Cu2_3  Cu 1.0  0.0  0.0  0.2039
 Cu2_4  Cu 1.0  0.7039  0.0  0.5
 Cu2_5  Cu 1.0  0.5  0.2039  0.5
 Cu2_6  Cu 1.0  0.5  0.0  0.2961
 Cu2_7  Cu 1.0  0.2961  0.5  0.0
 Cu2_8  Cu 1.0  0.5  0.7039  0.0
 Cu2_9  Cu 1.0  0.5  0.5  0.2039
 Cu2_10  Cu 1.0  0.7961  0.5  0.5
 Cu2_11  Cu 1.0  0.0  0.7039  0.5
 Cu2_12  Cu 1.0  0.0  0.5  0.2961
 Cu2_13  Cu 1.0  0.7961  0.0  0.0
 Cu2_14  Cu 1.0  0.0  0.7961  0.0
 Cu2_15  Cu 1.0  0.0  0.0  0.7961
 Cu2_16  Cu 1.0  0.2961  0.0  0.5
 Cu2_17  Cu 1.0  0.5  0.7961  0.5
 Cu2_18  Cu 1.0  0.5  0.0  0.7039
 Cu2_19  Cu 1.0  0.7039  0.5  0.0
 Cu2_20  Cu 1.0  0.5  0.2961  0.0
 Cu2_21  Cu 1.0  0.5  0.5  0.7961
 Cu2_22  Cu 1.0  0.2039  0.5  0.5
 Cu2_23  Cu 1.0  0.0  0.2961  0.5
 Cu2_24  Cu 1.0  0.0  0.5  0.7039
 H1  H 1.0  0.2645  0.7645  0.5465
 H1_2  H 1.0  0.5465  0.2645  0.7645
 H1_3  H 1.0  0.7645  0.5465  0.2645
 H1_4  H 1.0  0.7645  0.7645  0.9535
 H1_5  H 1.0  0.0465  0.2645  0.7355
 H1_6  H 1.0  0.2645  0.5465  0.2355
 H1_7  H 1.0  0.2355  0.2645  0.5465
 H1_8  H 1.0  0.9535  0.7645  0.7645
 H1_9  H 1.0  0.7355  0.0465  0.2645
 H1_10  H 1.0  0.7355  0.2645  0.9535
 H1_11  H 1.0  0.4535  0.7645  0.7355
 H1_12  H 1.0  0.2355  0.0465  0.2355
 H1_13  H 1.0  0.7355  0.2355  0.4535
 H1_14  H 1.0  0.4535  0.7355  0.2355
 H1_15  H 1.0  0.2355  0.4535  0.7355
 H1_16  H 1.0  0.2355  0.2355  0.0465
 H1_17  H 1.0  0.9535  0.7355  0.2645
 H1_18  H 1.0  0.7355  0.4535  0.7645
 H1_19  H 1.0  0.7645  0.7355  0.4535
 H1_20  H 1.0  0.0465  0.2355  0.2355
 H1_21  H 1.0  0.2645  0.9535  0.7355
 H1_22  H 1.0  0.2645  0.7355  0.0465
 H1_23  H 1.0  0.5465  0.2355  0.2645
 H1_24  H 1.0  0.7645  0.9535  0.7645
 H2  H 1.0  0.2355  0.0465  0.7645
 H2_2  H 1.0  0.7645  0.2355  0.0465
 H2_3  H 1.0  0.0465  0.7645  0.2355
 H2_4  H 1.0  0.7355  0.0465  0.7355
 H2_5  H 1.0  0.2645  0.2355  0.4535
 H2_6  H 1.0  0.5465  0.7645  0.2645
 H2_7  H 1.0  0.2645  0.5465  0.7645
 H2_8  H 1.0  0.7355  0.7355  0.0465
 H2_9  H 1.0  0.4535  0.2645  0.2355
 H2_10  H 1.0  0.7645  0.5465  0.7355
 H2_11  H 1.0  0.2355  0.7355  0.4535
 H2_12  H 1.0  0.9535  0.2645  0.2645
 H2_13  H 1.0  0.7645  0.9535  0.2355
 H2_14  H 1.0  0.2355  0.7645  0.9535
 H2_15  H 1.0  0.9535  0.2355  0.7645
 H2_16  H 1.0  0.2645  0.9535  0.2645
 H2_17  H 1.0  0.7355  0.7645  0.5465
 H2_18  H 1.0  0.4535  0.2355  0.7355
 H2_19  H 1.0  0.7355  0.4535  0.2355
 H2_20  H 1.0  0.2645  0.2645  0.9535
 H2_21  H 1.0  0.5465  0.7355  0.7645
 H2_22  H 1.0  0.2355  0.4535  0.2645
 H2_23  H 1.0  0.7645  0.2645  0.5465
 H2_24  H 1.0  0.0465  0.7355  0.7355
 H3  H 1.0  0.2355  0.5465  0.2645
 H3_2  H 1.0  0.2645  0.2355  0.5465
 H3_3  H 1.0  0.5465  0.2645  0.2355
 H3_4  H 1.0  0.7355  0.5465  0.2355
 H3_5  H 1.0  0.7645  0.2355  0.9535
 H3_6  H 1.0  0.0465  0.2645  0.2645
 H3_7  H 1.0  0.2645  0.0465  0.2645
 H3_8  H 1.0  0.2355  0.7355  0.5465
 H3_9  H 1.0  0.9535  0.7645  0.2355
 H3_10  H 1.0  0.7645  0.0465  0.2355
 H3_11  H 1.0  0.7355  0.7355  0.9535
 H3_12  H 1.0  0.4535  0.7645  0.2645
 H3_13  H 1.0  0.7645  0.4535  0.7355
 H3_14  H 1.0  0.7355  0.7645  0.4535
 H3_15  H 1.0  0.4535  0.7355  0.7645
 H3_16  H 1.0  0.2645  0.4535  0.7645
 H3_17  H 1.0  0.2355  0.7645  0.0465
 H3_18  H 1.0  0.9535  0.7355  0.7355
 H3_19  H 1.0  0.7355  0.9535  0.7355
 H3_20  H 1.0  0.7645  0.2645  0.4535
 H3_21  H 1.0  0.0465  0.2355  0.7645
 H3_22  H 1.0  0.2355  0.9535  0.7645
 H3_23  H 1.0  0.2645  0.2645  0.0465
 H3_24  H 1.0  0.5465  0.2355  0.7355
 H4  H 1.0  0.7355  0.5465  0.7645
 H4_2  H 1.0  0.7645  0.7355  0.5465
 H4_3  H 1.0  0.5465  0.7645  0.7355
 H4_4  H 1.0  0.2355  0.5465  0.7355
 H4_5  H 1.0  0.2645  0.7355  0.9535
 H4_6  H 1.0  0.0465  0.7645  0.7645
 H4_7  H 1.0  0.7645  0.0465  0.7645
 H4_8  H 1.0  0.7355  0.2355  0.5465
 H4_9  H 1.0  0.9535  0.2645  0.7355
 H4_10  H 1.0  0.2645  0.0465  0.7355
 H4_11  H 1.0  0.2355  0.2355  0.9535
 H4_12  H 1.0  0.4535  0.2645  0.7645
 H4_13  H 1.0  0.2645  0.4535  0.2355
 H4_14  H 1.0  0.2355  0.2645  0.4535
 H4_15  H 1.0  0.4535  0.2355  0.2645
 H4_16  H 1.0  0.7645  0.4535  0.2645
 H4_17  H 1.0  0.7355  0.2645  0.0465
 H4_18  H 1.0  0.9535  0.2355  0.2355
 H4_19  H 1.0  0.2355  0.9535  0.2355
 H4_20  H 1.0  0.2645  0.7645  0.4535
 H4_21  H 1.0  0.0465  0.7355  0.2645
 H4_22  H 1.0  0.7355  0.9535  0.2645
 H4_23  H 1.0  0.7645  0.7645  0.0465
 H4_24  H 1.0  0.5465  0.7355  0.2355
 H5  H 1.0  0.8679  0.0  0.9113
 H5_2  H 1.0  0.9113  0.8679  0.0
 H5_3  H 1.0  0.0  0.9113  0.8679
 H5_4  H 1.0  0.3679  0.0  0.5887
 H5_5  H 1.0  0.4113  0.8679  0.5
 H5_6  H 1.0  0.5  0.9113  0.6321
 H5_7  H 1.0  0.6321  0.5  0.9113
 H5_8  H 1.0  0.5887  0.3679  0.0
 H5_9  H 1.0  0.5  0.4113  0.8679
 H5_10  H 1.0  0.1321  0.5  0.5887
 H5_11  H 1.0  0.0887  0.3679  0.5
 H5_12  H 1.0  0.0  0.4113  0.6321
 H5_13  H 1.0  0.1321  0.0  0.0887
 H5_14  H 1.0  0.0887  0.1321  0.0
 H5_15  H 1.0  0.0  0.0887  0.1321
 H5_16  H 1.0  0.6321  0.0  0.4113
 H5_17  H 1.0  0.5887  0.1321  0.5
 H5_18  H 1.0  0.5  0.0887  0.3679
 H5_19  H 1.0  0.3679  0.5  0.0887
 H5_20  H 1.0  0.4113  0.6321  0.0
 H5_21  H 1.0  0.5  0.5887  0.1321
 H5_22  H 1.0  0.8679  0.5  0.4113
 H5_23  H 1.0  0.9113  0.6321  0.5
 H5_24  H 1.0  0.0  0.5887  0.3679
 H6  H 1.0  0.0887  0.0  0.8679
 H6_2  H 1.0  0.8679  0.0887  0.0
 H6_3  H 1.0  0.0  0.8679  0.0887
 H6_4  H 1.0  0.5887  0.0  0.6321
 H6_5  H 1.0  0.3679  0.0887  0.5
 H6_6  H 1.0  0.5  0.8679  0.4113
 H6_7  H 1.0  0.4113  0.5  0.8679
 H6_8  H 1.0  0.6321  0.5887  0.0
 H6_9  H 1.0  0.5  0.3679  0.0887
 H6_10  H 1.0  0.9113  0.5  0.6321
 H6_11  H 1.0  0.1321  0.5887  0.5
 H6_12  H 1.0  0.0  0.3679  0.4113
 H6_13  H 1.0  0.9113  0.0  0.1321
 H6_14  H 1.0  0.1321  0.9113  0.0
 H6_15  H 1.0  0.0  0.1321  0.9113
 H6_16  H 1.0  0.4113  0.0  0.3679
 H6_17  H 1.0  0.6321  0.9113  0.5
 H6_18  H 1.0  0.5  0.1321  0.5887
 H6_19  H 1.0  0.5887  0.5  0.1321
 H6_20  H 1.0  0.3679  0.4113  0.0
 H6_21  H 1.0  0.5  0.6321  0.9113
 H6_22  H 1.0  0.0887  0.5  0.3679
 H6_23  H 1.0  0.8679  0.4113  0.5
 H6_24  H 1.0  0.0  0.6321  0.5887
 H7  H 1.0  0.5887  0.5  0.8679
 H7_2  H 1.0  0.8679  0.5887  0.5
 H7_3  H 1.0  0.5  0.8679  0.5887
 H7_4  H 1.0  0.0887  0.5  0.6321
 H7_5  H 1.0  0.3679  0.5887  0.0
 H7_6  H 1.0  0.0  0.8679  0.9113
 H7_7  H 1.0  0.9113  0.0  0.8679
 H7_8  H 1.0  0.6321  0.0887  0.5
 H7_9  H 1.0  0.0  0.3679  0.5887
 H7_10  H 1.0  0.4113  0.0  0.6321
 H7_11  H 1.0  0.1321  0.0887  0.0
 H7_12  H 1.0  0.5  0.3679  0.9113
 H7_13  H 1.0  0.4113  0.5  0.1321
 H7_14  H 1.0  0.1321  0.4113  0.5
 H7_15  H 1.0  0.5  0.1321  0.4113
 H7_16  H 1.0  0.9113  0.5  0.3679
 H7_17  H 1.0  0.6321  0.4113  0.0
 H7_18  H 1.0  0.0  0.1321  0.0887
 H7_19  H 1.0  0.0887  0.0  0.1321
 H7_20  H 1.0  0.3679  0.9113  0.5
 H7_21  H 1.0  0.0  0.6321  0.4113
 H7_22  H 1.0  0.5887  0.0  0.3679
 H7_23  H 1.0  0.8679  0.9113  0.0
 H7_24  H 1.0  0.5  0.6321  0.0887
 H8  H 1.0  0.0  0.0887  0.8679
 H8_2  H 1.0  0.8679  0.0  0.0887
 H8_3  H 1.0  0.0887  0.8679  0.0
 H8_4  H 1.0  0.5  0.0887  0.6321
 H8_5  H 1.0  0.3679  0.0  0.4113
 H8_6  H 1.0  0.5887  0.8679  0.5
 H8_7  H 1.0  0.5  0.5887  0.8679
 H8_8  H 1.0  0.6321  0.5  0.0887
 H8_9  H 1.0  0.4113  0.3679  0.0
 H8_10  H 1.0  0.0  0.5887  0.6321
 H8_11  H 1.0  0.1321  0.5  0.4113
 H8_12  H 1.0  0.9113  0.3679  0.5
 H8_13  H 1.0  0.0  0.9113  0.1321
 H8_14  H 1.0  0.1321  0.0  0.9113
 H8_15  H 1.0  0.9113  0.1321  0.0
 H8_16  H 1.0  0.5  0.9113  0.3679
 H8_17  H 1.0  0.6321  0.0  0.5887
 H8_18  H 1.0  0.4113  0.1321  0.5
 H8_19  H 1.0  0.5  0.4113  0.1321
 H8_20  H 1.0  0.3679  0.5  0.9113
 H8_21  H 1.0  0.5887  0.6321  0.0
 H8_22  H 1.0  0.0  0.4113  0.3679
 H8_23  H 1.0  0.8679  0.5  0.5887
 H8_24  H 1.0  0.0887  0.6321  0.5
 H9  H 1.0  0.2741  0.8576  0.5
 H9_2  H 1.0  0.5  0.2741  0.8576
 H9_3  H 1.0  0.8576  0.5  0.2741
 H9_4  H 1.0  0.7741  0.8576  0.0
 H9_5  H 1.0  0.0  0.2741  0.6424
 H9_6  H 1.0  0.3576  0.5  0.2259
 H9_7  H 1.0  0.2259  0.3576  0.5
 H9_8  H 1.0  0.0  0.7741  0.8576
 H9_9  H 1.0  0.6424  0.0  0.2741
 H9_10  H 1.0  0.7259  0.3576  0.0
 H9_11  H 1.0  0.5  0.7741  0.6424
 H9_12  H 1.0  0.1424  0.0  0.2259
 H9_13  H 1.0  0.7259  0.1424  0.5
 H9_14  H 1.0  0.5  0.7259  0.1424
 H9_15  H 1.0  0.1424  0.5  0.7259
 H9_16  H 1.0  0.2259  0.1424  0.0
 H9_17  H 1.0  0.0  0.7259  0.3576
 H9_18  H 1.0  0.6424  0.5  0.7741
 H9_19  H 1.0  0.7741  0.6424  0.5
 H9_20  H 1.0  0.0  0.2259  0.1424
 H9_21  H 1.0  0.3576  0.0  0.7259
 H9_22  H 1.0  0.2741  0.6424  0.0
 H9_23  H 1.0  0.5  0.2259  0.3576
 H9_24  H 1.0  0.8576  0.0  0.7741
 H10  H 1.0  0.2259  0.5  0.3576
 H10_2  H 1.0  0.3576  0.2259  0.5
 H10_3  H 1.0  0.5  0.3576  0.2259
 H10_4  H 1.0  0.7259  0.5  0.1424
 H10_5  H 1.0  0.8576  0.2259  0.0
 H10_6  H 1.0  0.0  0.3576  0.2741
 H10_7  H 1.0  0.2741  0.0  0.3576
 H10_8  H 1.0  0.1424  0.7259  0.5
 H10_9  H 1.0  0.0  0.8576  0.2259
 H10_10  H 1.0  0.7741  0.0  0.1424
 H10_11  H 1.0  0.6424  0.7259  0.0
 H10_12  H 1.0  0.5  0.8576  0.2741
 H10_13  H 1.0  0.7741  0.5  0.6424
 H10_14  H 1.0  0.6424  0.7741  0.5
 H10_15  H 1.0  0.5  0.6424  0.7741
 H10_16  H 1.0  0.2741  0.5  0.8576
 H10_17  H 1.0  0.1424  0.7741  0.0
 H10_18  H 1.0  0.0  0.6424  0.7259
 H10_19  H 1.0  0.7259  0.0  0.6424
 H10_20  H 1.0  0.8576  0.2741  0.5
 H10_21  H 1.0  0.0  0.1424  0.7741
 H10_22  H 1.0  0.2259  0.0  0.8576
 H10_23  H 1.0  0.3576  0.2741  0.0
 H10_24  H 1.0  0.5  0.1424  0.7259
 H11  H 1.0  0.7259  0.5  0.8576
 H11_2  H 1.0  0.8576  0.7259  0.5
 H11_3  H 1.0  0.5  0.8576  0.7259
 H11_4  H 1.0  0.2259  0.5  0.6424
 H11_5  H 1.0  0.3576  0.7259  0.0
 H11_6  H 1.0  0.0  0.8576  0.7741
 H11_7  H 1.0  0.7741  0.0  0.8576
 H11_8  H 1.0  0.6424  0.2259  0.5
 H11_9  H 1.0  0.0  0.3576  0.7259
 H11_10  H 1.0  0.2741  0.0  0.6424
 H11_11  H 1.0  0.1424  0.2259  0.0
 H11_12  H 1.0  0.5  0.3576  0.7741
 H11_13  H 1.0  0.2741  0.5  0.1424
 H11_14  H 1.0  0.1424  0.2741  0.5
 H11_15  H 1.0  0.5  0.1424  0.2741
 H11_16  H 1.0  0.7741  0.5  0.3576
 H11_17  H 1.0  0.6424  0.2741  0.0
 H11_18  H 1.0  0.0  0.1424  0.2259
 H11_19  H 1.0  0.2259  0.0  0.1424
 H11_20  H 1.0  0.3576  0.7741  0.5
 H11_21  H 1.0  0.0  0.6424  0.2741
 H11_22  H 1.0  0.7259  0.0  0.3576
 H11_23  H 1.0  0.8576  0.7741  0.0
 H11_24  H 1.0  0.5  0.6424  0.2259
 H12  H 1.0  0.0  0.2259  0.8576
 H12_2  H 1.0  0.8576  0.0  0.2259
 H12_3  H 1.0  0.2259  0.8576  0.0
 H12_4  H 1.0  0.5  0.2259  0.6424
 H12_5  H 1.0  0.3576  0.0  0.2741
 H12_6  H 1.0  0.7259  0.8576  0.5
 H12_7  H 1.0  0.5  0.7259  0.8576
 H12_8  H 1.0  0.6424  0.5  0.2259
 H12_9  H 1.0  0.2741  0.3576  0.0
 H12_10  H 1.0  0.0  0.7259  0.6424
 H12_11  H 1.0  0.1424  0.5  0.2741
 H12_12  H 1.0  0.7741  0.3576  0.5
 H12_13  H 1.0  0.0  0.7741  0.1424
 H12_14  H 1.0  0.1424  0.0  0.7741
 H12_15  H 1.0  0.7741  0.1424  0.0
 H12_16  H 1.0  0.5  0.7741  0.3576
 H12_17  H 1.0  0.6424  0.0  0.7259
 H12_18  H 1.0  0.2741  0.1424  0.5
 H12_19  H 1.0  0.5  0.2741  0.1424
 H12_20  H 1.0  0.3576  0.5  0.7741
 H12_21  H 1.0  0.7259  0.6424  0.0
 H12_22  H 1.0  0.0  0.2741  0.3576
 H12_23  H 1.0  0.8576  0.5  0.7259
 H12_24  H 1.0  0.2259  0.6424  0.5
 H13  H 1.0  0.0882  0.2243  0.0
 H13_2  H 1.0  0.0  0.0882  0.2243
 H13_3  H 1.0  0.2243  0.0  0.0882
 H13_4  H 1.0  0.5882  0.2243  0.5
 H13_5  H 1.0  0.5  0.0882  0.2757
 H13_6  H 1.0  0.7243  0.0  0.4118
 H13_7  H 1.0  0.4118  0.7243  0.0
 H13_8  H 1.0  0.5  0.5882  0.2243
 H13_9  H 1.0  0.2757  0.5  0.0882
 H13_10  H 1.0  0.9118  0.7243  0.5
 H13_11  H 1.0  0.0  0.5882  0.2757
 H13_12  H 1.0  0.7757  0.5  0.4118
 H13_13  H 1.0  0.9118  0.7757  0.0
 H13_14  H 1.0  0.0  0.9118  0.7757
 H13_15  H 1.0  0.7757  0.0  0.9118
 H13_16  H 1.0  0.4118  0.7757  0.5
 H13_17  H 1.0  0.5  0.9118  0.7243
 H13_18  H 1.0  0.2757  0.0  0.5882
 H13_19  H 1.0  0.5882  0.2757  0.0
 H13_20  H 1.0  0.5  0.4118  0.7757
 H13_21  H 1.0  0.7243  0.5  0.9118
 H13_22  H 1.0  0.0882  0.2757  0.5
 H13_23  H 1.0  0.0  0.4118  0.7243
 H13_24  H 1.0  0.2243  0.5  0.5882
 H14  H 1.0  0.2243  0.0  0.9118
 H14_2  H 1.0  0.9118  0.2243  0.0
 H14_3  H 1.0  0.0  0.9118  0.2243
 H14_4  H 1.0  0.7243  0.0  0.5882
 H14_5  H 1.0  0.4118  0.2243  0.5
 H14_6  H 1.0  0.5  0.9118  0.2757
 H14_7  H 1.0  0.2757  0.5  0.9118
 H14_8  H 1.0  0.5882  0.7243  0.0
 H14_9  H 1.0  0.5  0.4118  0.2243
 H14_10  H 1.0  0.7757  0.5  0.5882
 H14_11  H 1.0  0.0882  0.7243  0.5
 H14_12  H 1.0  0.0  0.4118  0.2757
 H14_13  H 1.0  0.7757  0.0  0.0882
 H14_14  H 1.0  0.0882  0.7757  0.0
 H14_15  H 1.0  0.0  0.0882  0.7757
 H14_16  H 1.0  0.2757  0.0  0.4118
 H14_17  H 1.0  0.5882  0.7757  0.5
 H14_18  H 1.0  0.5  0.0882  0.7243
 H14_19  H 1.0  0.7243  0.5  0.0882
 H14_20  H 1.0  0.4118  0.2757  0.0
 H14_21  H 1.0  0.5  0.5882  0.7757
 H14_22  H 1.0  0.2243  0.5  0.4118
 H14_23  H 1.0  0.9118  0.2757  0.5
 H14_24  H 1.0  0.0  0.5882  0.7243
 H15  H 1.0  0.0  0.2243  0.9118
 H15_2  H 1.0  0.9118  0.0  0.2243
 H15_3  H 1.0  0.2243  0.9118  0.0
 H15_4  H 1.0  0.5  0.2243  0.5882
 H15_5  H 1.0  0.4118  0.0  0.2757
 H15_6  H 1.0  0.7243  0.9118  0.5
 H15_7  H 1.0  0.5  0.7243  0.9118
 H15_8  H 1.0  0.5882  0.5  0.2243
 H15_9  H 1.0  0.2757  0.4118  0.0
 H15_10  H 1.0  0.0  0.7243  0.5882
 H15_11  H 1.0  0.0882  0.5  0.2757
 H15_12  H 1.0  0.7757  0.4118  0.5
 H15_13  H 1.0  0.0  0.7757  0.0882
 H15_14  H 1.0  0.0882  0.0  0.7757
 H15_15  H 1.0  0.7757  0.0882  0.0
 H15_16  H 1.0  0.5  0.7757  0.4118
 H15_17  H 1.0  0.5882  0.0  0.7243
 H15_18  H 1.0  0.2757  0.0882  0.5
 H15_19  H 1.0  0.5  0.2757  0.0882
 H15_20  H 1.0  0.4118  0.5  0.7757
 H15_21  H 1.0  0.7243  0.5882  0.0
 H15_22  H 1.0  0.0  0.2757  0.4118
 H15_23  H 1.0  0.9118  0.5  0.7243
 H15_24  H 1.0  0.2243  0.5882  0.5
 H16  H 1.0  0.0  0.7243  0.4118
 H16_2  H 1.0  0.4118  0.0  0.7243
 H16_3  H 1.0  0.7243  0.4118  0.0
 H16_4  H 1.0  0.5  0.7243  0.0882
 H16_5  H 1.0  0.9118  0.0  0.7757
 H16_6  H 1.0  0.2243  0.4118  0.5
 H16_7  H 1.0  0.5  0.2243  0.4118
 H16_8  H 1.0  0.0882  0.5  0.7243
 H16_9  H 1.0  0.7757  0.9118  0.0
 H16_10  H 1.0  0.0  0.2243  0.0882
 H16_11  H 1.0  0.5882  0.5  0.7757
 H16_12  H 1.0  0.2757  0.9118  0.5
 H16_13  H 1.0  0.0  0.2757  0.5882
 H16_14  H 1.0  0.5882  0.0  0.2757
 H16_15  H 1.0  0.2757  0.5882  0.0
 H16_16  H 1.0  0.5  0.2757  0.9118
 H16_17  H 1.0  0.0882  0.0  0.2243
 H16_18  H 1.0  0.7757  0.5882  0.5
 H16_19  H 1.0  0.5  0.7757  0.5882
 H16_20  H 1.0  0.9118  0.5  0.2757
 H16_21  H 1.0  0.2243  0.0882  0.0
 H16_22  H 1.0  0.0  0.7757  0.9118
 H16_23  H 1.0  0.4118  0.5  0.2243
 H16_24  H 1.0  0.7243  0.0882  0.5
 H17  H 1.0  0.198  0.4539  0.302
 H17_2  H 1.0  0.302  0.198  0.4539
 H17_3  H 1.0  0.4539  0.302  0.198
 H17_4  H 1.0  0.698  0.4539  0.198
 H17_5  H 1.0  0.802  0.198  0.0461
 H17_6  H 1.0  0.9539  0.302  0.302
 H17_7  H 1.0  0.302  0.9539  0.302
 H17_8  H 1.0  0.198  0.698  0.4539
 H17_9  H 1.0  0.0461  0.802  0.198
 H17_10  H 1.0  0.802  0.9539  0.198
 H17_11  H 1.0  0.698  0.698  0.0461
 H17_12  H 1.0  0.5461  0.802  0.302
 H17_13  H 1.0  0.802  0.5461  0.698
 H17_14  H 1.0  0.698  0.802  0.5461
 H17_15  H 1.0  0.5461  0.698  0.802
 H17_16  H 1.0  0.302  0.5461  0.802
 H17_17  H 1.0  0.198  0.802  0.9539
 H17_18  H 1.0  0.0461  0.698  0.698
 H17_19  H 1.0  0.698  0.0461  0.698
 H17_20  H 1.0  0.802  0.302  0.5461
 H17_21  H 1.0  0.9539  0.198  0.802
 H17_22  H 1.0  0.198  0.0461  0.802
 H17_23  H 1.0  0.302  0.302  0.9539
 H17_24  H 1.0  0.4539  0.198  0.698
 H18  H 1.0  0.302  0.4539  0.198
 H18_2  H 1.0  0.198  0.302  0.4539
 H18_3  H 1.0  0.4539  0.198  0.302
 H18_4  H 1.0  0.802  0.4539  0.302
 H18_5  H 1.0  0.698  0.302  0.0461
 H18_6  H 1.0  0.9539  0.198  0.198
 H18_7  H 1.0  0.198  0.9539  0.198
 H18_8  H 1.0  0.302  0.802  0.4539
 H18_9  H 1.0  0.0461  0.698  0.302
 H18_10  H 1.0  0.698  0.9539  0.302
 H18_11  H 1.0  0.802  0.802  0.0461
 H18_12  H 1.0  0.5461  0.698  0.198
 H18_13  H 1.0  0.698  0.5461  0.802
 H18_14  H 1.0  0.802  0.698  0.5461
 H18_15  H 1.0  0.5461  0.802  0.698
 H18_16  H 1.0  0.198  0.5461  0.698
 H18_17  H 1.0  0.302  0.698  0.9539
 H18_18  H 1.0  0.0461  0.802  0.802
 H18_19  H 1.0  0.802  0.0461  0.802
 H18_20  H 1.0  0.698  0.198  0.5461
 H18_21  H 1.0  0.9539  0.302  0.698
 H18_22  H 1.0  0.302  0.0461  0.698
 H18_23  H 1.0  0.198  0.198  0.9539
 H18_24  H 1.0  0.4539  0.302  0.802
 H19  H 1.0  0.302  0.9539  0.698
 H19_2  H 1.0  0.698  0.302  0.9539
 H19_3  H 1.0  0.9539  0.698  0.302
 H19_4  H 1.0  0.802  0.9539  0.802
 H19_5  H 1.0  0.198  0.302  0.5461
 H19_6  H 1.0  0.4539  0.698  0.198
 H19_7  H 1.0  0.198  0.4539  0.698
 H19_8  H 1.0  0.802  0.802  0.9539
 H19_9  H 1.0  0.5461  0.198  0.302
 H19_10  H 1.0  0.698  0.4539  0.802
 H19_11  H 1.0  0.302  0.802  0.5461
 H19_12  H 1.0  0.0461  0.198  0.198
 H19_13  H 1.0  0.698  0.0461  0.302
 H19_14  H 1.0  0.302  0.698  0.0461
 H19_15  H 1.0  0.0461  0.302  0.698
 H19_16  H 1.0  0.198  0.0461  0.198
 H19_17  H 1.0  0.802  0.698  0.4539
 H19_18  H 1.0  0.5461  0.302  0.802
 H19_19  H 1.0  0.802  0.5461  0.302
 H19_20  H 1.0  0.198  0.198  0.0461
 H19_21  H 1.0  0.4539  0.802  0.698
 H19_22  H 1.0  0.302  0.5461  0.198
 H19_23  H 1.0  0.698  0.198  0.4539
 H19_24  H 1.0  0.9539  0.802  0.802
 H20  H 1.0  0.698  0.802  0.4539
 H20_2  H 1.0  0.4539  0.698  0.802
 H20_3  H 1.0  0.802  0.4539  0.698
 H20_4  H 1.0  0.198  0.802  0.0461
 H20_5  H 1.0  0.9539  0.698  0.698
 H20_6  H 1.0  0.302  0.4539  0.802
 H20_7  H 1.0  0.802  0.302  0.4539
 H20_8  H 1.0  0.0461  0.198  0.802
 H20_9  H 1.0  0.698  0.9539  0.698
 H20_10  H 1.0  0.302  0.302  0.0461
 H20_11  H 1.0  0.5461  0.198  0.698
 H20_12  H 1.0  0.198  0.9539  0.802
 H20_13  H 1.0  0.302  0.198  0.5461
 H20_14  H 1.0  0.5461  0.302  0.198
 H20_15  H 1.0  0.198  0.5461  0.302
 H20_16  H 1.0  0.802  0.198  0.9539
 H20_17  H 1.0  0.0461  0.302  0.302
 H20_18  H 1.0  0.698  0.5461  0.198
 H20_19  H 1.0  0.198  0.698  0.5461
 H20_20  H 1.0  0.9539  0.802  0.198
 H20_21  H 1.0  0.302  0.0461  0.302
 H20_22  H 1.0  0.698  0.698  0.9539
 H20_23  H 1.0  0.4539  0.802  0.302
 H20_24  H 1.0  0.802  0.0461  0.198
 N1  N 1.0  0.6745  0.1745  0.5
 N1_2  N 1.0  0.5  0.6745  0.1745
 N1_3  N 1.0  0.1745  0.5  0.6745
 N1_4  N 1.0  0.1745  0.1745  0.0
 N1_5  N 1.0  0.0  0.6745  0.3255
 N1_6  N 1.0  0.6745  0.5  0.8255
 N1_7  N 1.0  0.8255  0.6745  0.5
 N1_8  N 1.0  0.0  0.1745  0.1745
 N1_9  N 1.0  0.3255  0.0  0.6745
 N1_10  N 1.0  0.3255  0.6745  0.0
 N1_11  N 1.0  0.5  0.1745  0.3255
 N1_12  N 1.0  0.8255  0.0  0.8255
 N1_13  N 1.0  0.3255  0.8255  0.5
 N1_14  N 1.0  0.5  0.3255  0.8255
 N1_15  N 1.0  0.8255  0.5  0.3255
 N1_16  N 1.0  0.8255  0.8255  0.0
 N1_17  N 1.0  0.0  0.3255  0.6745
 N1_18  N 1.0  0.3255  0.5  0.1745
 N1_19  N 1.0  0.1745  0.3255  0.5
 N1_20  N 1.0  0.0  0.8255  0.8255
 N1_21  N 1.0  0.6745  0.0  0.3255
 N1_22  N 1.0  0.6745  0.3255  0.0
 N1_23  N 1.0  0.5  0.8255  0.6745
 N1_24  N 1.0  0.1745  0.0  0.1745
 N2  N 1.0  0.8255  0.5  0.6745
 N2_2  N 1.0  0.6745  0.8255  0.5
 N2_3  N 1.0  0.5  0.6745  0.8255
 N2_4  N 1.0  0.3255  0.5  0.8255
 N2_5  N 1.0  0.1745  0.8255  0.0
 N2_6  N 1.0  0.0  0.6745  0.6745
 N2_7  N 1.0  0.6745  0.0  0.6745
 N2_8  N 1.0  0.8255  0.3255  0.5
 N2_9  N 1.0  0.0  0.1745  0.8255
 N2_10  N 1.0  0.1745  0.0  0.8255
 N2_11  N 1.0  0.3255  0.3255  0.0
 N2_12  N 1.0  0.5  0.1745  0.6745
 N2_13  N 1.0  0.1745  0.5  0.3255
 N2_14  N 1.0  0.3255  0.1745  0.5
 N2_15  N 1.0  0.5  0.3255  0.1745
 N2_16  N 1.0  0.6745  0.5  0.1745
 N2_17  N 1.0  0.8255  0.1745  0.0
 N2_18  N 1.0  0.0  0.3255  0.3255
 N2_19  N 1.0  0.3255  0.0  0.3255
 N2_20  N 1.0  0.1745  0.6745  0.5
 N2_21  N 1.0  0.0  0.8255  0.1745
 N2_22  N 1.0  0.8255  0.0  0.1745
 N2_23  N 1.0  0.6745  0.6745  0.0
 N2_24  N 1.0  0.5  0.8255  0.3255
 O1  O 1.0  0.3461  0.5417  0.0
 O1_2  O 1.0  0.0  0.3461  0.5417
 O1_3  O 1.0  0.5417  0.0  0.3461
 O1_4  O 1.0  0.8461  0.5417  0.5
 O1_5  O 1.0  0.5  0.3461  0.9583
 O1_6  O 1.0  0.0417  0.0  0.1539
 O1_7  O 1.0  0.1539  0.0417  0.0
 O1_8  O 1.0  0.5  0.8461  0.5417
 O1_9  O 1.0  0.9583  0.5  0.3461
 O1_10  O 1.0  0.6539  0.0417  0.5
 O1_11  O 1.0  0.0  0.8461  0.9583
 O1_12  O 1.0  0.4583  0.5  0.1539
 O1_13  O 1.0  0.6539  0.4583  0.0
 O1_14  O 1.0  0.0  0.6539  0.4583
 O1_15  O 1.0  0.4583  0.0  0.6539
 O1_16  O 1.0  0.1539  0.4583  0.5
 O1_17  O 1.0  0.5  0.6539  0.0417
 O1_18  O 1.0  0.9583  0.0  0.8461
 O1_19  O 1.0  0.8461  0.9583  0.0
 O1_20  O 1.0  0.5  0.1539  0.4583
 O1_21  O 1.0  0.0417  0.5  0.6539
 O1_22  O 1.0  0.3461  0.9583  0.5
 O1_23  O 1.0  0.0  0.1539  0.0417
 O1_24  O 1.0  0.5417  0.5  0.8461
 O2  O 1.0  0.9583  0.0  0.1539
 O2_2  O 1.0  0.1539  0.9583  0.0
 O2_3  O 1.0  0.0  0.1539  0.9583
 O2_4  O 1.0  0.4583  0.0  0.3461
 O2_5  O 1.0  0.6539  0.9583  0.5
 O2_6  O 1.0  0.5  0.1539  0.5417
 O2_7  O 1.0  0.5417  0.5  0.1539
 O2_8  O 1.0  0.3461  0.4583  0.0
 O2_9  O 1.0  0.5  0.6539  0.9583
 O2_10  O 1.0  0.0417  0.5  0.3461
 O2_11  O 1.0  0.8461  0.4583  0.5
 O2_12  O 1.0  0.0  0.6539  0.5417
 O2_13  O 1.0  0.0417  0.0  0.8461
 O2_14  O 1.0  0.8461  0.0417  0.0
 O2_15  O 1.0  0.0  0.8461  0.0417
 O2_16  O 1.0  0.5417  0.0  0.6539
 O2_17  O 1.0  0.3461  0.0417  0.5
 O2_18  O 1.0  0.5  0.8461  0.4583
 O2_19  O 1.0  0.4583  0.5  0.8461
 O2_20  O 1.0  0.6539  0.5417  0.0
 O2_21  O 1.0  0.5  0.3461  0.0417
 O2_22  O 1.0  0.9583  0.5  0.6539
 O2_23  O 1.0  0.1539  0.5417  0.5
 O2_24  O 1.0  0.0  0.3461  0.4583
 O3  O 1.0  0.0  0.9583  0.1539
 O3_2  O 1.0  0.1539  0.0  0.9583
 O3_3  O 1.0  0.9583  0.1539  0.0
 O3_4  O 1.0  0.5  0.9583  0.3461
 O3_5  O 1.0  0.6539  0.0  0.5417
 O3_6  O 1.0  0.4583  0.1539  0.5
 O3_7  O 1.0  0.5  0.4583  0.1539
 O3_8  O 1.0  0.3461  0.5  0.9583
 O3_9  O 1.0  0.5417  0.6539  0.0
 O3_10  O 1.0  0.0  0.4583  0.3461
 O3_11  O 1.0  0.8461  0.5  0.5417
 O3_12  O 1.0  0.0417  0.6539  0.5
 O3_13  O 1.0  0.0  0.0417  0.8461
 O3_14  O 1.0  0.8461  0.0  0.0417
 O3_15  O 1.0  0.0417  0.8461  0.0
 O3_16  O 1.0  0.5  0.0417  0.6539
 O3_17  O 1.0  0.3461  0.0  0.4583
 O3_18  O 1.0  0.5417  0.8461  0.5
 O3_19  O 1.0  0.5  0.5417  0.8461
 O3_20  O 1.0  0.6539  0.5  0.0417
 O3_21  O 1.0  0.4583  0.3461  0.0
 O3_22  O 1.0  0.0  0.5417  0.6539
 O3_23  O 1.0  0.1539  0.5  0.4583
 O3_24  O 1.0  0.9583  0.3461  0.5
 O4  O 1.0  0.0  0.4583  0.6539
 O4_2  O 1.0  0.6539  0.0  0.4583
 O4_3  O 1.0  0.4583  0.6539  0.0
 O4_4  O 1.0  0.5  0.4583  0.8461
 O4_5  O 1.0  0.1539  0.0  0.0417
 O4_6  O 1.0  0.9583  0.6539  0.5
 O4_7  O 1.0  0.5  0.9583  0.6539
 O4_8  O 1.0  0.8461  0.5  0.4583
 O4_9  O 1.0  0.0417  0.1539  0.0
 O4_10  O 1.0  0.0  0.9583  0.8461
 O4_11  O 1.0  0.3461  0.5  0.0417
 O4_12  O 1.0  0.5417  0.1539  0.5
 O4_13  O 1.0  0.0  0.5417  0.3461
 O4_14  O 1.0  0.3461  0.0  0.5417
 O4_15  O 1.0  0.5417  0.3461  0.0
 O4_16  O 1.0  0.5  0.5417  0.1539
 O4_17  O 1.0  0.8461  0.0  0.9583
 O4_18  O 1.0  0.0417  0.3461  0.5
 O4_19  O 1.0  0.5  0.0417  0.3461
 O4_20  O 1.0  0.1539  0.5  0.5417
 O4_21  O 1.0  0.9583  0.8461  0.0
 O4_22  O 1.0  0.0  0.0417  0.1539
 O4_23  O 1.0  0.6539  0.5  0.9583
 O4_24  O 1.0  0.4583  0.8461  0.5
 O5  O 1.0  0.4583  0.2026  0.5
 O5_2  O 1.0  0.5  0.4583  0.2026
 O5_3  O 1.0  0.2026  0.5  0.4583
 O5_4  O 1.0  0.9583  0.2026  0.0
 O5_5  O 1.0  0.0  0.4583  0.2974
 O5_6  O 1.0  0.7026  0.5  0.0417
 O5_7  O 1.0  0.0417  0.7026  0.5
 O5_8  O 1.0  0.0  0.9583  0.2026
 O5_9  O 1.0  0.2974  0.0  0.4583
 O5_10  O 1.0  0.5417  0.7026  0.0
 O5_11  O 1.0  0.5  0.9583  0.2974
 O5_12  O 1.0  0.7974  0.0  0.0417
 O5_13  O 1.0  0.5417  0.7974  0.5
 O5_14  O 1.0  0.5  0.5417  0.7974
 O5_15  O 1.0  0.7974  0.5  0.5417
 O5_16  O 1.0  0.0417  0.7974  0.0
 O5_17  O 1.0  0.0  0.5417  0.7026
 O5_18  O 1.0  0.2974  0.5  0.9583
 O5_19  O 1.0  0.9583  0.2974  0.5
 O5_20  O 1.0  0.0  0.0417  0.7974
 O5_21  O 1.0  0.7026  0.0  0.5417
 O5_22  O 1.0  0.4583  0.2974  0.0
 O5_23  O 1.0  0.5  0.0417  0.7026
 O5_24  O 1.0  0.2026  0.0  0.9583
 O6  O 1.0  0.0417  0.5  0.7026
 O6_2  O 1.0  0.7026  0.0417  0.5
 O6_3  O 1.0  0.5  0.7026  0.0417
 O6_4  O 1.0  0.5417  0.5  0.7974
 O6_5  O 1.0  0.2026  0.0417  0.0
 O6_6  O 1.0  0.0  0.7026  0.4583
 O6_7  O 1.0  0.4583  0.0  0.7026
 O6_8  O 1.0  0.7974  0.5417  0.5
 O6_9  O 1.0  0.0  0.2026  0.0417
 O6_10  O 1.0  0.9583  0.0  0.7974
 O6_11  O 1.0  0.2974  0.5417  0.0
 O6_12  O 1.0  0.5  0.2026  0.4583
 O6_13  O 1.0  0.9583  0.5  0.2974
 O6_14  O 1.0  0.2974  0.9583  0.5
 O6_15  O 1.0  0.5  0.2974  0.9583
 O6_16  O 1.0  0.4583  0.5  0.2026
 O6_17  O 1.0  0.7974  0.9583  0.0
 O6_18  O 1.0  0.0  0.2974  0.5417
 O6_19  O 1.0  0.5417  0.0  0.2974
 O6_20  O 1.0  0.2026  0.4583  0.5
 O6_21  O 1.0  0.0  0.7974  0.9583
 O6_22  O 1.0  0.0417  0.0  0.2026
 O6_23  O 1.0  0.7026  0.4583  0.0
 O6_24  O 1.0  0.5  0.7974  0.5417
 O7  O 1.0  0.5417  0.5  0.2026
 O7_2  O 1.0  0.2026  0.5417  0.5
 O7_3  O 1.0  0.5  0.2026  0.5417
 O7_4  O 1.0  0.0417  0.5  0.2974
 O7_5  O 1.0  0.7026  0.5417  0.0
 O7_6  O 1.0  0.0  0.2026  0.9583
 O7_7  O 1.0  0.9583  0.0  0.2026
 O7_8  O 1.0  0.2974  0.0417  0.5
 O7_9  O 1.0  0.0  0.7026  0.5417
 O7_10  O 1.0  0.4583  0.0  0.2974
 O7_11  O 1.0  0.7974  0.0417  0.0
 O7_12  O 1.0  0.5  0.7026  0.9583
 O7_13  O 1.0  0.4583  0.5  0.7974
 O7_14  O 1.0  0.7974  0.4583  0.5
 O7_15  O 1.0  0.5  0.7974  0.4583
 O7_16  O 1.0  0.9583  0.5  0.7026
 O7_17  O 1.0  0.2974  0.4583  0.0
 O7_18  O 1.0  0.0  0.7974  0.0417
 O7_19  O 1.0  0.0417  0.0  0.7974
 O7_20  O 1.0  0.7026  0.9583  0.5
 O7_21  O 1.0  0.0  0.2974  0.4583
 O7_22  O 1.0  0.5417  0.0  0.7026
 O7_23  O 1.0  0.2026  0.9583  0.0
 O7_24  O 1.0  0.5  0.2974  0.0417
 O8  O 1.0  0.0  0.0417  0.2026
 O8_2  O 1.0  0.2026  0.0  0.0417
 O8_3  O 1.0  0.0417  0.2026  0.0
 O8_4  O 1.0  0.5  0.0417  0.2974
 O8_5  O 1.0  0.7026  0.0  0.4583
 O8_6  O 1.0  0.5417  0.2026  0.5
 O8_7  O 1.0  0.5  0.5417  0.2026
 O8_8  O 1.0  0.2974  0.5  0.0417
 O8_9  O 1.0  0.4583  0.7026  0.0
 O8_10  O 1.0  0.0  0.5417  0.2974
 O8_11  O 1.0  0.7974  0.5  0.4583
 O8_12  O 1.0  0.9583  0.7026  0.5
 O8_13  O 1.0  0.0  0.9583  0.7974
 O8_14  O 1.0  0.7974  0.0  0.9583
 O8_15  O 1.0  0.9583  0.7974  0.0
 O8_16  O 1.0  0.5  0.9583  0.7026
 O8_17  O 1.0  0.2974  0.0  0.5417
 O8_18  O 1.0  0.4583  0.7974  0.5
 O8_19  O 1.0  0.5  0.4583  0.7974
 O8_20  O 1.0  0.7026  0.5  0.9583
 O8_21  O 1.0  0.5417  0.2974  0.0
 O8_22  O 1.0  0.0  0.4583  0.7026
 O8_23  O 1.0  0.2026  0.5  0.5417
 O8_24  O 1.0  0.0417  0.2974  0.5

