data_n1026
_audit_creation_method         'generated by CrystalMaker X for macOS'
_cell_length_a                  68.706000(100)
_cell_length_b                  68.706000(100)
_cell_length_c                  68.706000(100)
_cell_angle_alpha               90.000000(0)
_cell_angle_beta                90.000000(0)
_cell_angle_gamma               90.000000(0)

_symmetry_space_group_name_H-M     'P 1'

loop_
_symmetry_equiv_pos_as_xyz
'+x,+y,+z'

loop_
_atom_site_label
_atom_site_type_symbol
_atom_site_occupancy
_atom_site_fract_x
_atom_site_fract_y
_atom_site_fract_z
_atom_site_U_iso_or_equiv
 C1  C 1.0  0.39000000(40000)  0.57790000(40000)  0.52540000(50000)  0.20967
 C1_2  C 1.0  0.52540000(40000)  0.39000000(40000)  0.57790000(50000)  0.20967
 C1_3  C 1.0  0.57790000(40000)  0.52540000(40000)  0.39000000(50000)  0.20967
 C1_4  C 1.0  0.39000000(40000)  0.57790000(40000)  0.47460000(50000)  0.20967
 C1_5  C 1.0  0.52540000(40000)  0.39000000(40000)  0.42210000(50000)  0.20967
 C1_6  C 1.0  0.57790000(40000)  0.52540000(40000)  0.61000000(50000)  0.20967
 C1_7  C 1.0  0.61000000(40000)  0.57790000(40000)  0.52540000(50000)  0.20967
 C1_8  C 1.0  0.47460000(40000)  0.39000000(40000)  0.57790000(50000)  0.20967
 C1_9  C 1.0  0.42210000(40000)  0.52540000(40000)  0.39000000(50000)  0.20967
 C1_10  C 1.0  0.61000000(40000)  0.57790000(40000)  0.47460000(50000)  0.20967
 C1_11  C 1.0  0.47460000(40000)  0.39000000(40000)  0.42210000(50000)  0.20967
 C1_12  C 1.0  0.42210000(40000)  0.52540000(40000)  0.61000000(50000)  0.20967
 C1_13  C 1.0  0.57790000(40000)  0.39000000(40000)  0.52540000(50000)  0.20967
 C1_14  C 1.0  0.39000000(40000)  0.52540000(40000)  0.57790000(50000)  0.20967
 C1_15  C 1.0  0.52540000(40000)  0.57790000(40000)  0.39000000(50000)  0.20967
 C1_16  C 1.0  0.57790000(40000)  0.39000000(40000)  0.47460000(50000)  0.20967
 C1_17  C 1.0  0.39000000(40000)  0.52540000(40000)  0.42210000(50000)  0.20967
 C1_18  C 1.0  0.52540000(40000)  0.57790000(40000)  0.61000000(50000)  0.20967
 C1_19  C 1.0  0.57790000(40000)  0.61000000(40000)  0.52540000(50000)  0.20967
 C1_20  C 1.0  0.39000000(40000)  0.47460000(40000)  0.57790000(50000)  0.20967
 C1_21  C 1.0  0.52540000(40000)  0.42210000(40000)  0.39000000(50000)  0.20967
 C1_22  C 1.0  0.57790000(40000)  0.61000000(40000)  0.47460000(50000)  0.20967
 C1_23  C 1.0  0.39000000(40000)  0.47460000(40000)  0.42210000(50000)  0.20967
 C1_24  C 1.0  0.52540000(40000)  0.42210000(40000)  0.61000000(50000)  0.20967
 C1_25  C 1.0  0.61000000(40000)  0.42210000(40000)  0.47460000(50000)  0.20967
 C1_26  C 1.0  0.47460000(40000)  0.61000000(40000)  0.42210000(50000)  0.20967
 C1_27  C 1.0  0.42210000(40000)  0.47460000(40000)  0.61000000(50000)  0.20967
 C1_28  C 1.0  0.61000000(40000)  0.42210000(40000)  0.52540000(50000)  0.20967
 C1_29  C 1.0  0.47460000(40000)  0.61000000(40000)  0.57790000(50000)  0.20967
 C1_30  C 1.0  0.42210000(40000)  0.47460000(40000)  0.39000000(50000)  0.20967
 C1_31  C 1.0  0.39000000(40000)  0.42210000(40000)  0.47460000(50000)  0.20967
 C1_32  C 1.0  0.52540000(40000)  0.61000000(40000)  0.42210000(50000)  0.20967
 C1_33  C 1.0  0.57790000(40000)  0.47460000(40000)  0.61000000(50000)  0.20967
 C1_34  C 1.0  0.39000000(40000)  0.42210000(40000)  0.52540000(50000)  0.20967
 C1_35  C 1.0  0.52540000(40000)  0.61000000(40000)  0.57790000(50000)  0.20967
 C1_36  C 1.0  0.57790000(40000)  0.47460000(40000)  0.39000000(50000)  0.20967
 C1_37  C 1.0  0.42210000(40000)  0.61000000(40000)  0.47460000(50000)  0.20967
 C1_38  C 1.0  0.61000000(40000)  0.47460000(40000)  0.42210000(50000)  0.20967
 C1_39  C 1.0  0.47460000(40000)  0.42210000(40000)  0.61000000(50000)  0.20967
 C1_40  C 1.0  0.42210000(40000)  0.61000000(40000)  0.52540000(50000)  0.20967
 C1_41  C 1.0  0.61000000(40000)  0.47460000(40000)  0.57790000(50000)  0.20967
 C1_42  C 1.0  0.47460000(40000)  0.42210000(40000)  0.39000000(50000)  0.20967
 C1_43  C 1.0  0.42210000(40000)  0.39000000(40000)  0.47460000(50000)  0.20967
 C1_44  C 1.0  0.61000000(40000)  0.52540000(40000)  0.42210000(50000)  0.20967
 C1_45  C 1.0  0.47460000(40000)  0.57790000(40000)  0.61000000(50000)  0.20967
 C1_46  C 1.0  0.42210000(40000)  0.39000000(40000)  0.52540000(50000)  0.20967
 C1_47  C 1.0  0.61000000(40000)  0.52540000(40000)  0.57790000(50000)  0.20967
 C1_48  C 1.0  0.47460000(40000)  0.57790000(40000)  0.39000000(50000)  0.20967
 C1_49  C 1.0  0.39000000(40000)  0.07790000(40000)  0.02540000(50000)  0.20967
 C1_50  C 1.0  0.89000000(40000)  0.07790000(40000)  0.52540000(50000)  0.20967
 C1_51  C 1.0  0.89000000(40000)  0.57790000(40000)  0.02540000(50000)  0.20967
 C1_52  C 1.0  0.52540000(40000)  0.89000000(40000)  0.07790000(50000)  0.20967
 C1_53  C 1.0  0.02540000(40000)  0.89000000(40000)  0.57790000(50000)  0.20967
 C1_54  C 1.0  0.02540000(40000)  0.39000000(40000)  0.07790000(50000)  0.20967
 C1_55  C 1.0  0.57790000(40000)  0.02540000(40000)  0.89000000(50000)  0.20967
 C1_56  C 1.0  0.07790000(40000)  0.02540000(40000)  0.39000000(50000)  0.20967
 C1_57  C 1.0  0.07790000(40000)  0.52540000(40000)  0.89000000(50000)  0.20967
 C1_58  C 1.0  0.39000000(40000)  0.07790000(40000)  0.97460000(50000)  0.20967
 C1_59  C 1.0  0.89000000(40000)  0.07790000(40000)  0.47460000(50000)  0.20967
 C1_60  C 1.0  0.89000000(40000)  0.57790000(40000)  0.97460000(50000)  0.20967
 C1_61  C 1.0  0.52540000(40000)  0.89000000(40000)  0.92210000(50000)  0.20967
 C1_62  C 1.0  0.02540000(40000)  0.89000000(40000)  0.42210000(50000)  0.20967
 C1_63  C 1.0  0.02540000(40000)  0.39000000(40000)  0.92210000(50000)  0.20967
 C1_64  C 1.0  0.57790000(40000)  0.02540000(40000)  0.11000000(50000)  0.20967
 C1_65  C 1.0  0.07790000(40000)  0.02540000(40000)  0.61000000(50000)  0.20967
 C1_66  C 1.0  0.07790000(40000)  0.52540000(40000)  0.11000000(50000)  0.20967
 C1_67  C 1.0  0.61000000(40000)  0.07790000(40000)  0.02540000(50000)  0.20967
 C1_68  C 1.0  0.11000000(40000)  0.07790000(40000)  0.52540000(50000)  0.20967
 C1_69  C 1.0  0.11000000(40000)  0.57790000(40000)  0.02540000(50000)  0.20967
 C1_70  C 1.0  0.47460000(40000)  0.89000000(40000)  0.07790000(50000)  0.20967
 C1_71  C 1.0  0.97460000(40000)  0.89000000(40000)  0.57790000(50000)  0.20967
 C1_72  C 1.0  0.97460000(40000)  0.39000000(40000)  0.07790000(50000)  0.20967
 C1_73  C 1.0  0.42210000(40000)  0.02540000(40000)  0.89000000(50000)  0.20967
 C1_74  C 1.0  0.92210000(40000)  0.02540000(40000)  0.39000000(50000)  0.20967
 C1_75  C 1.0  0.92210000(40000)  0.52540000(40000)  0.89000000(50000)  0.20967
 C1_76  C 1.0  0.61000000(40000)  0.07790000(40000)  0.97460000(50000)  0.20967
 C1_77  C 1.0  0.11000000(40000)  0.07790000(40000)  0.47460000(50000)  0.20967
 C1_78  C 1.0  0.11000000(40000)  0.57790000(40000)  0.97460000(50000)  0.20967
 C1_79  C 1.0  0.47460000(40000)  0.89000000(40000)  0.92210000(50000)  0.20967
 C1_80  C 1.0  0.97460000(40000)  0.89000000(40000)  0.42210000(50000)  0.20967
 C1_81  C 1.0  0.97460000(40000)  0.39000000(40000)  0.92210000(50000)  0.20967
 C1_82  C 1.0  0.42210000(40000)  0.02540000(40000)  0.11000000(50000)  0.20967
 C1_83  C 1.0  0.92210000(40000)  0.02540000(40000)  0.61000000(50000)  0.20967
 C1_84  C 1.0  0.92210000(40000)  0.52540000(40000)  0.11000000(50000)  0.20967
 C1_85  C 1.0  0.57790000(40000)  0.89000000(40000)  0.02540000(50000)  0.20967
 C1_86  C 1.0  0.07790000(40000)  0.89000000(40000)  0.52540000(50000)  0.20967
 C1_87  C 1.0  0.07790000(40000)  0.39000000(40000)  0.02540000(50000)  0.20967
 C1_88  C 1.0  0.39000000(40000)  0.02540000(40000)  0.07790000(50000)  0.20967
 C1_89  C 1.0  0.89000000(40000)  0.02540000(40000)  0.57790000(50000)  0.20967
 C1_90  C 1.0  0.89000000(40000)  0.52540000(40000)  0.07790000(50000)  0.20967
 C1_91  C 1.0  0.52540000(40000)  0.07790000(40000)  0.89000000(50000)  0.20967
 C1_92  C 1.0  0.02540000(40000)  0.07790000(40000)  0.39000000(50000)  0.20967
 C1_93  C 1.0  0.02540000(40000)  0.57790000(40000)  0.89000000(50000)  0.20967
 C1_94  C 1.0  0.57790000(40000)  0.89000000(40000)  0.97460000(50000)  0.20967
 C1_95  C 1.0  0.07790000(40000)  0.89000000(40000)  0.47460000(50000)  0.20967
 C1_96  C 1.0  0.07790000(40000)  0.39000000(40000)  0.97460000(50000)  0.20967
 C1_97  C 1.0  0.39000000(40000)  0.02540000(40000)  0.92210000(50000)  0.20967
 C1_98  C 1.0  0.89000000(40000)  0.02540000(40000)  0.42210000(50000)  0.20967
 C1_99  C 1.0  0.89000000(40000)  0.52540000(40000)  0.92210000(50000)  0.20967
 C1_100  C 1.0  0.52540000(40000)  0.07790000(40000)  0.11000000(50000)  0.20967
 C1_101  C 1.0  0.02540000(40000)  0.07790000(40000)  0.61000000(50000)  0.20967
 C1_102  C 1.0  0.02540000(40000)  0.57790000(40000)  0.11000000(50000)  0.20967
 C1_103  C 1.0  0.57790000(40000)  0.11000000(40000)  0.02540000(50000)  0.20967
 C1_104  C 1.0  0.07790000(40000)  0.11000000(40000)  0.52540000(50000)  0.20967
 C1_105  C 1.0  0.07790000(40000)  0.61000000(40000)  0.02540000(50000)  0.20967
 C1_106  C 1.0  0.39000000(40000)  0.97460000(40000)  0.07790000(50000)  0.20967
 C1_107  C 1.0  0.89000000(40000)  0.97460000(40000)  0.57790000(50000)  0.20967
 C1_108  C 1.0  0.89000000(40000)  0.47460000(40000)  0.07790000(50000)  0.20967
 C1_109  C 1.0  0.52540000(40000)  0.92210000(40000)  0.89000000(50000)  0.20967
 C1_110  C 1.0  0.02540000(40000)  0.92210000(40000)  0.39000000(50000)  0.20967
 C1_111  C 1.0  0.02540000(40000)  0.42210000(40000)  0.89000000(50000)  0.20967
 C1_112  C 1.0  0.57790000(40000)  0.11000000(40000)  0.97460000(50000)  0.20967
 C1_113  C 1.0  0.07790000(40000)  0.11000000(40000)  0.47460000(50000)  0.20967
 C1_114  C 1.0  0.07790000(40000)  0.61000000(40000)  0.97460000(50000)  0.20967
 C1_115  C 1.0  0.39000000(40000)  0.97460000(40000)  0.92210000(50000)  0.20967
 C1_116  C 1.0  0.89000000(40000)  0.97460000(40000)  0.42210000(50000)  0.20967
 C1_117  C 1.0  0.89000000(40000)  0.47460000(40000)  0.92210000(50000)  0.20967
 C1_118  C 1.0  0.52540000(40000)  0.92210000(40000)  0.11000000(50000)  0.20967
 C1_119  C 1.0  0.02540000(40000)  0.92210000(40000)  0.61000000(50000)  0.20967
 C1_120  C 1.0  0.02540000(40000)  0.42210000(40000)  0.11000000(50000)  0.20967
 C1_121  C 1.0  0.61000000(40000)  0.92210000(40000)  0.97460000(50000)  0.20967
 C1_122  C 1.0  0.11000000(40000)  0.92210000(40000)  0.47460000(50000)  0.20967
 C1_123  C 1.0  0.11000000(40000)  0.42210000(40000)  0.97460000(50000)  0.20967
 C1_124  C 1.0  0.47460000(40000)  0.11000000(40000)  0.92210000(50000)  0.20967
 C1_125  C 1.0  0.97460000(40000)  0.11000000(40000)  0.42210000(50000)  0.20967
 C1_126  C 1.0  0.97460000(40000)  0.61000000(40000)  0.92210000(50000)  0.20967
 C1_127  C 1.0  0.42210000(40000)  0.97460000(40000)  0.11000000(50000)  0.20967
 C1_128  C 1.0  0.92210000(40000)  0.97460000(40000)  0.61000000(50000)  0.20967
 C1_129  C 1.0  0.92210000(40000)  0.47460000(40000)  0.11000000(50000)  0.20967
 C1_130  C 1.0  0.61000000(40000)  0.92210000(40000)  0.02540000(50000)  0.20967
 C1_131  C 1.0  0.11000000(40000)  0.92210000(40000)  0.52540000(50000)  0.20967
 C1_132  C 1.0  0.11000000(40000)  0.42210000(40000)  0.02540000(50000)  0.20967
 C1_133  C 1.0  0.47460000(40000)  0.11000000(40000)  0.07790000(50000)  0.20967
 C1_134  C 1.0  0.97460000(40000)  0.11000000(40000)  0.57790000(50000)  0.20967
 C1_135  C 1.0  0.97460000(40000)  0.61000000(40000)  0.07790000(50000)  0.20967
 C1_136  C 1.0  0.42210000(40000)  0.97460000(40000)  0.89000000(50000)  0.20967
 C1_137  C 1.0  0.92210000(40000)  0.97460000(40000)  0.39000000(50000)  0.20967
 C1_138  C 1.0  0.92210000(40000)  0.47460000(40000)  0.89000000(50000)  0.20967
 C1_139  C 1.0  0.39000000(40000)  0.92210000(40000)  0.97460000(50000)  0.20967
 C1_140  C 1.0  0.89000000(40000)  0.92210000(40000)  0.47460000(50000)  0.20967
 C1_141  C 1.0  0.89000000(40000)  0.42210000(40000)  0.97460000(50000)  0.20967
 C1_142  C 1.0  0.52540000(40000)  0.11000000(40000)  0.92210000(50000)  0.20967
 C1_143  C 1.0  0.02540000(40000)  0.11000000(40000)  0.42210000(50000)  0.20967
 C1_144  C 1.0  0.02540000(40000)  0.61000000(40000)  0.92210000(50000)  0.20967
 C1_145  C 1.0  0.57790000(40000)  0.97460000(40000)  0.11000000(50000)  0.20967
 C1_146  C 1.0  0.07790000(40000)  0.97460000(40000)  0.61000000(50000)  0.20967
 C1_147  C 1.0  0.07790000(40000)  0.47460000(40000)  0.11000000(50000)  0.20967
 C1_148  C 1.0  0.39000000(40000)  0.92210000(40000)  0.02540000(50000)  0.20967
 C1_149  C 1.0  0.89000000(40000)  0.92210000(40000)  0.52540000(50000)  0.20967
 C1_150  C 1.0  0.89000000(40000)  0.42210000(40000)  0.02540000(50000)  0.20967
 C1_151  C 1.0  0.52540000(40000)  0.11000000(40000)  0.07790000(50000)  0.20967
 C1_152  C 1.0  0.02540000(40000)  0.11000000(40000)  0.57790000(50000)  0.20967
 C1_153  C 1.0  0.02540000(40000)  0.61000000(40000)  0.07790000(50000)  0.20967
 C1_154  C 1.0  0.57790000(40000)  0.97460000(40000)  0.89000000(50000)  0.20967
 C1_155  C 1.0  0.07790000(40000)  0.97460000(40000)  0.39000000(50000)  0.20967
 C1_156  C 1.0  0.07790000(40000)  0.47460000(40000)  0.89000000(50000)  0.20967
 C1_157  C 1.0  0.42210000(40000)  0.11000000(40000)  0.97460000(50000)  0.20967
 C1_158  C 1.0  0.92210000(40000)  0.11000000(40000)  0.47460000(50000)  0.20967
 C1_159  C 1.0  0.92210000(40000)  0.61000000(40000)  0.97460000(50000)  0.20967
 C1_160  C 1.0  0.61000000(40000)  0.97460000(40000)  0.92210000(50000)  0.20967
 C1_161  C 1.0  0.11000000(40000)  0.97460000(40000)  0.42210000(50000)  0.20967
 C1_162  C 1.0  0.11000000(40000)  0.47460000(40000)  0.92210000(50000)  0.20967
 C1_163  C 1.0  0.47460000(40000)  0.92210000(40000)  0.11000000(50000)  0.20967
 C1_164  C 1.0  0.97460000(40000)  0.92210000(40000)  0.61000000(50000)  0.20967
 C1_165  C 1.0  0.97460000(40000)  0.42210000(40000)  0.11000000(50000)  0.20967
 C1_166  C 1.0  0.42210000(40000)  0.11000000(40000)  0.02540000(50000)  0.20967
 C1_167  C 1.0  0.92210000(40000)  0.11000000(40000)  0.52540000(50000)  0.20967
 C1_168  C 1.0  0.92210000(40000)  0.61000000(40000)  0.02540000(50000)  0.20967
 C1_169  C 1.0  0.61000000(40000)  0.97460000(40000)  0.07790000(50000)  0.20967
 C1_170  C 1.0  0.11000000(40000)  0.97460000(40000)  0.57790000(50000)  0.20967
 C1_171  C 1.0  0.11000000(40000)  0.47460000(40000)  0.07790000(50000)  0.20967
 C1_172  C 1.0  0.47460000(40000)  0.92210000(40000)  0.89000000(50000)  0.20967
 C1_173  C 1.0  0.97460000(40000)  0.92210000(40000)  0.39000000(50000)  0.20967
 C1_174  C 1.0  0.97460000(40000)  0.42210000(40000)  0.89000000(50000)  0.20967
 C1_175  C 1.0  0.42210000(40000)  0.89000000(40000)  0.97460000(50000)  0.20967
 C1_176  C 1.0  0.92210000(40000)  0.89000000(40000)  0.47460000(50000)  0.20967
 C1_177  C 1.0  0.92210000(40000)  0.39000000(40000)  0.97460000(50000)  0.20967
 C1_178  C 1.0  0.61000000(40000)  0.02540000(40000)  0.92210000(50000)  0.20967
 C1_179  C 1.0  0.11000000(40000)  0.02540000(40000)  0.42210000(50000)  0.20967
 C1_180  C 1.0  0.11000000(40000)  0.52540000(40000)  0.92210000(50000)  0.20967
 C1_181  C 1.0  0.47460000(40000)  0.07790000(40000)  0.11000000(50000)  0.20967
 C1_182  C 1.0  0.97460000(40000)  0.07790000(40000)  0.61000000(50000)  0.20967
 C1_183  C 1.0  0.97460000(40000)  0.57790000(40000)  0.11000000(50000)  0.20967
 C1_184  C 1.0  0.42210000(40000)  0.89000000(40000)  0.02540000(50000)  0.20967
 C1_185  C 1.0  0.92210000(40000)  0.89000000(40000)  0.52540000(50000)  0.20967
 C1_186  C 1.0  0.92210000(40000)  0.39000000(40000)  0.02540000(50000)  0.20967
 C1_187  C 1.0  0.61000000(40000)  0.02540000(40000)  0.07790000(50000)  0.20967
 C1_188  C 1.0  0.11000000(40000)  0.02540000(40000)  0.57790000(50000)  0.20967
 C1_189  C 1.0  0.11000000(40000)  0.52540000(40000)  0.07790000(50000)  0.20967
 C1_190  C 1.0  0.47460000(40000)  0.07790000(40000)  0.89000000(50000)  0.20967
 C1_191  C 1.0  0.97460000(40000)  0.07790000(40000)  0.39000000(50000)  0.20967
 C1_192  C 1.0  0.97460000(40000)  0.57790000(40000)  0.89000000(50000)  0.20967
 C2  C 1.0  0.37980000(50000)  0.56480000(40000)  0.53890000(50000)  0.20167
 C2_2  C 1.0  0.53890000(50000)  0.37980000(40000)  0.56480000(50000)  0.20167
 C2_3  C 1.0  0.56480000(50000)  0.53890000(40000)  0.37980000(50000)  0.20167
 C2_4  C 1.0  0.37980000(50000)  0.56480000(40000)  0.46110000(50000)  0.20167
 C2_5  C 1.0  0.53890000(50000)  0.37980000(40000)  0.43520000(50000)  0.20167
 C2_6  C 1.0  0.56480000(50000)  0.53890000(40000)  0.62020000(50000)  0.20167
 C2_7  C 1.0  0.62020000(50000)  0.56480000(40000)  0.53890000(50000)  0.20167
 C2_8  C 1.0  0.46110000(50000)  0.37980000(40000)  0.56480000(50000)  0.20167
 C2_9  C 1.0  0.43520000(50000)  0.53890000(40000)  0.37980000(50000)  0.20167
 C2_10  C 1.0  0.62020000(50000)  0.56480000(40000)  0.46110000(50000)  0.20167
 C2_11  C 1.0  0.46110000(50000)  0.37980000(40000)  0.43520000(50000)  0.20167
 C2_12  C 1.0  0.43520000(50000)  0.53890000(40000)  0.62020000(50000)  0.20167
 C2_13  C 1.0  0.56480000(50000)  0.37980000(40000)  0.53890000(50000)  0.20167
 C2_14  C 1.0  0.37980000(50000)  0.53890000(40000)  0.56480000(50000)  0.20167
 C2_15  C 1.0  0.53890000(50000)  0.56480000(40000)  0.37980000(50000)  0.20167
 C2_16  C 1.0  0.56480000(50000)  0.37980000(40000)  0.46110000(50000)  0.20167
 C2_17  C 1.0  0.37980000(50000)  0.53890000(40000)  0.43520000(50000)  0.20167
 C2_18  C 1.0  0.53890000(50000)  0.56480000(40000)  0.62020000(50000)  0.20167
 C2_19  C 1.0  0.56480000(50000)  0.62020000(40000)  0.53890000(50000)  0.20167
 C2_20  C 1.0  0.37980000(50000)  0.46110000(40000)  0.56480000(50000)  0.20167
 C2_21  C 1.0  0.53890000(50000)  0.43520000(40000)  0.37980000(50000)  0.20167
 C2_22  C 1.0  0.56480000(50000)  0.62020000(40000)  0.46110000(50000)  0.20167
 C2_23  C 1.0  0.37980000(50000)  0.46110000(40000)  0.43520000(50000)  0.20167
 C2_24  C 1.0  0.53890000(50000)  0.43520000(40000)  0.62020000(50000)  0.20167
 C2_25  C 1.0  0.62020000(50000)  0.43520000(40000)  0.46110000(50000)  0.20167
 C2_26  C 1.0  0.46110000(50000)  0.62020000(40000)  0.43520000(50000)  0.20167
 C2_27  C 1.0  0.43520000(50000)  0.46110000(40000)  0.62020000(50000)  0.20167
 C2_28  C 1.0  0.62020000(50000)  0.43520000(40000)  0.53890000(50000)  0.20167
 C2_29  C 1.0  0.46110000(50000)  0.62020000(40000)  0.56480000(50000)  0.20167
 C2_30  C 1.0  0.43520000(50000)  0.46110000(40000)  0.37980000(50000)  0.20167
 C2_31  C 1.0  0.37980000(50000)  0.43520000(40000)  0.46110000(50000)  0.20167
 C2_32  C 1.0  0.53890000(50000)  0.62020000(40000)  0.43520000(50000)  0.20167
 C2_33  C 1.0  0.56480000(50000)  0.46110000(40000)  0.62020000(50000)  0.20167
 C2_34  C 1.0  0.37980000(50000)  0.43520000(40000)  0.53890000(50000)  0.20167
 C2_35  C 1.0  0.53890000(50000)  0.62020000(40000)  0.56480000(50000)  0.20167
 C2_36  C 1.0  0.56480000(50000)  0.46110000(40000)  0.37980000(50000)  0.20167
 C2_37  C 1.0  0.43520000(50000)  0.62020000(40000)  0.46110000(50000)  0.20167
 C2_38  C 1.0  0.62020000(50000)  0.46110000(40000)  0.43520000(50000)  0.20167
 C2_39  C 1.0  0.46110000(50000)  0.43520000(40000)  0.62020000(50000)  0.20167
 C2_40  C 1.0  0.43520000(50000)  0.62020000(40000)  0.53890000(50000)  0.20167
 C2_41  C 1.0  0.62020000(50000)  0.46110000(40000)  0.56480000(50000)  0.20167
 C2_42  C 1.0  0.46110000(50000)  0.43520000(40000)  0.37980000(50000)  0.20167
 C2_43  C 1.0  0.43520000(50000)  0.37980000(40000)  0.46110000(50000)  0.20167
 C2_44  C 1.0  0.62020000(50000)  0.53890000(40000)  0.43520000(50000)  0.20167
 C2_45  C 1.0  0.46110000(50000)  0.56480000(40000)  0.62020000(50000)  0.20167
 C2_46  C 1.0  0.43520000(50000)  0.37980000(40000)  0.53890000(50000)  0.20167
 C2_47  C 1.0  0.62020000(50000)  0.53890000(40000)  0.56480000(50000)  0.20167
 C2_48  C 1.0  0.46110000(50000)  0.56480000(40000)  0.37980000(50000)  0.20167
 C2_49  C 1.0  0.37980000(50000)  0.06480000(40000)  0.03890000(50000)  0.20167
 C2_50  C 1.0  0.87980000(50000)  0.06480000(40000)  0.53890000(50000)  0.20167
 C2_51  C 1.0  0.87980000(50000)  0.56480000(40000)  0.03890000(50000)  0.20167
 C2_52  C 1.0  0.53890000(50000)  0.87980000(40000)  0.06480000(50000)  0.20167
 C2_53  C 1.0  0.03890000(50000)  0.87980000(40000)  0.56480000(50000)  0.20167
 C2_54  C 1.0  0.03890000(50000)  0.37980000(40000)  0.06480000(50000)  0.20167
 C2_55  C 1.0  0.56480000(50000)  0.03890000(40000)  0.87980000(50000)  0.20167
 C2_56  C 1.0  0.06480000(50000)  0.03890000(40000)  0.37980000(50000)  0.20167
 C2_57  C 1.0  0.06480000(50000)  0.53890000(40000)  0.87980000(50000)  0.20167
 C2_58  C 1.0  0.37980000(50000)  0.06480000(40000)  0.96110000(50000)  0.20167
 C2_59  C 1.0  0.87980000(50000)  0.06480000(40000)  0.46110000(50000)  0.20167
 C2_60  C 1.0  0.87980000(50000)  0.56480000(40000)  0.96110000(50000)  0.20167
 C2_61  C 1.0  0.53890000(50000)  0.87980000(40000)  0.93520000(50000)  0.20167
 C2_62  C 1.0  0.03890000(50000)  0.87980000(40000)  0.43520000(50000)  0.20167
 C2_63  C 1.0  0.03890000(50000)  0.37980000(40000)  0.93520000(50000)  0.20167
 C2_64  C 1.0  0.56480000(50000)  0.03890000(40000)  0.12020000(50000)  0.20167
 C2_65  C 1.0  0.06480000(50000)  0.03890000(40000)  0.62020000(50000)  0.20167
 C2_66  C 1.0  0.06480000(50000)  0.53890000(40000)  0.12020000(50000)  0.20167
 C2_67  C 1.0  0.62020000(50000)  0.06480000(40000)  0.03890000(50000)  0.20167
 C2_68  C 1.0  0.12020000(50000)  0.06480000(40000)  0.53890000(50000)  0.20167
 C2_69  C 1.0  0.12020000(50000)  0.56480000(40000)  0.03890000(50000)  0.20167
 C2_70  C 1.0  0.46110000(50000)  0.87980000(40000)  0.06480000(50000)  0.20167
 C2_71  C 1.0  0.96110000(50000)  0.87980000(40000)  0.56480000(50000)  0.20167
 C2_72  C 1.0  0.96110000(50000)  0.37980000(40000)  0.06480000(50000)  0.20167
 C2_73  C 1.0  0.43520000(50000)  0.03890000(40000)  0.87980000(50000)  0.20167
 C2_74  C 1.0  0.93520000(50000)  0.03890000(40000)  0.37980000(50000)  0.20167
 C2_75  C 1.0  0.93520000(50000)  0.53890000(40000)  0.87980000(50000)  0.20167
 C2_76  C 1.0  0.62020000(50000)  0.06480000(40000)  0.96110000(50000)  0.20167
 C2_77  C 1.0  0.12020000(50000)  0.06480000(40000)  0.46110000(50000)  0.20167
 C2_78  C 1.0  0.12020000(50000)  0.56480000(40000)  0.96110000(50000)  0.20167
 C2_79  C 1.0  0.46110000(50000)  0.87980000(40000)  0.93520000(50000)  0.20167
 C2_80  C 1.0  0.96110000(50000)  0.87980000(40000)  0.43520000(50000)  0.20167
 C2_81  C 1.0  0.96110000(50000)  0.37980000(40000)  0.93520000(50000)  0.20167
 C2_82  C 1.0  0.43520000(50000)  0.03890000(40000)  0.12020000(50000)  0.20167
 C2_83  C 1.0  0.93520000(50000)  0.03890000(40000)  0.62020000(50000)  0.20167
 C2_84  C 1.0  0.93520000(50000)  0.53890000(40000)  0.12020000(50000)  0.20167
 C2_85  C 1.0  0.56480000(50000)  0.87980000(40000)  0.03890000(50000)  0.20167
 C2_86  C 1.0  0.06480000(50000)  0.87980000(40000)  0.53890000(50000)  0.20167
 C2_87  C 1.0  0.06480000(50000)  0.37980000(40000)  0.03890000(50000)  0.20167
 C2_88  C 1.0  0.37980000(50000)  0.03890000(40000)  0.06480000(50000)  0.20167
 C2_89  C 1.0  0.87980000(50000)  0.03890000(40000)  0.56480000(50000)  0.20167
 C2_90  C 1.0  0.87980000(50000)  0.53890000(40000)  0.06480000(50000)  0.20167
 C2_91  C 1.0  0.53890000(50000)  0.06480000(40000)  0.87980000(50000)  0.20167
 C2_92  C 1.0  0.03890000(50000)  0.06480000(40000)  0.37980000(50000)  0.20167
 C2_93  C 1.0  0.03890000(50000)  0.56480000(40000)  0.87980000(50000)  0.20167
 C2_94  C 1.0  0.56480000(50000)  0.87980000(40000)  0.96110000(50000)  0.20167
 C2_95  C 1.0  0.06480000(50000)  0.87980000(40000)  0.46110000(50000)  0.20167
 C2_96  C 1.0  0.06480000(50000)  0.37980000(40000)  0.96110000(50000)  0.20167
 C2_97  C 1.0  0.37980000(50000)  0.03890000(40000)  0.93520000(50000)  0.20167
 C2_98  C 1.0  0.87980000(50000)  0.03890000(40000)  0.43520000(50000)  0.20167
 C2_99  C 1.0  0.87980000(50000)  0.53890000(40000)  0.93520000(50000)  0.20167
 C2_100  C 1.0  0.53890000(50000)  0.06480000(40000)  0.12020000(50000)  0.20167
 C2_101  C 1.0  0.03890000(50000)  0.06480000(40000)  0.62020000(50000)  0.20167
 C2_102  C 1.0  0.03890000(50000)  0.56480000(40000)  0.12020000(50000)  0.20167
 C2_103  C 1.0  0.56480000(50000)  0.12020000(40000)  0.03890000(50000)  0.20167
 C2_104  C 1.0  0.06480000(50000)  0.12020000(40000)  0.53890000(50000)  0.20167
 C2_105  C 1.0  0.06480000(50000)  0.62020000(40000)  0.03890000(50000)  0.20167
 C2_106  C 1.0  0.37980000(50000)  0.96110000(40000)  0.06480000(50000)  0.20167
 C2_107  C 1.0  0.87980000(50000)  0.96110000(40000)  0.56480000(50000)  0.20167
 C2_108  C 1.0  0.87980000(50000)  0.46110000(40000)  0.06480000(50000)  0.20167
 C2_109  C 1.0  0.53890000(50000)  0.93520000(40000)  0.87980000(50000)  0.20167
 C2_110  C 1.0  0.03890000(50000)  0.93520000(40000)  0.37980000(50000)  0.20167
 C2_111  C 1.0  0.03890000(50000)  0.43520000(40000)  0.87980000(50000)  0.20167
 C2_112  C 1.0  0.56480000(50000)  0.12020000(40000)  0.96110000(50000)  0.20167
 C2_113  C 1.0  0.06480000(50000)  0.12020000(40000)  0.46110000(50000)  0.20167
 C2_114  C 1.0  0.06480000(50000)  0.62020000(40000)  0.96110000(50000)  0.20167
 C2_115  C 1.0  0.37980000(50000)  0.96110000(40000)  0.93520000(50000)  0.20167
 C2_116  C 1.0  0.87980000(50000)  0.96110000(40000)  0.43520000(50000)  0.20167
 C2_117  C 1.0  0.87980000(50000)  0.46110000(40000)  0.93520000(50000)  0.20167
 C2_118  C 1.0  0.53890000(50000)  0.93520000(40000)  0.12020000(50000)  0.20167
 C2_119  C 1.0  0.03890000(50000)  0.93520000(40000)  0.62020000(50000)  0.20167
 C2_120  C 1.0  0.03890000(50000)  0.43520000(40000)  0.12020000(50000)  0.20167
 C2_121  C 1.0  0.62020000(50000)  0.93520000(40000)  0.96110000(50000)  0.20167
 C2_122  C 1.0  0.12020000(50000)  0.93520000(40000)  0.46110000(50000)  0.20167
 C2_123  C 1.0  0.12020000(50000)  0.43520000(40000)  0.96110000(50000)  0.20167
 C2_124  C 1.0  0.46110000(50000)  0.12020000(40000)  0.93520000(50000)  0.20167
 C2_125  C 1.0  0.96110000(50000)  0.12020000(40000)  0.43520000(50000)  0.20167
 C2_126  C 1.0  0.96110000(50000)  0.62020000(40000)  0.93520000(50000)  0.20167
 C2_127  C 1.0  0.43520000(50000)  0.96110000(40000)  0.12020000(50000)  0.20167
 C2_128  C 1.0  0.93520000(50000)  0.96110000(40000)  0.62020000(50000)  0.20167
 C2_129  C 1.0  0.93520000(50000)  0.46110000(40000)  0.12020000(50000)  0.20167
 C2_130  C 1.0  0.62020000(50000)  0.93520000(40000)  0.03890000(50000)  0.20167
 C2_131  C 1.0  0.12020000(50000)  0.93520000(40000)  0.53890000(50000)  0.20167
 C2_132  C 1.0  0.12020000(50000)  0.43520000(40000)  0.03890000(50000)  0.20167
 C2_133  C 1.0  0.46110000(50000)  0.12020000(40000)  0.06480000(50000)  0.20167
 C2_134  C 1.0  0.96110000(50000)  0.12020000(40000)  0.56480000(50000)  0.20167
 C2_135  C 1.0  0.96110000(50000)  0.62020000(40000)  0.06480000(50000)  0.20167
 C2_136  C 1.0  0.43520000(50000)  0.96110000(40000)  0.87980000(50000)  0.20167
 C2_137  C 1.0  0.93520000(50000)  0.96110000(40000)  0.37980000(50000)  0.20167
 C2_138  C 1.0  0.93520000(50000)  0.46110000(40000)  0.87980000(50000)  0.20167
 C2_139  C 1.0  0.37980000(50000)  0.93520000(40000)  0.96110000(50000)  0.20167
 C2_140  C 1.0  0.87980000(50000)  0.93520000(40000)  0.46110000(50000)  0.20167
 C2_141  C 1.0  0.87980000(50000)  0.43520000(40000)  0.96110000(50000)  0.20167
 C2_142  C 1.0  0.53890000(50000)  0.12020000(40000)  0.93520000(50000)  0.20167
 C2_143  C 1.0  0.03890000(50000)  0.12020000(40000)  0.43520000(50000)  0.20167
 C2_144  C 1.0  0.03890000(50000)  0.62020000(40000)  0.93520000(50000)  0.20167
 C2_145  C 1.0  0.56480000(50000)  0.96110000(40000)  0.12020000(50000)  0.20167
 C2_146  C 1.0  0.06480000(50000)  0.96110000(40000)  0.62020000(50000)  0.20167
 C2_147  C 1.0  0.06480000(50000)  0.46110000(40000)  0.12020000(50000)  0.20167
 C2_148  C 1.0  0.37980000(50000)  0.93520000(40000)  0.03890000(50000)  0.20167
 C2_149  C 1.0  0.87980000(50000)  0.93520000(40000)  0.53890000(50000)  0.20167
 C2_150  C 1.0  0.87980000(50000)  0.43520000(40000)  0.03890000(50000)  0.20167
 C2_151  C 1.0  0.53890000(50000)  0.12020000(40000)  0.06480000(50000)  0.20167
 C2_152  C 1.0  0.03890000(50000)  0.12020000(40000)  0.56480000(50000)  0.20167
 C2_153  C 1.0  0.03890000(50000)  0.62020000(40000)  0.06480000(50000)  0.20167
 C2_154  C 1.0  0.56480000(50000)  0.96110000(40000)  0.87980000(50000)  0.20167
 C2_155  C 1.0  0.06480000(50000)  0.96110000(40000)  0.37980000(50000)  0.20167
 C2_156  C 1.0  0.06480000(50000)  0.46110000(40000)  0.87980000(50000)  0.20167
 C2_157  C 1.0  0.43520000(50000)  0.12020000(40000)  0.96110000(50000)  0.20167
 C2_158  C 1.0  0.93520000(50000)  0.12020000(40000)  0.46110000(50000)  0.20167
 C2_159  C 1.0  0.93520000(50000)  0.62020000(40000)  0.96110000(50000)  0.20167
 C2_160  C 1.0  0.62020000(50000)  0.96110000(40000)  0.93520000(50000)  0.20167
 C2_161  C 1.0  0.12020000(50000)  0.96110000(40000)  0.43520000(50000)  0.20167
 C2_162  C 1.0  0.12020000(50000)  0.46110000(40000)  0.93520000(50000)  0.20167
 C2_163  C 1.0  0.46110000(50000)  0.93520000(40000)  0.12020000(50000)  0.20167
 C2_164  C 1.0  0.96110000(50000)  0.93520000(40000)  0.62020000(50000)  0.20167
 C2_165  C 1.0  0.96110000(50000)  0.43520000(40000)  0.12020000(50000)  0.20167
 C2_166  C 1.0  0.43520000(50000)  0.12020000(40000)  0.03890000(50000)  0.20167
 C2_167  C 1.0  0.93520000(50000)  0.12020000(40000)  0.53890000(50000)  0.20167
 C2_168  C 1.0  0.93520000(50000)  0.62020000(40000)  0.03890000(50000)  0.20167
 C2_169  C 1.0  0.62020000(50000)  0.96110000(40000)  0.06480000(50000)  0.20167
 C2_170  C 1.0  0.12020000(50000)  0.96110000(40000)  0.56480000(50000)  0.20167
 C2_171  C 1.0  0.12020000(50000)  0.46110000(40000)  0.06480000(50000)  0.20167
 C2_172  C 1.0  0.46110000(50000)  0.93520000(40000)  0.87980000(50000)  0.20167
 C2_173  C 1.0  0.96110000(50000)  0.93520000(40000)  0.37980000(50000)  0.20167
 C2_174  C 1.0  0.96110000(50000)  0.43520000(40000)  0.87980000(50000)  0.20167
 C2_175  C 1.0  0.43520000(50000)  0.87980000(40000)  0.96110000(50000)  0.20167
 C2_176  C 1.0  0.93520000(50000)  0.87980000(40000)  0.46110000(50000)  0.20167
 C2_177  C 1.0  0.93520000(50000)  0.37980000(40000)  0.96110000(50000)  0.20167
 C2_178  C 1.0  0.62020000(50000)  0.03890000(40000)  0.93520000(50000)  0.20167
 C2_179  C 1.0  0.12020000(50000)  0.03890000(40000)  0.43520000(50000)  0.20167
 C2_180  C 1.0  0.12020000(50000)  0.53890000(40000)  0.93520000(50000)  0.20167
 C2_181  C 1.0  0.46110000(50000)  0.06480000(40000)  0.12020000(50000)  0.20167
 C2_182  C 1.0  0.96110000(50000)  0.06480000(40000)  0.62020000(50000)  0.20167
 C2_183  C 1.0  0.96110000(50000)  0.56480000(40000)  0.12020000(50000)  0.20167
 C2_184  C 1.0  0.43520000(50000)  0.87980000(40000)  0.03890000(50000)  0.20167
 C2_185  C 1.0  0.93520000(50000)  0.87980000(40000)  0.53890000(50000)  0.20167
 C2_186  C 1.0  0.93520000(50000)  0.37980000(40000)  0.03890000(50000)  0.20167
 C2_187  C 1.0  0.62020000(50000)  0.03890000(40000)  0.06480000(50000)  0.20167
 C2_188  C 1.0  0.12020000(50000)  0.03890000(40000)  0.56480000(50000)  0.20167
 C2_189  C 1.0  0.12020000(50000)  0.53890000(40000)  0.06480000(50000)  0.20167
 C2_190  C 1.0  0.46110000(50000)  0.06480000(40000)  0.87980000(50000)  0.20167
 C2_191  C 1.0  0.96110000(50000)  0.06480000(40000)  0.37980000(50000)  0.20167
 C2_192  C 1.0  0.96110000(50000)  0.56480000(40000)  0.87980000(50000)  0.20167
 C3  C 1.0  0.38660000(70000)  0.54930000(50000)  0.54930000(50000)  0.20100
 C3_2  C 1.0  0.54930000(70000)  0.38660000(50000)  0.54930000(50000)  0.20100
 C3_3  C 1.0  0.54930000(70000)  0.54930000(50000)  0.38660000(50000)  0.20100
 C3_4  C 1.0  0.38660000(70000)  0.54930000(50000)  0.45070000(50000)  0.20100
 C3_5  C 1.0  0.54930000(70000)  0.38660000(50000)  0.45070000(50000)  0.20100
 C3_6  C 1.0  0.54930000(70000)  0.54930000(50000)  0.61340000(50000)  0.20100
 C3_7  C 1.0  0.61340000(70000)  0.54930000(50000)  0.54930000(50000)  0.20100
 C3_8  C 1.0  0.45070000(70000)  0.38660000(50000)  0.54930000(50000)  0.20100
 C3_9  C 1.0  0.45070000(70000)  0.54930000(50000)  0.38660000(50000)  0.20100
 C3_10  C 1.0  0.61340000(70000)  0.54930000(50000)  0.45070000(50000)  0.20100
 C3_11  C 1.0  0.45070000(70000)  0.38660000(50000)  0.45070000(50000)  0.20100
 C3_12  C 1.0  0.45070000(70000)  0.54930000(50000)  0.61340000(50000)  0.20100
 C3_13  C 1.0  0.54930000(70000)  0.61340000(50000)  0.54930000(50000)  0.20100
 C3_14  C 1.0  0.38660000(70000)  0.45070000(50000)  0.54930000(50000)  0.20100
 C3_15  C 1.0  0.54930000(70000)  0.45070000(50000)  0.38660000(50000)  0.20100
 C3_16  C 1.0  0.54930000(70000)  0.61340000(50000)  0.45070000(50000)  0.20100
 C3_17  C 1.0  0.38660000(70000)  0.45070000(50000)  0.45070000(50000)  0.20100
 C3_18  C 1.0  0.54930000(70000)  0.45070000(50000)  0.61340000(50000)  0.20100
 C3_19  C 1.0  0.61340000(70000)  0.45070000(50000)  0.45070000(50000)  0.20100
 C3_20  C 1.0  0.45070000(70000)  0.61340000(50000)  0.45070000(50000)  0.20100
 C3_21  C 1.0  0.45070000(70000)  0.45070000(50000)  0.61340000(50000)  0.20100
 C3_22  C 1.0  0.61340000(70000)  0.45070000(50000)  0.54930000(50000)  0.20100
 C3_23  C 1.0  0.45070000(70000)  0.61340000(50000)  0.54930000(50000)  0.20100
 C3_24  C 1.0  0.45070000(70000)  0.45070000(50000)  0.38660000(50000)  0.20100
 C3_25  C 1.0  0.38660000(70000)  0.04930000(50000)  0.04930000(50000)  0.20100
 C3_26  C 1.0  0.88660000(70000)  0.04930000(50000)  0.54930000(50000)  0.20100
 C3_27  C 1.0  0.88660000(70000)  0.54930000(50000)  0.04930000(50000)  0.20100
 C3_28  C 1.0  0.54930000(70000)  0.88660000(50000)  0.04930000(50000)  0.20100
 C3_29  C 1.0  0.04930000(70000)  0.88660000(50000)  0.54930000(50000)  0.20100
 C3_30  C 1.0  0.04930000(70000)  0.38660000(50000)  0.04930000(50000)  0.20100
 C3_31  C 1.0  0.54930000(70000)  0.04930000(50000)  0.88660000(50000)  0.20100
 C3_32  C 1.0  0.04930000(70000)  0.04930000(50000)  0.38660000(50000)  0.20100
 C3_33  C 1.0  0.04930000(70000)  0.54930000(50000)  0.88660000(50000)  0.20100
 C3_34  C 1.0  0.38660000(70000)  0.04930000(50000)  0.95070000(50000)  0.20100
 C3_35  C 1.0  0.88660000(70000)  0.04930000(50000)  0.45070000(50000)  0.20100
 C3_36  C 1.0  0.88660000(70000)  0.54930000(50000)  0.95070000(50000)  0.20100
 C3_37  C 1.0  0.54930000(70000)  0.88660000(50000)  0.95070000(50000)  0.20100
 C3_38  C 1.0  0.04930000(70000)  0.88660000(50000)  0.45070000(50000)  0.20100
 C3_39  C 1.0  0.04930000(70000)  0.38660000(50000)  0.95070000(50000)  0.20100
 C3_40  C 1.0  0.54930000(70000)  0.04930000(50000)  0.11340000(50000)  0.20100
 C3_41  C 1.0  0.04930000(70000)  0.04930000(50000)  0.61340000(50000)  0.20100
 C3_42  C 1.0  0.04930000(70000)  0.54930000(50000)  0.11340000(50000)  0.20100
 C3_43  C 1.0  0.61340000(70000)  0.04930000(50000)  0.04930000(50000)  0.20100
 C3_44  C 1.0  0.11340000(70000)  0.04930000(50000)  0.54930000(50000)  0.20100
 C3_45  C 1.0  0.11340000(70000)  0.54930000(50000)  0.04930000(50000)  0.20100
 C3_46  C 1.0  0.45070000(70000)  0.88660000(50000)  0.04930000(50000)  0.20100
 C3_47  C 1.0  0.95070000(70000)  0.88660000(50000)  0.54930000(50000)  0.20100
 C3_48  C 1.0  0.95070000(70000)  0.38660000(50000)  0.04930000(50000)  0.20100
 C3_49  C 1.0  0.45070000(70000)  0.04930000(50000)  0.88660000(50000)  0.20100
 C3_50  C 1.0  0.95070000(70000)  0.04930000(50000)  0.38660000(50000)  0.20100
 C3_51  C 1.0  0.95070000(70000)  0.54930000(50000)  0.88660000(50000)  0.20100
 C3_52  C 1.0  0.61340000(70000)  0.04930000(50000)  0.95070000(50000)  0.20100
 C3_53  C 1.0  0.11340000(70000)  0.04930000(50000)  0.45070000(50000)  0.20100
 C3_54  C 1.0  0.11340000(70000)  0.54930000(50000)  0.95070000(50000)  0.20100
 C3_55  C 1.0  0.45070000(70000)  0.88660000(50000)  0.95070000(50000)  0.20100
 C3_56  C 1.0  0.95070000(70000)  0.88660000(50000)  0.45070000(50000)  0.20100
 C3_57  C 1.0  0.95070000(70000)  0.38660000(50000)  0.95070000(50000)  0.20100
 C3_58  C 1.0  0.45070000(70000)  0.04930000(50000)  0.11340000(50000)  0.20100
 C3_59  C 1.0  0.95070000(70000)  0.04930000(50000)  0.61340000(50000)  0.20100
 C3_60  C 1.0  0.95070000(70000)  0.54930000(50000)  0.11340000(50000)  0.20100
 C3_61  C 1.0  0.54930000(70000)  0.11340000(50000)  0.04930000(50000)  0.20100
 C3_62  C 1.0  0.04930000(70000)  0.11340000(50000)  0.54930000(50000)  0.20100
 C3_63  C 1.0  0.04930000(70000)  0.61340000(50000)  0.04930000(50000)  0.20100
 C3_64  C 1.0  0.38660000(70000)  0.95070000(50000)  0.04930000(50000)  0.20100
 C3_65  C 1.0  0.88660000(70000)  0.95070000(50000)  0.54930000(50000)  0.20100
 C3_66  C 1.0  0.88660000(70000)  0.45070000(50000)  0.04930000(50000)  0.20100
 C3_67  C 1.0  0.54930000(70000)  0.95070000(50000)  0.88660000(50000)  0.20100
 C3_68  C 1.0  0.04930000(70000)  0.95070000(50000)  0.38660000(50000)  0.20100
 C3_69  C 1.0  0.04930000(70000)  0.45070000(50000)  0.88660000(50000)  0.20100
 C3_70  C 1.0  0.54930000(70000)  0.11340000(50000)  0.95070000(50000)  0.20100
 C3_71  C 1.0  0.04930000(70000)  0.11340000(50000)  0.45070000(50000)  0.20100
 C3_72  C 1.0  0.04930000(70000)  0.61340000(50000)  0.95070000(50000)  0.20100
 C3_73  C 1.0  0.38660000(70000)  0.95070000(50000)  0.95070000(50000)  0.20100
 C3_74  C 1.0  0.88660000(70000)  0.95070000(50000)  0.45070000(50000)  0.20100
 C3_75  C 1.0  0.88660000(70000)  0.45070000(50000)  0.95070000(50000)  0.20100
 C3_76  C 1.0  0.54930000(70000)  0.95070000(50000)  0.11340000(50000)  0.20100
 C3_77  C 1.0  0.04930000(70000)  0.95070000(50000)  0.61340000(50000)  0.20100
 C3_78  C 1.0  0.04930000(70000)  0.45070000(50000)  0.11340000(50000)  0.20100
 C3_79  C 1.0  0.61340000(70000)  0.95070000(50000)  0.95070000(50000)  0.20100
 C3_80  C 1.0  0.11340000(70000)  0.95070000(50000)  0.45070000(50000)  0.20100
 C3_81  C 1.0  0.11340000(70000)  0.45070000(50000)  0.95070000(50000)  0.20100
 C3_82  C 1.0  0.45070000(70000)  0.11340000(50000)  0.95070000(50000)  0.20100
 C3_83  C 1.0  0.95070000(70000)  0.11340000(50000)  0.45070000(50000)  0.20100
 C3_84  C 1.0  0.95070000(70000)  0.61340000(50000)  0.95070000(50000)  0.20100
 C3_85  C 1.0  0.45070000(70000)  0.95070000(50000)  0.11340000(50000)  0.20100
 C3_86  C 1.0  0.95070000(70000)  0.95070000(50000)  0.61340000(50000)  0.20100
 C3_87  C 1.0  0.95070000(70000)  0.45070000(50000)  0.11340000(50000)  0.20100
 C3_88  C 1.0  0.61340000(70000)  0.95070000(50000)  0.04930000(50000)  0.20100
 C3_89  C 1.0  0.11340000(70000)  0.95070000(50000)  0.54930000(50000)  0.20100
 C3_90  C 1.0  0.11340000(70000)  0.45070000(50000)  0.04930000(50000)  0.20100
 C3_91  C 1.0  0.45070000(70000)  0.11340000(50000)  0.04930000(50000)  0.20100
 C3_92  C 1.0  0.95070000(70000)  0.11340000(50000)  0.54930000(50000)  0.20100
 C3_93  C 1.0  0.95070000(70000)  0.61340000(50000)  0.04930000(50000)  0.20100
 C3_94  C 1.0  0.45070000(70000)  0.95070000(50000)  0.88660000(50000)  0.20100
 C3_95  C 1.0  0.95070000(70000)  0.95070000(50000)  0.38660000(50000)  0.20100
 C3_96  C 1.0  0.95070000(70000)  0.45070000(50000)  0.88660000(50000)  0.20100
 C4  C 1.0  0.36310000(40000)  0.57070000(50000)  0.54800000(50000)  0.20167
 C4_2  C 1.0  0.54800000(40000)  0.36310000(50000)  0.57070000(50000)  0.20167
 C4_3  C 1.0  0.57070000(40000)  0.54800000(50000)  0.36310000(50000)  0.20167
 C4_4  C 1.0  0.36310000(40000)  0.57070000(50000)  0.45200000(50000)  0.20167
 C4_5  C 1.0  0.54800000(40000)  0.36310000(50000)  0.42930000(50000)  0.20167
 C4_6  C 1.0  0.57070000(40000)  0.54800000(50000)  0.63690000(50000)  0.20167
 C4_7  C 1.0  0.63690000(40000)  0.57070000(50000)  0.54800000(50000)  0.20167
 C4_8  C 1.0  0.45200000(40000)  0.36310000(50000)  0.57070000(50000)  0.20167
 C4_9  C 1.0  0.42930000(40000)  0.54800000(50000)  0.36310000(50000)  0.20167
 C4_10  C 1.0  0.63690000(40000)  0.57070000(50000)  0.45200000(50000)  0.20167
 C4_11  C 1.0  0.45200000(40000)  0.36310000(50000)  0.42930000(50000)  0.20167
 C4_12  C 1.0  0.42930000(40000)  0.54800000(50000)  0.63690000(50000)  0.20167
 C4_13  C 1.0  0.57070000(40000)  0.36310000(50000)  0.54800000(50000)  0.20167
 C4_14  C 1.0  0.36310000(40000)  0.54800000(50000)  0.57070000(50000)  0.20167
 C4_15  C 1.0  0.54800000(40000)  0.57070000(50000)  0.36310000(50000)  0.20167
 C4_16  C 1.0  0.57070000(40000)  0.36310000(50000)  0.45200000(50000)  0.20167
 C4_17  C 1.0  0.36310000(40000)  0.54800000(50000)  0.42930000(50000)  0.20167
 C4_18  C 1.0  0.54800000(40000)  0.57070000(50000)  0.63690000(50000)  0.20167
 C4_19  C 1.0  0.57070000(40000)  0.63690000(50000)  0.54800000(50000)  0.20167
 C4_20  C 1.0  0.36310000(40000)  0.45200000(50000)  0.57070000(50000)  0.20167
 C4_21  C 1.0  0.54800000(40000)  0.42930000(50000)  0.36310000(50000)  0.20167
 C4_22  C 1.0  0.57070000(40000)  0.63690000(50000)  0.45200000(50000)  0.20167
 C4_23  C 1.0  0.36310000(40000)  0.45200000(50000)  0.42930000(50000)  0.20167
 C4_24  C 1.0  0.54800000(40000)  0.42930000(50000)  0.63690000(50000)  0.20167
 C4_25  C 1.0  0.63690000(40000)  0.42930000(50000)  0.45200000(50000)  0.20167
 C4_26  C 1.0  0.45200000(40000)  0.63690000(50000)  0.42930000(50000)  0.20167
 C4_27  C 1.0  0.42930000(40000)  0.45200000(50000)  0.63690000(50000)  0.20167
 C4_28  C 1.0  0.63690000(40000)  0.42930000(50000)  0.54800000(50000)  0.20167
 C4_29  C 1.0  0.45200000(40000)  0.63690000(50000)  0.57070000(50000)  0.20167
 C4_30  C 1.0  0.42930000(40000)  0.45200000(50000)  0.36310000(50000)  0.20167
 C4_31  C 1.0  0.36310000(40000)  0.42930000(50000)  0.45200000(50000)  0.20167
 C4_32  C 1.0  0.54800000(40000)  0.63690000(50000)  0.42930000(50000)  0.20167
 C4_33  C 1.0  0.57070000(40000)  0.45200000(50000)  0.63690000(50000)  0.20167
 C4_34  C 1.0  0.36310000(40000)  0.42930000(50000)  0.54800000(50000)  0.20167
 C4_35  C 1.0  0.54800000(40000)  0.63690000(50000)  0.57070000(50000)  0.20167
 C4_36  C 1.0  0.57070000(40000)  0.45200000(50000)  0.36310000(50000)  0.20167
 C4_37  C 1.0  0.42930000(40000)  0.63690000(50000)  0.45200000(50000)  0.20167
 C4_38  C 1.0  0.63690000(40000)  0.45200000(50000)  0.42930000(50000)  0.20167
 C4_39  C 1.0  0.45200000(40000)  0.42930000(50000)  0.63690000(50000)  0.20167
 C4_40  C 1.0  0.42930000(40000)  0.63690000(50000)  0.54800000(50000)  0.20167
 C4_41  C 1.0  0.63690000(40000)  0.45200000(50000)  0.57070000(50000)  0.20167
 C4_42  C 1.0  0.45200000(40000)  0.42930000(50000)  0.36310000(50000)  0.20167
 C4_43  C 1.0  0.42930000(40000)  0.36310000(50000)  0.45200000(50000)  0.20167
 C4_44  C 1.0  0.63690000(40000)  0.54800000(50000)  0.42930000(50000)  0.20167
 C4_45  C 1.0  0.45200000(40000)  0.57070000(50000)  0.63690000(50000)  0.20167
 C4_46  C 1.0  0.42930000(40000)  0.36310000(50000)  0.54800000(50000)  0.20167
 C4_47  C 1.0  0.63690000(40000)  0.54800000(50000)  0.57070000(50000)  0.20167
 C4_48  C 1.0  0.45200000(40000)  0.57070000(50000)  0.36310000(50000)  0.20167
 C4_49  C 1.0  0.36310000(40000)  0.07070000(50000)  0.04800000(50000)  0.20167
 C4_50  C 1.0  0.86310000(40000)  0.07070000(50000)  0.54800000(50000)  0.20167
 C4_51  C 1.0  0.86310000(40000)  0.57070000(50000)  0.04800000(50000)  0.20167
 C4_52  C 1.0  0.54800000(40000)  0.86310000(50000)  0.07070000(50000)  0.20167
 C4_53  C 1.0  0.04800000(40000)  0.86310000(50000)  0.57070000(50000)  0.20167
 C4_54  C 1.0  0.04800000(40000)  0.36310000(50000)  0.07070000(50000)  0.20167
 C4_55  C 1.0  0.57070000(40000)  0.04800000(50000)  0.86310000(50000)  0.20167
 C4_56  C 1.0  0.07070000(40000)  0.04800000(50000)  0.36310000(50000)  0.20167
 C4_57  C 1.0  0.07070000(40000)  0.54800000(50000)  0.86310000(50000)  0.20167
 C4_58  C 1.0  0.36310000(40000)  0.07070000(50000)  0.95200000(50000)  0.20167
 C4_59  C 1.0  0.86310000(40000)  0.07070000(50000)  0.45200000(50000)  0.20167
 C4_60  C 1.0  0.86310000(40000)  0.57070000(50000)  0.95200000(50000)  0.20167
 C4_61  C 1.0  0.54800000(40000)  0.86310000(50000)  0.92930000(50000)  0.20167
 C4_62  C 1.0  0.04800000(40000)  0.86310000(50000)  0.42930000(50000)  0.20167
 C4_63  C 1.0  0.04800000(40000)  0.36310000(50000)  0.92930000(50000)  0.20167
 C4_64  C 1.0  0.57070000(40000)  0.04800000(50000)  0.13690000(50000)  0.20167
 C4_65  C 1.0  0.07070000(40000)  0.04800000(50000)  0.63690000(50000)  0.20167
 C4_66  C 1.0  0.07070000(40000)  0.54800000(50000)  0.13690000(50000)  0.20167
 C4_67  C 1.0  0.63690000(40000)  0.07070000(50000)  0.04800000(50000)  0.20167
 C4_68  C 1.0  0.13690000(40000)  0.07070000(50000)  0.54800000(50000)  0.20167
 C4_69  C 1.0  0.13690000(40000)  0.57070000(50000)  0.04800000(50000)  0.20167
 C4_70  C 1.0  0.45200000(40000)  0.86310000(50000)  0.07070000(50000)  0.20167
 C4_71  C 1.0  0.95200000(40000)  0.86310000(50000)  0.57070000(50000)  0.20167
 C4_72  C 1.0  0.95200000(40000)  0.36310000(50000)  0.07070000(50000)  0.20167
 C4_73  C 1.0  0.42930000(40000)  0.04800000(50000)  0.86310000(50000)  0.20167
 C4_74  C 1.0  0.92930000(40000)  0.04800000(50000)  0.36310000(50000)  0.20167
 C4_75  C 1.0  0.92930000(40000)  0.54800000(50000)  0.86310000(50000)  0.20167
 C4_76  C 1.0  0.63690000(40000)  0.07070000(50000)  0.95200000(50000)  0.20167
 C4_77  C 1.0  0.13690000(40000)  0.07070000(50000)  0.45200000(50000)  0.20167
 C4_78  C 1.0  0.13690000(40000)  0.57070000(50000)  0.95200000(50000)  0.20167
 C4_79  C 1.0  0.45200000(40000)  0.86310000(50000)  0.92930000(50000)  0.20167
 C4_80  C 1.0  0.95200000(40000)  0.86310000(50000)  0.42930000(50000)  0.20167
 C4_81  C 1.0  0.95200000(40000)  0.36310000(50000)  0.92930000(50000)  0.20167
 C4_82  C 1.0  0.42930000(40000)  0.04800000(50000)  0.13690000(50000)  0.20167
 C4_83  C 1.0  0.92930000(40000)  0.04800000(50000)  0.63690000(50000)  0.20167
 C4_84  C 1.0  0.92930000(40000)  0.54800000(50000)  0.13690000(50000)  0.20167
 C4_85  C 1.0  0.57070000(40000)  0.86310000(50000)  0.04800000(50000)  0.20167
 C4_86  C 1.0  0.07070000(40000)  0.86310000(50000)  0.54800000(50000)  0.20167
 C4_87  C 1.0  0.07070000(40000)  0.36310000(50000)  0.04800000(50000)  0.20167
 C4_88  C 1.0  0.36310000(40000)  0.04800000(50000)  0.07070000(50000)  0.20167
 C4_89  C 1.0  0.86310000(40000)  0.04800000(50000)  0.57070000(50000)  0.20167
 C4_90  C 1.0  0.86310000(40000)  0.54800000(50000)  0.07070000(50000)  0.20167
 C4_91  C 1.0  0.54800000(40000)  0.07070000(50000)  0.86310000(50000)  0.20167
 C4_92  C 1.0  0.04800000(40000)  0.07070000(50000)  0.36310000(50000)  0.20167
 C4_93  C 1.0  0.04800000(40000)  0.57070000(50000)  0.86310000(50000)  0.20167
 C4_94  C 1.0  0.57070000(40000)  0.86310000(50000)  0.95200000(50000)  0.20167
 C4_95  C 1.0  0.07070000(40000)  0.86310000(50000)  0.45200000(50000)  0.20167
 C4_96  C 1.0  0.07070000(40000)  0.36310000(50000)  0.95200000(50000)  0.20167
 C4_97  C 1.0  0.36310000(40000)  0.04800000(50000)  0.92930000(50000)  0.20167
 C4_98  C 1.0  0.86310000(40000)  0.04800000(50000)  0.42930000(50000)  0.20167
 C4_99  C 1.0  0.86310000(40000)  0.54800000(50000)  0.92930000(50000)  0.20167
 C4_100  C 1.0  0.54800000(40000)  0.07070000(50000)  0.13690000(50000)  0.20167
 C4_101  C 1.0  0.04800000(40000)  0.07070000(50000)  0.63690000(50000)  0.20167
 C4_102  C 1.0  0.04800000(40000)  0.57070000(50000)  0.13690000(50000)  0.20167
 C4_103  C 1.0  0.57070000(40000)  0.13690000(50000)  0.04800000(50000)  0.20167
 C4_104  C 1.0  0.07070000(40000)  0.13690000(50000)  0.54800000(50000)  0.20167
 C4_105  C 1.0  0.07070000(40000)  0.63690000(50000)  0.04800000(50000)  0.20167
 C4_106  C 1.0  0.36310000(40000)  0.95200000(50000)  0.07070000(50000)  0.20167
 C4_107  C 1.0  0.86310000(40000)  0.95200000(50000)  0.57070000(50000)  0.20167
 C4_108  C 1.0  0.86310000(40000)  0.45200000(50000)  0.07070000(50000)  0.20167
 C4_109  C 1.0  0.54800000(40000)  0.92930000(50000)  0.86310000(50000)  0.20167
 C4_110  C 1.0  0.04800000(40000)  0.92930000(50000)  0.36310000(50000)  0.20167
 C4_111  C 1.0  0.04800000(40000)  0.42930000(50000)  0.86310000(50000)  0.20167
 C4_112  C 1.0  0.57070000(40000)  0.13690000(50000)  0.95200000(50000)  0.20167
 C4_113  C 1.0  0.07070000(40000)  0.13690000(50000)  0.45200000(50000)  0.20167
 C4_114  C 1.0  0.07070000(40000)  0.63690000(50000)  0.95200000(50000)  0.20167
 C4_115  C 1.0  0.36310000(40000)  0.95200000(50000)  0.92930000(50000)  0.20167
 C4_116  C 1.0  0.86310000(40000)  0.95200000(50000)  0.42930000(50000)  0.20167
 C4_117  C 1.0  0.86310000(40000)  0.45200000(50000)  0.92930000(50000)  0.20167
 C4_118  C 1.0  0.54800000(40000)  0.92930000(50000)  0.13690000(50000)  0.20167
 C4_119  C 1.0  0.04800000(40000)  0.92930000(50000)  0.63690000(50000)  0.20167
 C4_120  C 1.0  0.04800000(40000)  0.42930000(50000)  0.13690000(50000)  0.20167
 C4_121  C 1.0  0.63690000(40000)  0.92930000(50000)  0.95200000(50000)  0.20167
 C4_122  C 1.0  0.13690000(40000)  0.92930000(50000)  0.45200000(50000)  0.20167
 C4_123  C 1.0  0.13690000(40000)  0.42930000(50000)  0.95200000(50000)  0.20167
 C4_124  C 1.0  0.45200000(40000)  0.13690000(50000)  0.92930000(50000)  0.20167
 C4_125  C 1.0  0.95200000(40000)  0.13690000(50000)  0.42930000(50000)  0.20167
 C4_126  C 1.0  0.95200000(40000)  0.63690000(50000)  0.92930000(50000)  0.20167
 C4_127  C 1.0  0.42930000(40000)  0.95200000(50000)  0.13690000(50000)  0.20167
 C4_128  C 1.0  0.92930000(40000)  0.95200000(50000)  0.63690000(50000)  0.20167
 C4_129  C 1.0  0.92930000(40000)  0.45200000(50000)  0.13690000(50000)  0.20167
 C4_130  C 1.0  0.63690000(40000)  0.92930000(50000)  0.04800000(50000)  0.20167
 C4_131  C 1.0  0.13690000(40000)  0.92930000(50000)  0.54800000(50000)  0.20167
 C4_132  C 1.0  0.13690000(40000)  0.42930000(50000)  0.04800000(50000)  0.20167
 C4_133  C 1.0  0.45200000(40000)  0.13690000(50000)  0.07070000(50000)  0.20167
 C4_134  C 1.0  0.95200000(40000)  0.13690000(50000)  0.57070000(50000)  0.20167
 C4_135  C 1.0  0.95200000(40000)  0.63690000(50000)  0.07070000(50000)  0.20167
 C4_136  C 1.0  0.42930000(40000)  0.95200000(50000)  0.86310000(50000)  0.20167
 C4_137  C 1.0  0.92930000(40000)  0.95200000(50000)  0.36310000(50000)  0.20167
 C4_138  C 1.0  0.92930000(40000)  0.45200000(50000)  0.86310000(50000)  0.20167
 C4_139  C 1.0  0.36310000(40000)  0.92930000(50000)  0.95200000(50000)  0.20167
 C4_140  C 1.0  0.86310000(40000)  0.92930000(50000)  0.45200000(50000)  0.20167
 C4_141  C 1.0  0.86310000(40000)  0.42930000(50000)  0.95200000(50000)  0.20167
 C4_142  C 1.0  0.54800000(40000)  0.13690000(50000)  0.92930000(50000)  0.20167
 C4_143  C 1.0  0.04800000(40000)  0.13690000(50000)  0.42930000(50000)  0.20167
 C4_144  C 1.0  0.04800000(40000)  0.63690000(50000)  0.92930000(50000)  0.20167
 C4_145  C 1.0  0.57070000(40000)  0.95200000(50000)  0.13690000(50000)  0.20167
 C4_146  C 1.0  0.07070000(40000)  0.95200000(50000)  0.63690000(50000)  0.20167
 C4_147  C 1.0  0.07070000(40000)  0.45200000(50000)  0.13690000(50000)  0.20167
 C4_148  C 1.0  0.36310000(40000)  0.92930000(50000)  0.04800000(50000)  0.20167
 C4_149  C 1.0  0.86310000(40000)  0.92930000(50000)  0.54800000(50000)  0.20167
 C4_150  C 1.0  0.86310000(40000)  0.42930000(50000)  0.04800000(50000)  0.20167
 C4_151  C 1.0  0.54800000(40000)  0.13690000(50000)  0.07070000(50000)  0.20167
 C4_152  C 1.0  0.04800000(40000)  0.13690000(50000)  0.57070000(50000)  0.20167
 C4_153  C 1.0  0.04800000(40000)  0.63690000(50000)  0.07070000(50000)  0.20167
 C4_154  C 1.0  0.57070000(40000)  0.95200000(50000)  0.86310000(50000)  0.20167
 C4_155  C 1.0  0.07070000(40000)  0.95200000(50000)  0.36310000(50000)  0.20167
 C4_156  C 1.0  0.07070000(40000)  0.45200000(50000)  0.86310000(50000)  0.20167
 C4_157  C 1.0  0.42930000(40000)  0.13690000(50000)  0.95200000(50000)  0.20167
 C4_158  C 1.0  0.92930000(40000)  0.13690000(50000)  0.45200000(50000)  0.20167
 C4_159  C 1.0  0.92930000(40000)  0.63690000(50000)  0.95200000(50000)  0.20167
 C4_160  C 1.0  0.63690000(40000)  0.95200000(50000)  0.92930000(50000)  0.20167
 C4_161  C 1.0  0.13690000(40000)  0.95200000(50000)  0.42930000(50000)  0.20167
 C4_162  C 1.0  0.13690000(40000)  0.45200000(50000)  0.92930000(50000)  0.20167
 C4_163  C 1.0  0.45200000(40000)  0.92930000(50000)  0.13690000(50000)  0.20167
 C4_164  C 1.0  0.95200000(40000)  0.92930000(50000)  0.63690000(50000)  0.20167
 C4_165  C 1.0  0.95200000(40000)  0.42930000(50000)  0.13690000(50000)  0.20167
 C4_166  C 1.0  0.42930000(40000)  0.13690000(50000)  0.04800000(50000)  0.20167
 C4_167  C 1.0  0.92930000(40000)  0.13690000(50000)  0.54800000(50000)  0.20167
 C4_168  C 1.0  0.92930000(40000)  0.63690000(50000)  0.04800000(50000)  0.20167
 C4_169  C 1.0  0.63690000(40000)  0.95200000(50000)  0.07070000(50000)  0.20167
 C4_170  C 1.0  0.13690000(40000)  0.95200000(50000)  0.57070000(50000)  0.20167
 C4_171  C 1.0  0.13690000(40000)  0.45200000(50000)  0.07070000(50000)  0.20167
 C4_172  C 1.0  0.45200000(40000)  0.92930000(50000)  0.86310000(50000)  0.20167
 C4_173  C 1.0  0.95200000(40000)  0.92930000(50000)  0.36310000(50000)  0.20167
 C4_174  C 1.0  0.95200000(40000)  0.42930000(50000)  0.86310000(50000)  0.20167
 C4_175  C 1.0  0.42930000(40000)  0.86310000(50000)  0.95200000(50000)  0.20167
 C4_176  C 1.0  0.92930000(40000)  0.86310000(50000)  0.45200000(50000)  0.20167
 C4_177  C 1.0  0.92930000(40000)  0.36310000(50000)  0.95200000(50000)  0.20167
 C4_178  C 1.0  0.63690000(40000)  0.04800000(50000)  0.92930000(50000)  0.20167
 C4_179  C 1.0  0.13690000(40000)  0.04800000(50000)  0.42930000(50000)  0.20167
 C4_180  C 1.0  0.13690000(40000)  0.54800000(50000)  0.92930000(50000)  0.20167
 C4_181  C 1.0  0.45200000(40000)  0.07070000(50000)  0.13690000(50000)  0.20167
 C4_182  C 1.0  0.95200000(40000)  0.07070000(50000)  0.63690000(50000)  0.20167
 C4_183  C 1.0  0.95200000(40000)  0.57070000(50000)  0.13690000(50000)  0.20167
 C4_184  C 1.0  0.42930000(40000)  0.86310000(50000)  0.04800000(50000)  0.20167
 C4_185  C 1.0  0.92930000(40000)  0.86310000(50000)  0.54800000(50000)  0.20167
 C4_186  C 1.0  0.92930000(40000)  0.36310000(50000)  0.04800000(50000)  0.20167
 C4_187  C 1.0  0.63690000(40000)  0.04800000(50000)  0.07070000(50000)  0.20167
 C4_188  C 1.0  0.13690000(40000)  0.04800000(50000)  0.57070000(50000)  0.20167
 C4_189  C 1.0  0.13690000(40000)  0.54800000(50000)  0.07070000(50000)  0.20167
 C4_190  C 1.0  0.45200000(40000)  0.07070000(50000)  0.86310000(50000)  0.20167
 C4_191  C 1.0  0.95200000(40000)  0.07070000(50000)  0.36310000(50000)  0.20167
 C4_192  C 1.0  0.95200000(40000)  0.57070000(50000)  0.86310000(50000)  0.20167
 C5  C 1.0  0.35200000(80000)  0.56250000(60000)  0.56250000(60000)  0.20233
 C5_2  C 1.0  0.56250000(80000)  0.35200000(60000)  0.56250000(60000)  0.20233
 C5_3  C 1.0  0.56250000(80000)  0.56250000(60000)  0.35200000(60000)  0.20233
 C5_4  C 1.0  0.35200000(80000)  0.56250000(60000)  0.43750000(60000)  0.20233
 C5_5  C 1.0  0.56250000(80000)  0.35200000(60000)  0.43750000(60000)  0.20233
 C5_6  C 1.0  0.56250000(80000)  0.56250000(60000)  0.64800000(60000)  0.20233
 C5_7  C 1.0  0.64800000(80000)  0.56250000(60000)  0.56250000(60000)  0.20233
 C5_8  C 1.0  0.43750000(80000)  0.35200000(60000)  0.56250000(60000)  0.20233
 C5_9  C 1.0  0.43750000(80000)  0.56250000(60000)  0.35200000(60000)  0.20233
 C5_10  C 1.0  0.64800000(80000)  0.56250000(60000)  0.43750000(60000)  0.20233
 C5_11  C 1.0  0.43750000(80000)  0.35200000(60000)  0.43750000(60000)  0.20233
 C5_12  C 1.0  0.43750000(80000)  0.56250000(60000)  0.64800000(60000)  0.20233
 C5_13  C 1.0  0.56250000(80000)  0.64800000(60000)  0.56250000(60000)  0.20233
 C5_14  C 1.0  0.35200000(80000)  0.43750000(60000)  0.56250000(60000)  0.20233
 C5_15  C 1.0  0.56250000(80000)  0.43750000(60000)  0.35200000(60000)  0.20233
 C5_16  C 1.0  0.56250000(80000)  0.64800000(60000)  0.43750000(60000)  0.20233
 C5_17  C 1.0  0.35200000(80000)  0.43750000(60000)  0.43750000(60000)  0.20233
 C5_18  C 1.0  0.56250000(80000)  0.43750000(60000)  0.64800000(60000)  0.20233
 C5_19  C 1.0  0.64800000(80000)  0.43750000(60000)  0.43750000(60000)  0.20233
 C5_20  C 1.0  0.43750000(80000)  0.64800000(60000)  0.43750000(60000)  0.20233
 C5_21  C 1.0  0.43750000(80000)  0.43750000(60000)  0.64800000(60000)  0.20233
 C5_22  C 1.0  0.64800000(80000)  0.43750000(60000)  0.56250000(60000)  0.20233
 C5_23  C 1.0  0.43750000(80000)  0.64800000(60000)  0.56250000(60000)  0.20233
 C5_24  C 1.0  0.43750000(80000)  0.43750000(60000)  0.35200000(60000)  0.20233
 C5_25  C 1.0  0.35200000(80000)  0.06250000(60000)  0.06250000(60000)  0.20233
 C5_26  C 1.0  0.85200000(80000)  0.06250000(60000)  0.56250000(60000)  0.20233
 C5_27  C 1.0  0.85200000(80000)  0.56250000(60000)  0.06250000(60000)  0.20233
 C5_28  C 1.0  0.56250000(80000)  0.85200000(60000)  0.06250000(60000)  0.20233
 C5_29  C 1.0  0.06250000(80000)  0.85200000(60000)  0.56250000(60000)  0.20233
 C5_30  C 1.0  0.06250000(80000)  0.35200000(60000)  0.06250000(60000)  0.20233
 C5_31  C 1.0  0.56250000(80000)  0.06250000(60000)  0.85200000(60000)  0.20233
 C5_32  C 1.0  0.06250000(80000)  0.06250000(60000)  0.35200000(60000)  0.20233
 C5_33  C 1.0  0.06250000(80000)  0.56250000(60000)  0.85200000(60000)  0.20233
 C5_34  C 1.0  0.35200000(80000)  0.06250000(60000)  0.93750000(60000)  0.20233
 C5_35  C 1.0  0.85200000(80000)  0.06250000(60000)  0.43750000(60000)  0.20233
 C5_36  C 1.0  0.85200000(80000)  0.56250000(60000)  0.93750000(60000)  0.20233
 C5_37  C 1.0  0.56250000(80000)  0.85200000(60000)  0.93750000(60000)  0.20233
 C5_38  C 1.0  0.06250000(80000)  0.85200000(60000)  0.43750000(60000)  0.20233
 C5_39  C 1.0  0.06250000(80000)  0.35200000(60000)  0.93750000(60000)  0.20233
 C5_40  C 1.0  0.56250000(80000)  0.06250000(60000)  0.14800000(60000)  0.20233
 C5_41  C 1.0  0.06250000(80000)  0.06250000(60000)  0.64800000(60000)  0.20233
 C5_42  C 1.0  0.06250000(80000)  0.56250000(60000)  0.14800000(60000)  0.20233
 C5_43  C 1.0  0.64800000(80000)  0.06250000(60000)  0.06250000(60000)  0.20233
 C5_44  C 1.0  0.14800000(80000)  0.06250000(60000)  0.56250000(60000)  0.20233
 C5_45  C 1.0  0.14800000(80000)  0.56250000(60000)  0.06250000(60000)  0.20233
 C5_46  C 1.0  0.43750000(80000)  0.85200000(60000)  0.06250000(60000)  0.20233
 C5_47  C 1.0  0.93750000(80000)  0.85200000(60000)  0.56250000(60000)  0.20233
 C5_48  C 1.0  0.93750000(80000)  0.35200000(60000)  0.06250000(60000)  0.20233
 C5_49  C 1.0  0.43750000(80000)  0.06250000(60000)  0.85200000(60000)  0.20233
 C5_50  C 1.0  0.93750000(80000)  0.06250000(60000)  0.35200000(60000)  0.20233
 C5_51  C 1.0  0.93750000(80000)  0.56250000(60000)  0.85200000(60000)  0.20233
 C5_52  C 1.0  0.64800000(80000)  0.06250000(60000)  0.93750000(60000)  0.20233
 C5_53  C 1.0  0.14800000(80000)  0.06250000(60000)  0.43750000(60000)  0.20233
 C5_54  C 1.0  0.14800000(80000)  0.56250000(60000)  0.93750000(60000)  0.20233
 C5_55  C 1.0  0.43750000(80000)  0.85200000(60000)  0.93750000(60000)  0.20233
 C5_56  C 1.0  0.93750000(80000)  0.85200000(60000)  0.43750000(60000)  0.20233
 C5_57  C 1.0  0.93750000(80000)  0.35200000(60000)  0.93750000(60000)  0.20233
 C5_58  C 1.0  0.43750000(80000)  0.06250000(60000)  0.14800000(60000)  0.20233
 C5_59  C 1.0  0.93750000(80000)  0.06250000(60000)  0.64800000(60000)  0.20233
 C5_60  C 1.0  0.93750000(80000)  0.56250000(60000)  0.14800000(60000)  0.20233
 C5_61  C 1.0  0.56250000(80000)  0.14800000(60000)  0.06250000(60000)  0.20233
 C5_62  C 1.0  0.06250000(80000)  0.14800000(60000)  0.56250000(60000)  0.20233
 C5_63  C 1.0  0.06250000(80000)  0.64800000(60000)  0.06250000(60000)  0.20233
 C5_64  C 1.0  0.35200000(80000)  0.93750000(60000)  0.06250000(60000)  0.20233
 C5_65  C 1.0  0.85200000(80000)  0.93750000(60000)  0.56250000(60000)  0.20233
 C5_66  C 1.0  0.85200000(80000)  0.43750000(60000)  0.06250000(60000)  0.20233
 C5_67  C 1.0  0.56250000(80000)  0.93750000(60000)  0.85200000(60000)  0.20233
 C5_68  C 1.0  0.06250000(80000)  0.93750000(60000)  0.35200000(60000)  0.20233
 C5_69  C 1.0  0.06250000(80000)  0.43750000(60000)  0.85200000(60000)  0.20233
 C5_70  C 1.0  0.56250000(80000)  0.14800000(60000)  0.93750000(60000)  0.20233
 C5_71  C 1.0  0.06250000(80000)  0.14800000(60000)  0.43750000(60000)  0.20233
 C5_72  C 1.0  0.06250000(80000)  0.64800000(60000)  0.93750000(60000)  0.20233
 C5_73  C 1.0  0.35200000(80000)  0.93750000(60000)  0.93750000(60000)  0.20233
 C5_74  C 1.0  0.85200000(80000)  0.93750000(60000)  0.43750000(60000)  0.20233
 C5_75  C 1.0  0.85200000(80000)  0.43750000(60000)  0.93750000(60000)  0.20233
 C5_76  C 1.0  0.56250000(80000)  0.93750000(60000)  0.14800000(60000)  0.20233
 C5_77  C 1.0  0.06250000(80000)  0.93750000(60000)  0.64800000(60000)  0.20233
 C5_78  C 1.0  0.06250000(80000)  0.43750000(60000)  0.14800000(60000)  0.20233
 C5_79  C 1.0  0.64800000(80000)  0.93750000(60000)  0.93750000(60000)  0.20233
 C5_80  C 1.0  0.14800000(80000)  0.93750000(60000)  0.43750000(60000)  0.20233
 C5_81  C 1.0  0.14800000(80000)  0.43750000(60000)  0.93750000(60000)  0.20233
 C5_82  C 1.0  0.43750000(80000)  0.14800000(60000)  0.93750000(60000)  0.20233
 C5_83  C 1.0  0.93750000(80000)  0.14800000(60000)  0.43750000(60000)  0.20233
 C5_84  C 1.0  0.93750000(80000)  0.64800000(60000)  0.93750000(60000)  0.20233
 C5_85  C 1.0  0.43750000(80000)  0.93750000(60000)  0.14800000(60000)  0.20233
 C5_86  C 1.0  0.93750000(80000)  0.93750000(60000)  0.64800000(60000)  0.20233
 C5_87  C 1.0  0.93750000(80000)  0.43750000(60000)  0.14800000(60000)  0.20233
 C5_88  C 1.0  0.64800000(80000)  0.93750000(60000)  0.06250000(60000)  0.20233
 C5_89  C 1.0  0.14800000(80000)  0.93750000(60000)  0.56250000(60000)  0.20233
 C5_90  C 1.0  0.14800000(80000)  0.43750000(60000)  0.06250000(60000)  0.20233
 C5_91  C 1.0  0.43750000(80000)  0.14800000(60000)  0.06250000(60000)  0.20233
 C5_92  C 1.0  0.93750000(80000)  0.14800000(60000)  0.56250000(60000)  0.20233
 C5_93  C 1.0  0.93750000(80000)  0.64800000(60000)  0.06250000(60000)  0.20233
 C5_94  C 1.0  0.43750000(80000)  0.93750000(60000)  0.85200000(60000)  0.20233
 C5_95  C 1.0  0.93750000(80000)  0.93750000(60000)  0.35200000(60000)  0.20233
 C5_96  C 1.0  0.93750000(80000)  0.43750000(60000)  0.85200000(60000)  0.20233
 C6  C 1.0  0.33360000(80000)  0.56920000(60000)  0.56920000(60000)  0.20433
 C6_2  C 1.0  0.56920000(80000)  0.33360000(60000)  0.56920000(60000)  0.20433
 C6_3  C 1.0  0.56920000(80000)  0.56920000(60000)  0.33360000(60000)  0.20433
 C6_4  C 1.0  0.33360000(80000)  0.56920000(60000)  0.43080000(60000)  0.20433
 C6_5  C 1.0  0.56920000(80000)  0.33360000(60000)  0.43080000(60000)  0.20433
 C6_6  C 1.0  0.56920000(80000)  0.56920000(60000)  0.66640000(60000)  0.20433
 C6_7  C 1.0  0.66640000(80000)  0.56920000(60000)  0.56920000(60000)  0.20433
 C6_8  C 1.0  0.43080000(80000)  0.33360000(60000)  0.56920000(60000)  0.20433
 C6_9  C 1.0  0.43080000(80000)  0.56920000(60000)  0.33360000(60000)  0.20433
 C6_10  C 1.0  0.66640000(80000)  0.56920000(60000)  0.43080000(60000)  0.20433
 C6_11  C 1.0  0.43080000(80000)  0.33360000(60000)  0.43080000(60000)  0.20433
 C6_12  C 1.0  0.43080000(80000)  0.56920000(60000)  0.66640000(60000)  0.20433
 C6_13  C 1.0  0.56920000(80000)  0.66640000(60000)  0.56920000(60000)  0.20433
 C6_14  C 1.0  0.33360000(80000)  0.43080000(60000)  0.56920000(60000)  0.20433
 C6_15  C 1.0  0.56920000(80000)  0.43080000(60000)  0.33360000(60000)  0.20433
 C6_16  C 1.0  0.56920000(80000)  0.66640000(60000)  0.43080000(60000)  0.20433
 C6_17  C 1.0  0.33360000(80000)  0.43080000(60000)  0.43080000(60000)  0.20433
 C6_18  C 1.0  0.56920000(80000)  0.43080000(60000)  0.66640000(60000)  0.20433
 C6_19  C 1.0  0.66640000(80000)  0.43080000(60000)  0.43080000(60000)  0.20433
 C6_20  C 1.0  0.43080000(80000)  0.66640000(60000)  0.43080000(60000)  0.20433
 C6_21  C 1.0  0.43080000(80000)  0.43080000(60000)  0.66640000(60000)  0.20433
 C6_22  C 1.0  0.66640000(80000)  0.43080000(60000)  0.56920000(60000)  0.20433
 C6_23  C 1.0  0.43080000(80000)  0.66640000(60000)  0.56920000(60000)  0.20433
 C6_24  C 1.0  0.43080000(80000)  0.43080000(60000)  0.33360000(60000)  0.20433
 C6_25  C 1.0  0.33360000(80000)  0.06920000(60000)  0.06920000(60000)  0.20433
 C6_26  C 1.0  0.83360000(80000)  0.06920000(60000)  0.56920000(60000)  0.20433
 C6_27  C 1.0  0.83360000(80000)  0.56920000(60000)  0.06920000(60000)  0.20433
 C6_28  C 1.0  0.56920000(80000)  0.83360000(60000)  0.06920000(60000)  0.20433
 C6_29  C 1.0  0.06920000(80000)  0.83360000(60000)  0.56920000(60000)  0.20433
 C6_30  C 1.0  0.06920000(80000)  0.33360000(60000)  0.06920000(60000)  0.20433
 C6_31  C 1.0  0.56920000(80000)  0.06920000(60000)  0.83360000(60000)  0.20433
 C6_32  C 1.0  0.06920000(80000)  0.06920000(60000)  0.33360000(60000)  0.20433
 C6_33  C 1.0  0.06920000(80000)  0.56920000(60000)  0.83360000(60000)  0.20433
 C6_34  C 1.0  0.33360000(80000)  0.06920000(60000)  0.93080000(60000)  0.20433
 C6_35  C 1.0  0.83360000(80000)  0.06920000(60000)  0.43080000(60000)  0.20433
 C6_36  C 1.0  0.83360000(80000)  0.56920000(60000)  0.93080000(60000)  0.20433
 C6_37  C 1.0  0.56920000(80000)  0.83360000(60000)  0.93080000(60000)  0.20433
 C6_38  C 1.0  0.06920000(80000)  0.83360000(60000)  0.43080000(60000)  0.20433
 C6_39  C 1.0  0.06920000(80000)  0.33360000(60000)  0.93080000(60000)  0.20433
 C6_40  C 1.0  0.56920000(80000)  0.06920000(60000)  0.16640000(60000)  0.20433
 C6_41  C 1.0  0.06920000(80000)  0.06920000(60000)  0.66640000(60000)  0.20433
 C6_42  C 1.0  0.06920000(80000)  0.56920000(60000)  0.16640000(60000)  0.20433
 C6_43  C 1.0  0.66640000(80000)  0.06920000(60000)  0.06920000(60000)  0.20433
 C6_44  C 1.0  0.16640000(80000)  0.06920000(60000)  0.56920000(60000)  0.20433
 C6_45  C 1.0  0.16640000(80000)  0.56920000(60000)  0.06920000(60000)  0.20433
 C6_46  C 1.0  0.43080000(80000)  0.83360000(60000)  0.06920000(60000)  0.20433
 C6_47  C 1.0  0.93080000(80000)  0.83360000(60000)  0.56920000(60000)  0.20433
 C6_48  C 1.0  0.93080000(80000)  0.33360000(60000)  0.06920000(60000)  0.20433
 C6_49  C 1.0  0.43080000(80000)  0.06920000(60000)  0.83360000(60000)  0.20433
 C6_50  C 1.0  0.93080000(80000)  0.06920000(60000)  0.33360000(60000)  0.20433
 C6_51  C 1.0  0.93080000(80000)  0.56920000(60000)  0.83360000(60000)  0.20433
 C6_52  C 1.0  0.66640000(80000)  0.06920000(60000)  0.93080000(60000)  0.20433
 C6_53  C 1.0  0.16640000(80000)  0.06920000(60000)  0.43080000(60000)  0.20433
 C6_54  C 1.0  0.16640000(80000)  0.56920000(60000)  0.93080000(60000)  0.20433
 C6_55  C 1.0  0.43080000(80000)  0.83360000(60000)  0.93080000(60000)  0.20433
 C6_56  C 1.0  0.93080000(80000)  0.83360000(60000)  0.43080000(60000)  0.20433
 C6_57  C 1.0  0.93080000(80000)  0.33360000(60000)  0.93080000(60000)  0.20433
 C6_58  C 1.0  0.43080000(80000)  0.06920000(60000)  0.16640000(60000)  0.20433
 C6_59  C 1.0  0.93080000(80000)  0.06920000(60000)  0.66640000(60000)  0.20433
 C6_60  C 1.0  0.93080000(80000)  0.56920000(60000)  0.16640000(60000)  0.20433
 C6_61  C 1.0  0.56920000(80000)  0.16640000(60000)  0.06920000(60000)  0.20433
 C6_62  C 1.0  0.06920000(80000)  0.16640000(60000)  0.56920000(60000)  0.20433
 C6_63  C 1.0  0.06920000(80000)  0.66640000(60000)  0.06920000(60000)  0.20433
 C6_64  C 1.0  0.33360000(80000)  0.93080000(60000)  0.06920000(60000)  0.20433
 C6_65  C 1.0  0.83360000(80000)  0.93080000(60000)  0.56920000(60000)  0.20433
 C6_66  C 1.0  0.83360000(80000)  0.43080000(60000)  0.06920000(60000)  0.20433
 C6_67  C 1.0  0.56920000(80000)  0.93080000(60000)  0.83360000(60000)  0.20433
 C6_68  C 1.0  0.06920000(80000)  0.93080000(60000)  0.33360000(60000)  0.20433
 C6_69  C 1.0  0.06920000(80000)  0.43080000(60000)  0.83360000(60000)  0.20433
 C6_70  C 1.0  0.56920000(80000)  0.16640000(60000)  0.93080000(60000)  0.20433
 C6_71  C 1.0  0.06920000(80000)  0.16640000(60000)  0.43080000(60000)  0.20433
 C6_72  C 1.0  0.06920000(80000)  0.66640000(60000)  0.93080000(60000)  0.20433
 C6_73  C 1.0  0.33360000(80000)  0.93080000(60000)  0.93080000(60000)  0.20433
 C6_74  C 1.0  0.83360000(80000)  0.93080000(60000)  0.43080000(60000)  0.20433
 C6_75  C 1.0  0.83360000(80000)  0.43080000(60000)  0.93080000(60000)  0.20433
 C6_76  C 1.0  0.56920000(80000)  0.93080000(60000)  0.16640000(60000)  0.20433
 C6_77  C 1.0  0.06920000(80000)  0.93080000(60000)  0.66640000(60000)  0.20433
 C6_78  C 1.0  0.06920000(80000)  0.43080000(60000)  0.16640000(60000)  0.20433
 C6_79  C 1.0  0.66640000(80000)  0.93080000(60000)  0.93080000(60000)  0.20433
 C6_80  C 1.0  0.16640000(80000)  0.93080000(60000)  0.43080000(60000)  0.20433
 C6_81  C 1.0  0.16640000(80000)  0.43080000(60000)  0.93080000(60000)  0.20433
 C6_82  C 1.0  0.43080000(80000)  0.16640000(60000)  0.93080000(60000)  0.20433
 C6_83  C 1.0  0.93080000(80000)  0.16640000(60000)  0.43080000(60000)  0.20433
 C6_84  C 1.0  0.93080000(80000)  0.66640000(60000)  0.93080000(60000)  0.20433
 C6_85  C 1.0  0.43080000(80000)  0.93080000(60000)  0.16640000(60000)  0.20433
 C6_86  C 1.0  0.93080000(80000)  0.93080000(60000)  0.66640000(60000)  0.20433
 C6_87  C 1.0  0.93080000(80000)  0.43080000(60000)  0.16640000(60000)  0.20433
 C6_88  C 1.0  0.66640000(80000)  0.93080000(60000)  0.06920000(60000)  0.20433
 C6_89  C 1.0  0.16640000(80000)  0.93080000(60000)  0.56920000(60000)  0.20433
 C6_90  C 1.0  0.16640000(80000)  0.43080000(60000)  0.06920000(60000)  0.20433
 C6_91  C 1.0  0.43080000(80000)  0.16640000(60000)  0.06920000(60000)  0.20433
 C6_92  C 1.0  0.93080000(80000)  0.16640000(60000)  0.56920000(60000)  0.20433
 C6_93  C 1.0  0.93080000(80000)  0.66640000(60000)  0.06920000(60000)  0.20433
 C6_94  C 1.0  0.43080000(80000)  0.93080000(60000)  0.83360000(60000)  0.20433
 C6_95  C 1.0  0.93080000(80000)  0.93080000(60000)  0.33360000(60000)  0.20433
 C6_96  C 1.0  0.93080000(80000)  0.43080000(60000)  0.83360000(60000)  0.20433
 C7  C 1.0  0.31790000(80000)  0.57440000(60000)  0.57440000(60000)  0.20667
 C7_2  C 1.0  0.57440000(80000)  0.31790000(60000)  0.57440000(60000)  0.20667
 C7_3  C 1.0  0.57440000(80000)  0.57440000(60000)  0.31790000(60000)  0.20667
 C7_4  C 1.0  0.31790000(80000)  0.57440000(60000)  0.42560000(60000)  0.20667
 C7_5  C 1.0  0.57440000(80000)  0.31790000(60000)  0.42560000(60000)  0.20667
 C7_6  C 1.0  0.57440000(80000)  0.57440000(60000)  0.68210000(60000)  0.20667
 C7_7  C 1.0  0.68210000(80000)  0.57440000(60000)  0.57440000(60000)  0.20667
 C7_8  C 1.0  0.42560000(80000)  0.31790000(60000)  0.57440000(60000)  0.20667
 C7_9  C 1.0  0.42560000(80000)  0.57440000(60000)  0.31790000(60000)  0.20667
 C7_10  C 1.0  0.68210000(80000)  0.57440000(60000)  0.42560000(60000)  0.20667
 C7_11  C 1.0  0.42560000(80000)  0.31790000(60000)  0.42560000(60000)  0.20667
 C7_12  C 1.0  0.42560000(80000)  0.57440000(60000)  0.68210000(60000)  0.20667
 C7_13  C 1.0  0.57440000(80000)  0.68210000(60000)  0.57440000(60000)  0.20667
 C7_14  C 1.0  0.31790000(80000)  0.42560000(60000)  0.57440000(60000)  0.20667
 C7_15  C 1.0  0.57440000(80000)  0.42560000(60000)  0.31790000(60000)  0.20667
 C7_16  C 1.0  0.57440000(80000)  0.68210000(60000)  0.42560000(60000)  0.20667
 C7_17  C 1.0  0.31790000(80000)  0.42560000(60000)  0.42560000(60000)  0.20667
 C7_18  C 1.0  0.57440000(80000)  0.42560000(60000)  0.68210000(60000)  0.20667
 C7_19  C 1.0  0.68210000(80000)  0.42560000(60000)  0.42560000(60000)  0.20667
 C7_20  C 1.0  0.42560000(80000)  0.68210000(60000)  0.42560000(60000)  0.20667
 C7_21  C 1.0  0.42560000(80000)  0.42560000(60000)  0.68210000(60000)  0.20667
 C7_22  C 1.0  0.68210000(80000)  0.42560000(60000)  0.57440000(60000)  0.20667
 C7_23  C 1.0  0.42560000(80000)  0.68210000(60000)  0.57440000(60000)  0.20667
 C7_24  C 1.0  0.42560000(80000)  0.42560000(60000)  0.31790000(60000)  0.20667
 C7_25  C 1.0  0.31790000(80000)  0.07440000(60000)  0.07440000(60000)  0.20667
 C7_26  C 1.0  0.81790000(80000)  0.07440000(60000)  0.57440000(60000)  0.20667
 C7_27  C 1.0  0.81790000(80000)  0.57440000(60000)  0.07440000(60000)  0.20667
 C7_28  C 1.0  0.57440000(80000)  0.81790000(60000)  0.07440000(60000)  0.20667
 C7_29  C 1.0  0.07440000(80000)  0.81790000(60000)  0.57440000(60000)  0.20667
 C7_30  C 1.0  0.07440000(80000)  0.31790000(60000)  0.07440000(60000)  0.20667
 C7_31  C 1.0  0.57440000(80000)  0.07440000(60000)  0.81790000(60000)  0.20667
 C7_32  C 1.0  0.07440000(80000)  0.07440000(60000)  0.31790000(60000)  0.20667
 C7_33  C 1.0  0.07440000(80000)  0.57440000(60000)  0.81790000(60000)  0.20667
 C7_34  C 1.0  0.31790000(80000)  0.07440000(60000)  0.92560000(60000)  0.20667
 C7_35  C 1.0  0.81790000(80000)  0.07440000(60000)  0.42560000(60000)  0.20667
 C7_36  C 1.0  0.81790000(80000)  0.57440000(60000)  0.92560000(60000)  0.20667
 C7_37  C 1.0  0.57440000(80000)  0.81790000(60000)  0.92560000(60000)  0.20667
 C7_38  C 1.0  0.07440000(80000)  0.81790000(60000)  0.42560000(60000)  0.20667
 C7_39  C 1.0  0.07440000(80000)  0.31790000(60000)  0.92560000(60000)  0.20667
 C7_40  C 1.0  0.57440000(80000)  0.07440000(60000)  0.18210000(60000)  0.20667
 C7_41  C 1.0  0.07440000(80000)  0.07440000(60000)  0.68210000(60000)  0.20667
 C7_42  C 1.0  0.07440000(80000)  0.57440000(60000)  0.18210000(60000)  0.20667
 C7_43  C 1.0  0.68210000(80000)  0.07440000(60000)  0.07440000(60000)  0.20667
 C7_44  C 1.0  0.18210000(80000)  0.07440000(60000)  0.57440000(60000)  0.20667
 C7_45  C 1.0  0.18210000(80000)  0.57440000(60000)  0.07440000(60000)  0.20667
 C7_46  C 1.0  0.42560000(80000)  0.81790000(60000)  0.07440000(60000)  0.20667
 C7_47  C 1.0  0.92560000(80000)  0.81790000(60000)  0.57440000(60000)  0.20667
 C7_48  C 1.0  0.92560000(80000)  0.31790000(60000)  0.07440000(60000)  0.20667
 C7_49  C 1.0  0.42560000(80000)  0.07440000(60000)  0.81790000(60000)  0.20667
 C7_50  C 1.0  0.92560000(80000)  0.07440000(60000)  0.31790000(60000)  0.20667
 C7_51  C 1.0  0.92560000(80000)  0.57440000(60000)  0.81790000(60000)  0.20667
 C7_52  C 1.0  0.68210000(80000)  0.07440000(60000)  0.92560000(60000)  0.20667
 C7_53  C 1.0  0.18210000(80000)  0.07440000(60000)  0.42560000(60000)  0.20667
 C7_54  C 1.0  0.18210000(80000)  0.57440000(60000)  0.92560000(60000)  0.20667
 C7_55  C 1.0  0.42560000(80000)  0.81790000(60000)  0.92560000(60000)  0.20667
 C7_56  C 1.0  0.92560000(80000)  0.81790000(60000)  0.42560000(60000)  0.20667
 C7_57  C 1.0  0.92560000(80000)  0.31790000(60000)  0.92560000(60000)  0.20667
 C7_58  C 1.0  0.42560000(80000)  0.07440000(60000)  0.18210000(60000)  0.20667
 C7_59  C 1.0  0.92560000(80000)  0.07440000(60000)  0.68210000(60000)  0.20667
 C7_60  C 1.0  0.92560000(80000)  0.57440000(60000)  0.18210000(60000)  0.20667
 C7_61  C 1.0  0.57440000(80000)  0.18210000(60000)  0.07440000(60000)  0.20667
 C7_62  C 1.0  0.07440000(80000)  0.18210000(60000)  0.57440000(60000)  0.20667
 C7_63  C 1.0  0.07440000(80000)  0.68210000(60000)  0.07440000(60000)  0.20667
 C7_64  C 1.0  0.31790000(80000)  0.92560000(60000)  0.07440000(60000)  0.20667
 C7_65  C 1.0  0.81790000(80000)  0.92560000(60000)  0.57440000(60000)  0.20667
 C7_66  C 1.0  0.81790000(80000)  0.42560000(60000)  0.07440000(60000)  0.20667
 C7_67  C 1.0  0.57440000(80000)  0.92560000(60000)  0.81790000(60000)  0.20667
 C7_68  C 1.0  0.07440000(80000)  0.92560000(60000)  0.31790000(60000)  0.20667
 C7_69  C 1.0  0.07440000(80000)  0.42560000(60000)  0.81790000(60000)  0.20667
 C7_70  C 1.0  0.57440000(80000)  0.18210000(60000)  0.92560000(60000)  0.20667
 C7_71  C 1.0  0.07440000(80000)  0.18210000(60000)  0.42560000(60000)  0.20667
 C7_72  C 1.0  0.07440000(80000)  0.68210000(60000)  0.92560000(60000)  0.20667
 C7_73  C 1.0  0.31790000(80000)  0.92560000(60000)  0.92560000(60000)  0.20667
 C7_74  C 1.0  0.81790000(80000)  0.92560000(60000)  0.42560000(60000)  0.20667
 C7_75  C 1.0  0.81790000(80000)  0.42560000(60000)  0.92560000(60000)  0.20667
 C7_76  C 1.0  0.57440000(80000)  0.92560000(60000)  0.18210000(60000)  0.20667
 C7_77  C 1.0  0.07440000(80000)  0.92560000(60000)  0.68210000(60000)  0.20667
 C7_78  C 1.0  0.07440000(80000)  0.42560000(60000)  0.18210000(60000)  0.20667
 C7_79  C 1.0  0.68210000(80000)  0.92560000(60000)  0.92560000(60000)  0.20667
 C7_80  C 1.0  0.18210000(80000)  0.92560000(60000)  0.42560000(60000)  0.20667
 C7_81  C 1.0  0.18210000(80000)  0.42560000(60000)  0.92560000(60000)  0.20667
 C7_82  C 1.0  0.42560000(80000)  0.18210000(60000)  0.92560000(60000)  0.20667
 C7_83  C 1.0  0.92560000(80000)  0.18210000(60000)  0.42560000(60000)  0.20667
 C7_84  C 1.0  0.92560000(80000)  0.68210000(60000)  0.92560000(60000)  0.20667
 C7_85  C 1.0  0.42560000(80000)  0.92560000(60000)  0.18210000(60000)  0.20667
 C7_86  C 1.0  0.92560000(80000)  0.92560000(60000)  0.68210000(60000)  0.20667
 C7_87  C 1.0  0.92560000(80000)  0.42560000(60000)  0.18210000(60000)  0.20667
 C7_88  C 1.0  0.68210000(80000)  0.92560000(60000)  0.07440000(60000)  0.20667
 C7_89  C 1.0  0.18210000(80000)  0.92560000(60000)  0.57440000(60000)  0.20667
 C7_90  C 1.0  0.18210000(80000)  0.42560000(60000)  0.07440000(60000)  0.20667
 C7_91  C 1.0  0.42560000(80000)  0.18210000(60000)  0.07440000(60000)  0.20667
 C7_92  C 1.0  0.92560000(80000)  0.18210000(60000)  0.57440000(60000)  0.20667
 C7_93  C 1.0  0.92560000(80000)  0.68210000(60000)  0.07440000(60000)  0.20667
 C7_94  C 1.0  0.42560000(80000)  0.92560000(60000)  0.81790000(60000)  0.20667
 C7_95  C 1.0  0.92560000(80000)  0.92560000(60000)  0.31790000(60000)  0.20667
 C7_96  C 1.0  0.92560000(80000)  0.42560000(60000)  0.81790000(60000)  0.20667
 C8  C 1.0  0.30150000(80000)  0.58330000(60000)  0.58330000(60000)  0.21067
 C8_2  C 1.0  0.58330000(80000)  0.30150000(60000)  0.58330000(60000)  0.21067
 C8_3  C 1.0  0.58330000(80000)  0.58330000(60000)  0.30150000(60000)  0.21067
 C8_4  C 1.0  0.30150000(80000)  0.58330000(60000)  0.41670000(60000)  0.21067
 C8_5  C 1.0  0.58330000(80000)  0.30150000(60000)  0.41670000(60000)  0.21067
 C8_6  C 1.0  0.58330000(80000)  0.58330000(60000)  0.69850000(60000)  0.21067
 C8_7  C 1.0  0.69850000(80000)  0.58330000(60000)  0.58330000(60000)  0.21067
 C8_8  C 1.0  0.41670000(80000)  0.30150000(60000)  0.58330000(60000)  0.21067
 C8_9  C 1.0  0.41670000(80000)  0.58330000(60000)  0.30150000(60000)  0.21067
 C8_10  C 1.0  0.69850000(80000)  0.58330000(60000)  0.41670000(60000)  0.21067
 C8_11  C 1.0  0.41670000(80000)  0.30150000(60000)  0.41670000(60000)  0.21067
 C8_12  C 1.0  0.41670000(80000)  0.58330000(60000)  0.69850000(60000)  0.21067
 C8_13  C 1.0  0.58330000(80000)  0.69850000(60000)  0.58330000(60000)  0.21067
 C8_14  C 1.0  0.30150000(80000)  0.41670000(60000)  0.58330000(60000)  0.21067
 C8_15  C 1.0  0.58330000(80000)  0.41670000(60000)  0.30150000(60000)  0.21067
 C8_16  C 1.0  0.58330000(80000)  0.69850000(60000)  0.41670000(60000)  0.21067
 C8_17  C 1.0  0.30150000(80000)  0.41670000(60000)  0.41670000(60000)  0.21067
 C8_18  C 1.0  0.58330000(80000)  0.41670000(60000)  0.69850000(60000)  0.21067
 C8_19  C 1.0  0.69850000(80000)  0.41670000(60000)  0.41670000(60000)  0.21067
 C8_20  C 1.0  0.41670000(80000)  0.69850000(60000)  0.41670000(60000)  0.21067
 C8_21  C 1.0  0.41670000(80000)  0.41670000(60000)  0.69850000(60000)  0.21067
 C8_22  C 1.0  0.69850000(80000)  0.41670000(60000)  0.58330000(60000)  0.21067
 C8_23  C 1.0  0.41670000(80000)  0.69850000(60000)  0.58330000(60000)  0.21067
 C8_24  C 1.0  0.41670000(80000)  0.41670000(60000)  0.30150000(60000)  0.21067
 C8_25  C 1.0  0.30150000(80000)  0.08330000(60000)  0.08330000(60000)  0.21067
 C8_26  C 1.0  0.80150000(80000)  0.08330000(60000)  0.58330000(60000)  0.21067
 C8_27  C 1.0  0.80150000(80000)  0.58330000(60000)  0.08330000(60000)  0.21067
 C8_28  C 1.0  0.58330000(80000)  0.80150000(60000)  0.08330000(60000)  0.21067
 C8_29  C 1.0  0.08330000(80000)  0.80150000(60000)  0.58330000(60000)  0.21067
 C8_30  C 1.0  0.08330000(80000)  0.30150000(60000)  0.08330000(60000)  0.21067
 C8_31  C 1.0  0.58330000(80000)  0.08330000(60000)  0.80150000(60000)  0.21067
 C8_32  C 1.0  0.08330000(80000)  0.08330000(60000)  0.30150000(60000)  0.21067
 C8_33  C 1.0  0.08330000(80000)  0.58330000(60000)  0.80150000(60000)  0.21067
 C8_34  C 1.0  0.30150000(80000)  0.08330000(60000)  0.91670000(60000)  0.21067
 C8_35  C 1.0  0.80150000(80000)  0.08330000(60000)  0.41670000(60000)  0.21067
 C8_36  C 1.0  0.80150000(80000)  0.58330000(60000)  0.91670000(60000)  0.21067
 C8_37  C 1.0  0.58330000(80000)  0.80150000(60000)  0.91670000(60000)  0.21067
 C8_38  C 1.0  0.08330000(80000)  0.80150000(60000)  0.41670000(60000)  0.21067
 C8_39  C 1.0  0.08330000(80000)  0.30150000(60000)  0.91670000(60000)  0.21067
 C8_40  C 1.0  0.58330000(80000)  0.08330000(60000)  0.19850000(60000)  0.21067
 C8_41  C 1.0  0.08330000(80000)  0.08330000(60000)  0.69850000(60000)  0.21067
 C8_42  C 1.0  0.08330000(80000)  0.58330000(60000)  0.19850000(60000)  0.21067
 C8_43  C 1.0  0.69850000(80000)  0.08330000(60000)  0.08330000(60000)  0.21067
 C8_44  C 1.0  0.19850000(80000)  0.08330000(60000)  0.58330000(60000)  0.21067
 C8_45  C 1.0  0.19850000(80000)  0.58330000(60000)  0.08330000(60000)  0.21067
 C8_46  C 1.0  0.41670000(80000)  0.80150000(60000)  0.08330000(60000)  0.21067
 C8_47  C 1.0  0.91670000(80000)  0.80150000(60000)  0.58330000(60000)  0.21067
 C8_48  C 1.0  0.91670000(80000)  0.30150000(60000)  0.08330000(60000)  0.21067
 C8_49  C 1.0  0.41670000(80000)  0.08330000(60000)  0.80150000(60000)  0.21067
 C8_50  C 1.0  0.91670000(80000)  0.08330000(60000)  0.30150000(60000)  0.21067
 C8_51  C 1.0  0.91670000(80000)  0.58330000(60000)  0.80150000(60000)  0.21067
 C8_52  C 1.0  0.69850000(80000)  0.08330000(60000)  0.91670000(60000)  0.21067
 C8_53  C 1.0  0.19850000(80000)  0.08330000(60000)  0.41670000(60000)  0.21067
 C8_54  C 1.0  0.19850000(80000)  0.58330000(60000)  0.91670000(60000)  0.21067
 C8_55  C 1.0  0.41670000(80000)  0.80150000(60000)  0.91670000(60000)  0.21067
 C8_56  C 1.0  0.91670000(80000)  0.80150000(60000)  0.41670000(60000)  0.21067
 C8_57  C 1.0  0.91670000(80000)  0.30150000(60000)  0.91670000(60000)  0.21067
 C8_58  C 1.0  0.41670000(80000)  0.08330000(60000)  0.19850000(60000)  0.21067
 C8_59  C 1.0  0.91670000(80000)  0.08330000(60000)  0.69850000(60000)  0.21067
 C8_60  C 1.0  0.91670000(80000)  0.58330000(60000)  0.19850000(60000)  0.21067
 C8_61  C 1.0  0.58330000(80000)  0.19850000(60000)  0.08330000(60000)  0.21067
 C8_62  C 1.0  0.08330000(80000)  0.19850000(60000)  0.58330000(60000)  0.21067
 C8_63  C 1.0  0.08330000(80000)  0.69850000(60000)  0.08330000(60000)  0.21067
 C8_64  C 1.0  0.30150000(80000)  0.91670000(60000)  0.08330000(60000)  0.21067
 C8_65  C 1.0  0.80150000(80000)  0.91670000(60000)  0.58330000(60000)  0.21067
 C8_66  C 1.0  0.80150000(80000)  0.41670000(60000)  0.08330000(60000)  0.21067
 C8_67  C 1.0  0.58330000(80000)  0.91670000(60000)  0.80150000(60000)  0.21067
 C8_68  C 1.0  0.08330000(80000)  0.91670000(60000)  0.30150000(60000)  0.21067
 C8_69  C 1.0  0.08330000(80000)  0.41670000(60000)  0.80150000(60000)  0.21067
 C8_70  C 1.0  0.58330000(80000)  0.19850000(60000)  0.91670000(60000)  0.21067
 C8_71  C 1.0  0.08330000(80000)  0.19850000(60000)  0.41670000(60000)  0.21067
 C8_72  C 1.0  0.08330000(80000)  0.69850000(60000)  0.91670000(60000)  0.21067
 C8_73  C 1.0  0.30150000(80000)  0.91670000(60000)  0.91670000(60000)  0.21067
 C8_74  C 1.0  0.80150000(80000)  0.91670000(60000)  0.41670000(60000)  0.21067
 C8_75  C 1.0  0.80150000(80000)  0.41670000(60000)  0.91670000(60000)  0.21067
 C8_76  C 1.0  0.58330000(80000)  0.91670000(60000)  0.19850000(60000)  0.21067
 C8_77  C 1.0  0.08330000(80000)  0.91670000(60000)  0.69850000(60000)  0.21067
 C8_78  C 1.0  0.08330000(80000)  0.41670000(60000)  0.19850000(60000)  0.21067
 C8_79  C 1.0  0.69850000(80000)  0.91670000(60000)  0.91670000(60000)  0.21067
 C8_80  C 1.0  0.19850000(80000)  0.91670000(60000)  0.41670000(60000)  0.21067
 C8_81  C 1.0  0.19850000(80000)  0.41670000(60000)  0.91670000(60000)  0.21067
 C8_82  C 1.0  0.41670000(80000)  0.19850000(60000)  0.91670000(60000)  0.21067
 C8_83  C 1.0  0.91670000(80000)  0.19850000(60000)  0.41670000(60000)  0.21067
 C8_84  C 1.0  0.91670000(80000)  0.69850000(60000)  0.91670000(60000)  0.21067
 C8_85  C 1.0  0.41670000(80000)  0.91670000(60000)  0.19850000(60000)  0.21067
 C8_86  C 1.0  0.91670000(80000)  0.91670000(60000)  0.69850000(60000)  0.21067
 C8_87  C 1.0  0.91670000(80000)  0.41670000(60000)  0.19850000(60000)  0.21067
 C8_88  C 1.0  0.69850000(80000)  0.91670000(60000)  0.08330000(60000)  0.21067
 C8_89  C 1.0  0.19850000(80000)  0.91670000(60000)  0.58330000(60000)  0.21067
 C8_90  C 1.0  0.19850000(80000)  0.41670000(60000)  0.08330000(60000)  0.21067
 C8_91  C 1.0  0.41670000(80000)  0.19850000(60000)  0.08330000(60000)  0.21067
 C8_92  C 1.0  0.91670000(80000)  0.19850000(60000)  0.58330000(60000)  0.21067
 C8_93  C 1.0  0.91670000(80000)  0.69850000(60000)  0.08330000(60000)  0.21067
 C8_94  C 1.0  0.41670000(80000)  0.91670000(60000)  0.80150000(60000)  0.21067
 C8_95  C 1.0  0.91670000(80000)  0.91670000(60000)  0.30150000(60000)  0.21067
 C8_96  C 1.0  0.91670000(80000)  0.41670000(60000)  0.80150000(60000)  0.21067
 C9  C 1.0  0.29630000(50000)  0.60020000(40000)  0.57420000(50000)  0.21400
 C9_2  C 1.0  0.57420000(50000)  0.29630000(40000)  0.60020000(50000)  0.21400
 C9_3  C 1.0  0.60020000(50000)  0.57420000(40000)  0.29630000(50000)  0.21400
 C9_4  C 1.0  0.29630000(50000)  0.60020000(40000)  0.42580000(50000)  0.21400
 C9_5  C 1.0  0.57420000(50000)  0.29630000(40000)  0.39980000(50000)  0.21400
 C9_6  C 1.0  0.60020000(50000)  0.57420000(40000)  0.70370000(50000)  0.21400
 C9_7  C 1.0  0.70370000(50000)  0.60020000(40000)  0.57420000(50000)  0.21400
 C9_8  C 1.0  0.42580000(50000)  0.29630000(40000)  0.60020000(50000)  0.21400
 C9_9  C 1.0  0.39980000(50000)  0.57420000(40000)  0.29630000(50000)  0.21400
 C9_10  C 1.0  0.70370000(50000)  0.60020000(40000)  0.42580000(50000)  0.21400
 C9_11  C 1.0  0.42580000(50000)  0.29630000(40000)  0.39980000(50000)  0.21400
 C9_12  C 1.0  0.39980000(50000)  0.57420000(40000)  0.70370000(50000)  0.21400
 C9_13  C 1.0  0.60020000(50000)  0.29630000(40000)  0.57420000(50000)  0.21400
 C9_14  C 1.0  0.29630000(50000)  0.57420000(40000)  0.60020000(50000)  0.21400
 C9_15  C 1.0  0.57420000(50000)  0.60020000(40000)  0.29630000(50000)  0.21400
 C9_16  C 1.0  0.60020000(50000)  0.29630000(40000)  0.42580000(50000)  0.21400
 C9_17  C 1.0  0.29630000(50000)  0.57420000(40000)  0.39980000(50000)  0.21400
 C9_18  C 1.0  0.57420000(50000)  0.60020000(40000)  0.70370000(50000)  0.21400
 C9_19  C 1.0  0.60020000(50000)  0.70370000(40000)  0.57420000(50000)  0.21400
 C9_20  C 1.0  0.29630000(50000)  0.42580000(40000)  0.60020000(50000)  0.21400
 C9_21  C 1.0  0.57420000(50000)  0.39980000(40000)  0.29630000(50000)  0.21400
 C9_22  C 1.0  0.60020000(50000)  0.70370000(40000)  0.42580000(50000)  0.21400
 C9_23  C 1.0  0.29630000(50000)  0.42580000(40000)  0.39980000(50000)  0.21400
 C9_24  C 1.0  0.57420000(50000)  0.39980000(40000)  0.70370000(50000)  0.21400
 C9_25  C 1.0  0.70370000(50000)  0.39980000(40000)  0.42580000(50000)  0.21400
 C9_26  C 1.0  0.42580000(50000)  0.70370000(40000)  0.39980000(50000)  0.21400
 C9_27  C 1.0  0.39980000(50000)  0.42580000(40000)  0.70370000(50000)  0.21400
 C9_28  C 1.0  0.70370000(50000)  0.39980000(40000)  0.57420000(50000)  0.21400
 C9_29  C 1.0  0.42580000(50000)  0.70370000(40000)  0.60020000(50000)  0.21400
 C9_30  C 1.0  0.39980000(50000)  0.42580000(40000)  0.29630000(50000)  0.21400
 C9_31  C 1.0  0.29630000(50000)  0.39980000(40000)  0.42580000(50000)  0.21400
 C9_32  C 1.0  0.57420000(50000)  0.70370000(40000)  0.39980000(50000)  0.21400
 C9_33  C 1.0  0.60020000(50000)  0.42580000(40000)  0.70370000(50000)  0.21400
 C9_34  C 1.0  0.29630000(50000)  0.39980000(40000)  0.57420000(50000)  0.21400
 C9_35  C 1.0  0.57420000(50000)  0.70370000(40000)  0.60020000(50000)  0.21400
 C9_36  C 1.0  0.60020000(50000)  0.42580000(40000)  0.29630000(50000)  0.21400
 C9_37  C 1.0  0.39980000(50000)  0.70370000(40000)  0.42580000(50000)  0.21400
 C9_38  C 1.0  0.70370000(50000)  0.42580000(40000)  0.39980000(50000)  0.21400
 C9_39  C 1.0  0.42580000(50000)  0.39980000(40000)  0.70370000(50000)  0.21400
 C9_40  C 1.0  0.39980000(50000)  0.70370000(40000)  0.57420000(50000)  0.21400
 C9_41  C 1.0  0.70370000(50000)  0.42580000(40000)  0.60020000(50000)  0.21400
 C9_42  C 1.0  0.42580000(50000)  0.39980000(40000)  0.29630000(50000)  0.21400
 C9_43  C 1.0  0.39980000(50000)  0.29630000(40000)  0.42580000(50000)  0.21400
 C9_44  C 1.0  0.70370000(50000)  0.57420000(40000)  0.39980000(50000)  0.21400
 C9_45  C 1.0  0.42580000(50000)  0.60020000(40000)  0.70370000(50000)  0.21400
 C9_46  C 1.0  0.39980000(50000)  0.29630000(40000)  0.57420000(50000)  0.21400
 C9_47  C 1.0  0.70370000(50000)  0.57420000(40000)  0.60020000(50000)  0.21400
 C9_48  C 1.0  0.42580000(50000)  0.60020000(40000)  0.29630000(50000)  0.21400
 C9_49  C 1.0  0.29630000(50000)  0.10020000(40000)  0.07420000(50000)  0.21400
 C9_50  C 1.0  0.79630000(50000)  0.10020000(40000)  0.57420000(50000)  0.21400
 C9_51  C 1.0  0.79630000(50000)  0.60020000(40000)  0.07420000(50000)  0.21400
 C9_52  C 1.0  0.57420000(50000)  0.79630000(40000)  0.10020000(50000)  0.21400
 C9_53  C 1.0  0.07420000(50000)  0.79630000(40000)  0.60020000(50000)  0.21400
 C9_54  C 1.0  0.07420000(50000)  0.29630000(40000)  0.10020000(50000)  0.21400
 C9_55  C 1.0  0.60020000(50000)  0.07420000(40000)  0.79630000(50000)  0.21400
 C9_56  C 1.0  0.10020000(50000)  0.07420000(40000)  0.29630000(50000)  0.21400
 C9_57  C 1.0  0.10020000(50000)  0.57420000(40000)  0.79630000(50000)  0.21400
 C9_58  C 1.0  0.29630000(50000)  0.10020000(40000)  0.92580000(50000)  0.21400
 C9_59  C 1.0  0.79630000(50000)  0.10020000(40000)  0.42580000(50000)  0.21400
 C9_60  C 1.0  0.79630000(50000)  0.60020000(40000)  0.92580000(50000)  0.21400
 C9_61  C 1.0  0.57420000(50000)  0.79630000(40000)  0.89980000(50000)  0.21400
 C9_62  C 1.0  0.07420000(50000)  0.79630000(40000)  0.39980000(50000)  0.21400
 C9_63  C 1.0  0.07420000(50000)  0.29630000(40000)  0.89980000(50000)  0.21400
 C9_64  C 1.0  0.60020000(50000)  0.07420000(40000)  0.20370000(50000)  0.21400
 C9_65  C 1.0  0.10020000(50000)  0.07420000(40000)  0.70370000(50000)  0.21400
 C9_66  C 1.0  0.10020000(50000)  0.57420000(40000)  0.20370000(50000)  0.21400
 C9_67  C 1.0  0.70370000(50000)  0.10020000(40000)  0.07420000(50000)  0.21400
 C9_68  C 1.0  0.20370000(50000)  0.10020000(40000)  0.57420000(50000)  0.21400
 C9_69  C 1.0  0.20370000(50000)  0.60020000(40000)  0.07420000(50000)  0.21400
 C9_70  C 1.0  0.42580000(50000)  0.79630000(40000)  0.10020000(50000)  0.21400
 C9_71  C 1.0  0.92580000(50000)  0.79630000(40000)  0.60020000(50000)  0.21400
 C9_72  C 1.0  0.92580000(50000)  0.29630000(40000)  0.10020000(50000)  0.21400
 C9_73  C 1.0  0.39980000(50000)  0.07420000(40000)  0.79630000(50000)  0.21400
 C9_74  C 1.0  0.89980000(50000)  0.07420000(40000)  0.29630000(50000)  0.21400
 C9_75  C 1.0  0.89980000(50000)  0.57420000(40000)  0.79630000(50000)  0.21400
 C9_76  C 1.0  0.70370000(50000)  0.10020000(40000)  0.92580000(50000)  0.21400
 C9_77  C 1.0  0.20370000(50000)  0.10020000(40000)  0.42580000(50000)  0.21400
 C9_78  C 1.0  0.20370000(50000)  0.60020000(40000)  0.92580000(50000)  0.21400
 C9_79  C 1.0  0.42580000(50000)  0.79630000(40000)  0.89980000(50000)  0.21400
 C9_80  C 1.0  0.92580000(50000)  0.79630000(40000)  0.39980000(50000)  0.21400
 C9_81  C 1.0  0.92580000(50000)  0.29630000(40000)  0.89980000(50000)  0.21400
 C9_82  C 1.0  0.39980000(50000)  0.07420000(40000)  0.20370000(50000)  0.21400
 C9_83  C 1.0  0.89980000(50000)  0.07420000(40000)  0.70370000(50000)  0.21400
 C9_84  C 1.0  0.89980000(50000)  0.57420000(40000)  0.20370000(50000)  0.21400
 C9_85  C 1.0  0.60020000(50000)  0.79630000(40000)  0.07420000(50000)  0.21400
 C9_86  C 1.0  0.10020000(50000)  0.79630000(40000)  0.57420000(50000)  0.21400
 C9_87  C 1.0  0.10020000(50000)  0.29630000(40000)  0.07420000(50000)  0.21400
 C9_88  C 1.0  0.29630000(50000)  0.07420000(40000)  0.10020000(50000)  0.21400
 C9_89  C 1.0  0.79630000(50000)  0.07420000(40000)  0.60020000(50000)  0.21400
 C9_90  C 1.0  0.79630000(50000)  0.57420000(40000)  0.10020000(50000)  0.21400
 C9_91  C 1.0  0.57420000(50000)  0.10020000(40000)  0.79630000(50000)  0.21400
 C9_92  C 1.0  0.07420000(50000)  0.10020000(40000)  0.29630000(50000)  0.21400
 C9_93  C 1.0  0.07420000(50000)  0.60020000(40000)  0.79630000(50000)  0.21400
 C9_94  C 1.0  0.60020000(50000)  0.79630000(40000)  0.92580000(50000)  0.21400
 C9_95  C 1.0  0.10020000(50000)  0.79630000(40000)  0.42580000(50000)  0.21400
 C9_96  C 1.0  0.10020000(50000)  0.29630000(40000)  0.92580000(50000)  0.21400
 C9_97  C 1.0  0.29630000(50000)  0.07420000(40000)  0.89980000(50000)  0.21400
 C9_98  C 1.0  0.79630000(50000)  0.07420000(40000)  0.39980000(50000)  0.21400
 C9_99  C 1.0  0.79630000(50000)  0.57420000(40000)  0.89980000(50000)  0.21400
 C9_100  C 1.0  0.57420000(50000)  0.10020000(40000)  0.20370000(50000)  0.21400
 C9_101  C 1.0  0.07420000(50000)  0.10020000(40000)  0.70370000(50000)  0.21400
 C9_102  C 1.0  0.07420000(50000)  0.60020000(40000)  0.20370000(50000)  0.21400
 C9_103  C 1.0  0.60020000(50000)  0.20370000(40000)  0.07420000(50000)  0.21400
 C9_104  C 1.0  0.10020000(50000)  0.20370000(40000)  0.57420000(50000)  0.21400
 C9_105  C 1.0  0.10020000(50000)  0.70370000(40000)  0.07420000(50000)  0.21400
 C9_106  C 1.0  0.29630000(50000)  0.92580000(40000)  0.10020000(50000)  0.21400
 C9_107  C 1.0  0.79630000(50000)  0.92580000(40000)  0.60020000(50000)  0.21400
 C9_108  C 1.0  0.79630000(50000)  0.42580000(40000)  0.10020000(50000)  0.21400
 C9_109  C 1.0  0.57420000(50000)  0.89980000(40000)  0.79630000(50000)  0.21400
 C9_110  C 1.0  0.07420000(50000)  0.89980000(40000)  0.29630000(50000)  0.21400
 C9_111  C 1.0  0.07420000(50000)  0.39980000(40000)  0.79630000(50000)  0.21400
 C9_112  C 1.0  0.60020000(50000)  0.20370000(40000)  0.92580000(50000)  0.21400
 C9_113  C 1.0  0.10020000(50000)  0.20370000(40000)  0.42580000(50000)  0.21400
 C9_114  C 1.0  0.10020000(50000)  0.70370000(40000)  0.92580000(50000)  0.21400
 C9_115  C 1.0  0.29630000(50000)  0.92580000(40000)  0.89980000(50000)  0.21400
 C9_116  C 1.0  0.79630000(50000)  0.92580000(40000)  0.39980000(50000)  0.21400
 C9_117  C 1.0  0.79630000(50000)  0.42580000(40000)  0.89980000(50000)  0.21400
 C9_118  C 1.0  0.57420000(50000)  0.89980000(40000)  0.20370000(50000)  0.21400
 C9_119  C 1.0  0.07420000(50000)  0.89980000(40000)  0.70370000(50000)  0.21400
 C9_120  C 1.0  0.07420000(50000)  0.39980000(40000)  0.20370000(50000)  0.21400
 C9_121  C 1.0  0.70370000(50000)  0.89980000(40000)  0.92580000(50000)  0.21400
 C9_122  C 1.0  0.20370000(50000)  0.89980000(40000)  0.42580000(50000)  0.21400
 C9_123  C 1.0  0.20370000(50000)  0.39980000(40000)  0.92580000(50000)  0.21400
 C9_124  C 1.0  0.42580000(50000)  0.20370000(40000)  0.89980000(50000)  0.21400
 C9_125  C 1.0  0.92580000(50000)  0.20370000(40000)  0.39980000(50000)  0.21400
 C9_126  C 1.0  0.92580000(50000)  0.70370000(40000)  0.89980000(50000)  0.21400
 C9_127  C 1.0  0.39980000(50000)  0.92580000(40000)  0.20370000(50000)  0.21400
 C9_128  C 1.0  0.89980000(50000)  0.92580000(40000)  0.70370000(50000)  0.21400
 C9_129  C 1.0  0.89980000(50000)  0.42580000(40000)  0.20370000(50000)  0.21400
 C9_130  C 1.0  0.70370000(50000)  0.89980000(40000)  0.07420000(50000)  0.21400
 C9_131  C 1.0  0.20370000(50000)  0.89980000(40000)  0.57420000(50000)  0.21400
 C9_132  C 1.0  0.20370000(50000)  0.39980000(40000)  0.07420000(50000)  0.21400
 C9_133  C 1.0  0.42580000(50000)  0.20370000(40000)  0.10020000(50000)  0.21400
 C9_134  C 1.0  0.92580000(50000)  0.20370000(40000)  0.60020000(50000)  0.21400
 C9_135  C 1.0  0.92580000(50000)  0.70370000(40000)  0.10020000(50000)  0.21400
 C9_136  C 1.0  0.39980000(50000)  0.92580000(40000)  0.79630000(50000)  0.21400
 C9_137  C 1.0  0.89980000(50000)  0.92580000(40000)  0.29630000(50000)  0.21400
 C9_138  C 1.0  0.89980000(50000)  0.42580000(40000)  0.79630000(50000)  0.21400
 C9_139  C 1.0  0.29630000(50000)  0.89980000(40000)  0.92580000(50000)  0.21400
 C9_140  C 1.0  0.79630000(50000)  0.89980000(40000)  0.42580000(50000)  0.21400
 C9_141  C 1.0  0.79630000(50000)  0.39980000(40000)  0.92580000(50000)  0.21400
 C9_142  C 1.0  0.57420000(50000)  0.20370000(40000)  0.89980000(50000)  0.21400
 C9_143  C 1.0  0.07420000(50000)  0.20370000(40000)  0.39980000(50000)  0.21400
 C9_144  C 1.0  0.07420000(50000)  0.70370000(40000)  0.89980000(50000)  0.21400
 C9_145  C 1.0  0.60020000(50000)  0.92580000(40000)  0.20370000(50000)  0.21400
 C9_146  C 1.0  0.10020000(50000)  0.92580000(40000)  0.70370000(50000)  0.21400
 C9_147  C 1.0  0.10020000(50000)  0.42580000(40000)  0.20370000(50000)  0.21400
 C9_148  C 1.0  0.29630000(50000)  0.89980000(40000)  0.07420000(50000)  0.21400
 C9_149  C 1.0  0.79630000(50000)  0.89980000(40000)  0.57420000(50000)  0.21400
 C9_150  C 1.0  0.79630000(50000)  0.39980000(40000)  0.07420000(50000)  0.21400
 C9_151  C 1.0  0.57420000(50000)  0.20370000(40000)  0.10020000(50000)  0.21400
 C9_152  C 1.0  0.07420000(50000)  0.20370000(40000)  0.60020000(50000)  0.21400
 C9_153  C 1.0  0.07420000(50000)  0.70370000(40000)  0.10020000(50000)  0.21400
 C9_154  C 1.0  0.60020000(50000)  0.92580000(40000)  0.79630000(50000)  0.21400
 C9_155  C 1.0  0.10020000(50000)  0.92580000(40000)  0.29630000(50000)  0.21400
 C9_156  C 1.0  0.10020000(50000)  0.42580000(40000)  0.79630000(50000)  0.21400
 C9_157  C 1.0  0.39980000(50000)  0.20370000(40000)  0.92580000(50000)  0.21400
 C9_158  C 1.0  0.89980000(50000)  0.20370000(40000)  0.42580000(50000)  0.21400
 C9_159  C 1.0  0.89980000(50000)  0.70370000(40000)  0.92580000(50000)  0.21400
 C9_160  C 1.0  0.70370000(50000)  0.92580000(40000)  0.89980000(50000)  0.21400
 C9_161  C 1.0  0.20370000(50000)  0.92580000(40000)  0.39980000(50000)  0.21400
 C9_162  C 1.0  0.20370000(50000)  0.42580000(40000)  0.89980000(50000)  0.21400
 C9_163  C 1.0  0.42580000(50000)  0.89980000(40000)  0.20370000(50000)  0.21400
 C9_164  C 1.0  0.92580000(50000)  0.89980000(40000)  0.70370000(50000)  0.21400
 C9_165  C 1.0  0.92580000(50000)  0.39980000(40000)  0.20370000(50000)  0.21400
 C9_166  C 1.0  0.39980000(50000)  0.20370000(40000)  0.07420000(50000)  0.21400
 C9_167  C 1.0  0.89980000(50000)  0.20370000(40000)  0.57420000(50000)  0.21400
 C9_168  C 1.0  0.89980000(50000)  0.70370000(40000)  0.07420000(50000)  0.21400
 C9_169  C 1.0  0.70370000(50000)  0.92580000(40000)  0.10020000(50000)  0.21400
 C9_170  C 1.0  0.20370000(50000)  0.92580000(40000)  0.60020000(50000)  0.21400
 C9_171  C 1.0  0.20370000(50000)  0.42580000(40000)  0.10020000(50000)  0.21400
 C9_172  C 1.0  0.42580000(50000)  0.89980000(40000)  0.79630000(50000)  0.21400
 C9_173  C 1.0  0.92580000(50000)  0.89980000(40000)  0.29630000(50000)  0.21400
 C9_174  C 1.0  0.92580000(50000)  0.39980000(40000)  0.79630000(50000)  0.21400
 C9_175  C 1.0  0.39980000(50000)  0.79630000(40000)  0.92580000(50000)  0.21400
 C9_176  C 1.0  0.89980000(50000)  0.79630000(40000)  0.42580000(50000)  0.21400
 C9_177  C 1.0  0.89980000(50000)  0.29630000(40000)  0.92580000(50000)  0.21400
 C9_178  C 1.0  0.70370000(50000)  0.07420000(40000)  0.89980000(50000)  0.21400
 C9_179  C 1.0  0.20370000(50000)  0.07420000(40000)  0.39980000(50000)  0.21400
 C9_180  C 1.0  0.20370000(50000)  0.57420000(40000)  0.89980000(50000)  0.21400
 C9_181  C 1.0  0.42580000(50000)  0.10020000(40000)  0.20370000(50000)  0.21400
 C9_182  C 1.0  0.92580000(50000)  0.10020000(40000)  0.70370000(50000)  0.21400
 C9_183  C 1.0  0.92580000(50000)  0.60020000(40000)  0.20370000(50000)  0.21400
 C9_184  C 1.0  0.39980000(50000)  0.79630000(40000)  0.07420000(50000)  0.21400
 C9_185  C 1.0  0.89980000(50000)  0.79630000(40000)  0.57420000(50000)  0.21400
 C9_186  C 1.0  0.89980000(50000)  0.29630000(40000)  0.07420000(50000)  0.21400
 C9_187  C 1.0  0.70370000(50000)  0.07420000(40000)  0.10020000(50000)  0.21400
 C9_188  C 1.0  0.20370000(50000)  0.07420000(40000)  0.60020000(50000)  0.21400
 C9_189  C 1.0  0.20370000(50000)  0.57420000(40000)  0.10020000(50000)  0.21400
 C9_190  C 1.0  0.42580000(50000)  0.10020000(40000)  0.79630000(50000)  0.21400
 C9_191  C 1.0  0.92580000(50000)  0.10020000(40000)  0.29630000(50000)  0.21400
 C9_192  C 1.0  0.92580000(50000)  0.60020000(40000)  0.79630000(50000)  0.21400
 C10  C 1.0  0.27900000(40000)  0.60630000(50000)  0.58180000(50000)  0.22100
 C10_2  C 1.0  0.58180000(40000)  0.27900000(50000)  0.60630000(50000)  0.22100
 C10_3  C 1.0  0.60630000(40000)  0.58180000(50000)  0.27900000(50000)  0.22100
 C10_4  C 1.0  0.27900000(40000)  0.60630000(50000)  0.41820000(50000)  0.22100
 C10_5  C 1.0  0.58180000(40000)  0.27900000(50000)  0.39370000(50000)  0.22100
 C10_6  C 1.0  0.60630000(40000)  0.58180000(50000)  0.72100000(50000)  0.22100
 C10_7  C 1.0  0.72100000(40000)  0.60630000(50000)  0.58180000(50000)  0.22100
 C10_8  C 1.0  0.41820000(40000)  0.27900000(50000)  0.60630000(50000)  0.22100
 C10_9  C 1.0  0.39370000(40000)  0.58180000(50000)  0.27900000(50000)  0.22100
 C10_10  C 1.0  0.72100000(40000)  0.60630000(50000)  0.41820000(50000)  0.22100
 C10_11  C 1.0  0.41820000(40000)  0.27900000(50000)  0.39370000(50000)  0.22100
 C10_12  C 1.0  0.39370000(40000)  0.58180000(50000)  0.72100000(50000)  0.22100
 C10_13  C 1.0  0.60630000(40000)  0.27900000(50000)  0.58180000(50000)  0.22100
 C10_14  C 1.0  0.27900000(40000)  0.58180000(50000)  0.60630000(50000)  0.22100
 C10_15  C 1.0  0.58180000(40000)  0.60630000(50000)  0.27900000(50000)  0.22100
 C10_16  C 1.0  0.60630000(40000)  0.27900000(50000)  0.41820000(50000)  0.22100
 C10_17  C 1.0  0.27900000(40000)  0.58180000(50000)  0.39370000(50000)  0.22100
 C10_18  C 1.0  0.58180000(40000)  0.60630000(50000)  0.72100000(50000)  0.22100
 C10_19  C 1.0  0.60630000(40000)  0.72100000(50000)  0.58180000(50000)  0.22100
 C10_20  C 1.0  0.27900000(40000)  0.41820000(50000)  0.60630000(50000)  0.22100
 C10_21  C 1.0  0.58180000(40000)  0.39370000(50000)  0.27900000(50000)  0.22100
 C10_22  C 1.0  0.60630000(40000)  0.72100000(50000)  0.41820000(50000)  0.22100
 C10_23  C 1.0  0.27900000(40000)  0.41820000(50000)  0.39370000(50000)  0.22100
 C10_24  C 1.0  0.58180000(40000)  0.39370000(50000)  0.72100000(50000)  0.22100
 C10_25  C 1.0  0.72100000(40000)  0.39370000(50000)  0.41820000(50000)  0.22100
 C10_26  C 1.0  0.41820000(40000)  0.72100000(50000)  0.39370000(50000)  0.22100
 C10_27  C 1.0  0.39370000(40000)  0.41820000(50000)  0.72100000(50000)  0.22100
 C10_28  C 1.0  0.72100000(40000)  0.39370000(50000)  0.58180000(50000)  0.22100
 C10_29  C 1.0  0.41820000(40000)  0.72100000(50000)  0.60630000(50000)  0.22100
 C10_30  C 1.0  0.39370000(40000)  0.41820000(50000)  0.27900000(50000)  0.22100
 C10_31  C 1.0  0.27900000(40000)  0.39370000(50000)  0.41820000(50000)  0.22100
 C10_32  C 1.0  0.58180000(40000)  0.72100000(50000)  0.39370000(50000)  0.22100
 C10_33  C 1.0  0.60630000(40000)  0.41820000(50000)  0.72100000(50000)  0.22100
 C10_34  C 1.0  0.27900000(40000)  0.39370000(50000)  0.58180000(50000)  0.22100
 C10_35  C 1.0  0.58180000(40000)  0.72100000(50000)  0.60630000(50000)  0.22100
 C10_36  C 1.0  0.60630000(40000)  0.41820000(50000)  0.27900000(50000)  0.22100
 C10_37  C 1.0  0.39370000(40000)  0.72100000(50000)  0.41820000(50000)  0.22100
 C10_38  C 1.0  0.72100000(40000)  0.41820000(50000)  0.39370000(50000)  0.22100
 C10_39  C 1.0  0.41820000(40000)  0.39370000(50000)  0.72100000(50000)  0.22100
 C10_40  C 1.0  0.39370000(40000)  0.72100000(50000)  0.58180000(50000)  0.22100
 C10_41  C 1.0  0.72100000(40000)  0.41820000(50000)  0.60630000(50000)  0.22100
 C10_42  C 1.0  0.41820000(40000)  0.39370000(50000)  0.27900000(50000)  0.22100
 C10_43  C 1.0  0.39370000(40000)  0.27900000(50000)  0.41820000(50000)  0.22100
 C10_44  C 1.0  0.72100000(40000)  0.58180000(50000)  0.39370000(50000)  0.22100
 C10_45  C 1.0  0.41820000(40000)  0.60630000(50000)  0.72100000(50000)  0.22100
 C10_46  C 1.0  0.39370000(40000)  0.27900000(50000)  0.58180000(50000)  0.22100
 C10_47  C 1.0  0.72100000(40000)  0.58180000(50000)  0.60630000(50000)  0.22100
 C10_48  C 1.0  0.41820000(40000)  0.60630000(50000)  0.27900000(50000)  0.22100
 C10_49  C 1.0  0.27900000(40000)  0.10630000(50000)  0.08180000(50000)  0.22100
 C10_50  C 1.0  0.77900000(40000)  0.10630000(50000)  0.58180000(50000)  0.22100
 C10_51  C 1.0  0.77900000(40000)  0.60630000(50000)  0.08180000(50000)  0.22100
 C10_52  C 1.0  0.58180000(40000)  0.77900000(50000)  0.10630000(50000)  0.22100
 C10_53  C 1.0  0.08180000(40000)  0.77900000(50000)  0.60630000(50000)  0.22100
 C10_54  C 1.0  0.08180000(40000)  0.27900000(50000)  0.10630000(50000)  0.22100
 C10_55  C 1.0  0.60630000(40000)  0.08180000(50000)  0.77900000(50000)  0.22100
 C10_56  C 1.0  0.10630000(40000)  0.08180000(50000)  0.27900000(50000)  0.22100
 C10_57  C 1.0  0.10630000(40000)  0.58180000(50000)  0.77900000(50000)  0.22100
 C10_58  C 1.0  0.27900000(40000)  0.10630000(50000)  0.91820000(50000)  0.22100
 C10_59  C 1.0  0.77900000(40000)  0.10630000(50000)  0.41820000(50000)  0.22100
 C10_60  C 1.0  0.77900000(40000)  0.60630000(50000)  0.91820000(50000)  0.22100
 C10_61  C 1.0  0.58180000(40000)  0.77900000(50000)  0.89370000(50000)  0.22100
 C10_62  C 1.0  0.08180000(40000)  0.77900000(50000)  0.39370000(50000)  0.22100
 C10_63  C 1.0  0.08180000(40000)  0.27900000(50000)  0.89370000(50000)  0.22100
 C10_64  C 1.0  0.60630000(40000)  0.08180000(50000)  0.22100000(50000)  0.22100
 C10_65  C 1.0  0.10630000(40000)  0.08180000(50000)  0.72100000(50000)  0.22100
 C10_66  C 1.0  0.10630000(40000)  0.58180000(50000)  0.22100000(50000)  0.22100
 C10_67  C 1.0  0.72100000(40000)  0.10630000(50000)  0.08180000(50000)  0.22100
 C10_68  C 1.0  0.22100000(40000)  0.10630000(50000)  0.58180000(50000)  0.22100
 C10_69  C 1.0  0.22100000(40000)  0.60630000(50000)  0.08180000(50000)  0.22100
 C10_70  C 1.0  0.41820000(40000)  0.77900000(50000)  0.10630000(50000)  0.22100
 C10_71  C 1.0  0.91820000(40000)  0.77900000(50000)  0.60630000(50000)  0.22100
 C10_72  C 1.0  0.91820000(40000)  0.27900000(50000)  0.10630000(50000)  0.22100
 C10_73  C 1.0  0.39370000(40000)  0.08180000(50000)  0.77900000(50000)  0.22100
 C10_74  C 1.0  0.89370000(40000)  0.08180000(50000)  0.27900000(50000)  0.22100
 C10_75  C 1.0  0.89370000(40000)  0.58180000(50000)  0.77900000(50000)  0.22100
 C10_76  C 1.0  0.72100000(40000)  0.10630000(50000)  0.91820000(50000)  0.22100
 C10_77  C 1.0  0.22100000(40000)  0.10630000(50000)  0.41820000(50000)  0.22100
 C10_78  C 1.0  0.22100000(40000)  0.60630000(50000)  0.91820000(50000)  0.22100
 C10_79  C 1.0  0.41820000(40000)  0.77900000(50000)  0.89370000(50000)  0.22100
 C10_80  C 1.0  0.91820000(40000)  0.77900000(50000)  0.39370000(50000)  0.22100
 C10_81  C 1.0  0.91820000(40000)  0.27900000(50000)  0.89370000(50000)  0.22100
 C10_82  C 1.0  0.39370000(40000)  0.08180000(50000)  0.22100000(50000)  0.22100
 C10_83  C 1.0  0.89370000(40000)  0.08180000(50000)  0.72100000(50000)  0.22100
 C10_84  C 1.0  0.89370000(40000)  0.58180000(50000)  0.22100000(50000)  0.22100
 C10_85  C 1.0  0.60630000(40000)  0.77900000(50000)  0.08180000(50000)  0.22100
 C10_86  C 1.0  0.10630000(40000)  0.77900000(50000)  0.58180000(50000)  0.22100
 C10_87  C 1.0  0.10630000(40000)  0.27900000(50000)  0.08180000(50000)  0.22100
 C10_88  C 1.0  0.27900000(40000)  0.08180000(50000)  0.10630000(50000)  0.22100
 C10_89  C 1.0  0.77900000(40000)  0.08180000(50000)  0.60630000(50000)  0.22100
 C10_90  C 1.0  0.77900000(40000)  0.58180000(50000)  0.10630000(50000)  0.22100
 C10_91  C 1.0  0.58180000(40000)  0.10630000(50000)  0.77900000(50000)  0.22100
 C10_92  C 1.0  0.08180000(40000)  0.10630000(50000)  0.27900000(50000)  0.22100
 C10_93  C 1.0  0.08180000(40000)  0.60630000(50000)  0.77900000(50000)  0.22100
 C10_94  C 1.0  0.60630000(40000)  0.77900000(50000)  0.91820000(50000)  0.22100
 C10_95  C 1.0  0.10630000(40000)  0.77900000(50000)  0.41820000(50000)  0.22100
 C10_96  C 1.0  0.10630000(40000)  0.27900000(50000)  0.91820000(50000)  0.22100
 C10_97  C 1.0  0.27900000(40000)  0.08180000(50000)  0.89370000(50000)  0.22100
 C10_98  C 1.0  0.77900000(40000)  0.08180000(50000)  0.39370000(50000)  0.22100
 C10_99  C 1.0  0.77900000(40000)  0.58180000(50000)  0.89370000(50000)  0.22100
 C10_100  C 1.0  0.58180000(40000)  0.10630000(50000)  0.22100000(50000)  0.22100
 C10_101  C 1.0  0.08180000(40000)  0.10630000(50000)  0.72100000(50000)  0.22100
 C10_102  C 1.0  0.08180000(40000)  0.60630000(50000)  0.22100000(50000)  0.22100
 C10_103  C 1.0  0.60630000(40000)  0.22100000(50000)  0.08180000(50000)  0.22100
 C10_104  C 1.0  0.10630000(40000)  0.22100000(50000)  0.58180000(50000)  0.22100
 C10_105  C 1.0  0.10630000(40000)  0.72100000(50000)  0.08180000(50000)  0.22100
 C10_106  C 1.0  0.27900000(40000)  0.91820000(50000)  0.10630000(50000)  0.22100
 C10_107  C 1.0  0.77900000(40000)  0.91820000(50000)  0.60630000(50000)  0.22100
 C10_108  C 1.0  0.77900000(40000)  0.41820000(50000)  0.10630000(50000)  0.22100
 C10_109  C 1.0  0.58180000(40000)  0.89370000(50000)  0.77900000(50000)  0.22100
 C10_110  C 1.0  0.08180000(40000)  0.89370000(50000)  0.27900000(50000)  0.22100
 C10_111  C 1.0  0.08180000(40000)  0.39370000(50000)  0.77900000(50000)  0.22100
 C10_112  C 1.0  0.60630000(40000)  0.22100000(50000)  0.91820000(50000)  0.22100
 C10_113  C 1.0  0.10630000(40000)  0.22100000(50000)  0.41820000(50000)  0.22100
 C10_114  C 1.0  0.10630000(40000)  0.72100000(50000)  0.91820000(50000)  0.22100
 C10_115  C 1.0  0.27900000(40000)  0.91820000(50000)  0.89370000(50000)  0.22100
 C10_116  C 1.0  0.77900000(40000)  0.91820000(50000)  0.39370000(50000)  0.22100
 C10_117  C 1.0  0.77900000(40000)  0.41820000(50000)  0.89370000(50000)  0.22100
 C10_118  C 1.0  0.58180000(40000)  0.89370000(50000)  0.22100000(50000)  0.22100
 C10_119  C 1.0  0.08180000(40000)  0.89370000(50000)  0.72100000(50000)  0.22100
 C10_120  C 1.0  0.08180000(40000)  0.39370000(50000)  0.22100000(50000)  0.22100
 C10_121  C 1.0  0.72100000(40000)  0.89370000(50000)  0.91820000(50000)  0.22100
 C10_122  C 1.0  0.22100000(40000)  0.89370000(50000)  0.41820000(50000)  0.22100
 C10_123  C 1.0  0.22100000(40000)  0.39370000(50000)  0.91820000(50000)  0.22100
 C10_124  C 1.0  0.41820000(40000)  0.22100000(50000)  0.89370000(50000)  0.22100
 C10_125  C 1.0  0.91820000(40000)  0.22100000(50000)  0.39370000(50000)  0.22100
 C10_126  C 1.0  0.91820000(40000)  0.72100000(50000)  0.89370000(50000)  0.22100
 C10_127  C 1.0  0.39370000(40000)  0.91820000(50000)  0.22100000(50000)  0.22100
 C10_128  C 1.0  0.89370000(40000)  0.91820000(50000)  0.72100000(50000)  0.22100
 C10_129  C 1.0  0.89370000(40000)  0.41820000(50000)  0.22100000(50000)  0.22100
 C10_130  C 1.0  0.72100000(40000)  0.89370000(50000)  0.08180000(50000)  0.22100
 C10_131  C 1.0  0.22100000(40000)  0.89370000(50000)  0.58180000(50000)  0.22100
 C10_132  C 1.0  0.22100000(40000)  0.39370000(50000)  0.08180000(50000)  0.22100
 C10_133  C 1.0  0.41820000(40000)  0.22100000(50000)  0.10630000(50000)  0.22100
 C10_134  C 1.0  0.91820000(40000)  0.22100000(50000)  0.60630000(50000)  0.22100
 C10_135  C 1.0  0.91820000(40000)  0.72100000(50000)  0.10630000(50000)  0.22100
 C10_136  C 1.0  0.39370000(40000)  0.91820000(50000)  0.77900000(50000)  0.22100
 C10_137  C 1.0  0.89370000(40000)  0.91820000(50000)  0.27900000(50000)  0.22100
 C10_138  C 1.0  0.89370000(40000)  0.41820000(50000)  0.77900000(50000)  0.22100
 C10_139  C 1.0  0.27900000(40000)  0.89370000(50000)  0.91820000(50000)  0.22100
 C10_140  C 1.0  0.77900000(40000)  0.89370000(50000)  0.41820000(50000)  0.22100
 C10_141  C 1.0  0.77900000(40000)  0.39370000(50000)  0.91820000(50000)  0.22100
 C10_142  C 1.0  0.58180000(40000)  0.22100000(50000)  0.89370000(50000)  0.22100
 C10_143  C 1.0  0.08180000(40000)  0.22100000(50000)  0.39370000(50000)  0.22100
 C10_144  C 1.0  0.08180000(40000)  0.72100000(50000)  0.89370000(50000)  0.22100
 C10_145  C 1.0  0.60630000(40000)  0.91820000(50000)  0.22100000(50000)  0.22100
 C10_146  C 1.0  0.10630000(40000)  0.91820000(50000)  0.72100000(50000)  0.22100
 C10_147  C 1.0  0.10630000(40000)  0.41820000(50000)  0.22100000(50000)  0.22100
 C10_148  C 1.0  0.27900000(40000)  0.89370000(50000)  0.08180000(50000)  0.22100
 C10_149  C 1.0  0.77900000(40000)  0.89370000(50000)  0.58180000(50000)  0.22100
 C10_150  C 1.0  0.77900000(40000)  0.39370000(50000)  0.08180000(50000)  0.22100
 C10_151  C 1.0  0.58180000(40000)  0.22100000(50000)  0.10630000(50000)  0.22100
 C10_152  C 1.0  0.08180000(40000)  0.22100000(50000)  0.60630000(50000)  0.22100
 C10_153  C 1.0  0.08180000(40000)  0.72100000(50000)  0.10630000(50000)  0.22100
 C10_154  C 1.0  0.60630000(40000)  0.91820000(50000)  0.77900000(50000)  0.22100
 C10_155  C 1.0  0.10630000(40000)  0.91820000(50000)  0.27900000(50000)  0.22100
 C10_156  C 1.0  0.10630000(40000)  0.41820000(50000)  0.77900000(50000)  0.22100
 C10_157  C 1.0  0.39370000(40000)  0.22100000(50000)  0.91820000(50000)  0.22100
 C10_158  C 1.0  0.89370000(40000)  0.22100000(50000)  0.41820000(50000)  0.22100
 C10_159  C 1.0  0.89370000(40000)  0.72100000(50000)  0.91820000(50000)  0.22100
 C10_160  C 1.0  0.72100000(40000)  0.91820000(50000)  0.89370000(50000)  0.22100
 C10_161  C 1.0  0.22100000(40000)  0.91820000(50000)  0.39370000(50000)  0.22100
 C10_162  C 1.0  0.22100000(40000)  0.41820000(50000)  0.89370000(50000)  0.22100
 C10_163  C 1.0  0.41820000(40000)  0.89370000(50000)  0.22100000(50000)  0.22100
 C10_164  C 1.0  0.91820000(40000)  0.89370000(50000)  0.72100000(50000)  0.22100
 C10_165  C 1.0  0.91820000(40000)  0.39370000(50000)  0.22100000(50000)  0.22100
 C10_166  C 1.0  0.39370000(40000)  0.22100000(50000)  0.08180000(50000)  0.22100
 C10_167  C 1.0  0.89370000(40000)  0.22100000(50000)  0.58180000(50000)  0.22100
 C10_168  C 1.0  0.89370000(40000)  0.72100000(50000)  0.08180000(50000)  0.22100
 C10_169  C 1.0  0.72100000(40000)  0.91820000(50000)  0.10630000(50000)  0.22100
 C10_170  C 1.0  0.22100000(40000)  0.91820000(50000)  0.60630000(50000)  0.22100
 C10_171  C 1.0  0.22100000(40000)  0.41820000(50000)  0.10630000(50000)  0.22100
 C10_172  C 1.0  0.41820000(40000)  0.89370000(50000)  0.77900000(50000)  0.22100
 C10_173  C 1.0  0.91820000(40000)  0.89370000(50000)  0.27900000(50000)  0.22100
 C10_174  C 1.0  0.91820000(40000)  0.39370000(50000)  0.77900000(50000)  0.22100
 C10_175  C 1.0  0.39370000(40000)  0.77900000(50000)  0.91820000(50000)  0.22100
 C10_176  C 1.0  0.89370000(40000)  0.77900000(50000)  0.41820000(50000)  0.22100
 C10_177  C 1.0  0.89370000(40000)  0.27900000(50000)  0.91820000(50000)  0.22100
 C10_178  C 1.0  0.72100000(40000)  0.08180000(50000)  0.89370000(50000)  0.22100
 C10_179  C 1.0  0.22100000(40000)  0.08180000(50000)  0.39370000(50000)  0.22100
 C10_180  C 1.0  0.22100000(40000)  0.58180000(50000)  0.89370000(50000)  0.22100
 C10_181  C 1.0  0.41820000(40000)  0.10630000(50000)  0.22100000(50000)  0.22100
 C10_182  C 1.0  0.91820000(40000)  0.10630000(50000)  0.72100000(50000)  0.22100
 C10_183  C 1.0  0.91820000(40000)  0.60630000(50000)  0.22100000(50000)  0.22100
 C10_184  C 1.0  0.39370000(40000)  0.77900000(50000)  0.08180000(50000)  0.22100
 C10_185  C 1.0  0.89370000(40000)  0.77900000(50000)  0.58180000(50000)  0.22100
 C10_186  C 1.0  0.89370000(40000)  0.27900000(50000)  0.08180000(50000)  0.22100
 C10_187  C 1.0  0.72100000(40000)  0.08180000(50000)  0.10630000(50000)  0.22100
 C10_188  C 1.0  0.22100000(40000)  0.08180000(50000)  0.60630000(50000)  0.22100
 C10_189  C 1.0  0.22100000(40000)  0.58180000(50000)  0.10630000(50000)  0.22100
 C10_190  C 1.0  0.41820000(40000)  0.10630000(50000)  0.77900000(50000)  0.22100
 C10_191  C 1.0  0.91820000(40000)  0.10630000(50000)  0.27900000(50000)  0.22100
 C10_192  C 1.0  0.91820000(40000)  0.60630000(50000)  0.77900000(50000)  0.22100
 C11  C 1.0  0.27000000(80000)  0.59650000(60000)  0.59650000(60000)  0.22800
 C11_2  C 1.0  0.59650000(80000)  0.27000000(60000)  0.59650000(60000)  0.22800
 C11_3  C 1.0  0.59650000(80000)  0.59650000(60000)  0.27000000(60000)  0.22800
 C11_4  C 1.0  0.27000000(80000)  0.59650000(60000)  0.40350000(60000)  0.22800
 C11_5  C 1.0  0.59650000(80000)  0.27000000(60000)  0.40350000(60000)  0.22800
 C11_6  C 1.0  0.59650000(80000)  0.59650000(60000)  0.73000000(60000)  0.22800
 C11_7  C 1.0  0.73000000(80000)  0.59650000(60000)  0.59650000(60000)  0.22800
 C11_8  C 1.0  0.40350000(80000)  0.27000000(60000)  0.59650000(60000)  0.22800
 C11_9  C 1.0  0.40350000(80000)  0.59650000(60000)  0.27000000(60000)  0.22800
 C11_10  C 1.0  0.73000000(80000)  0.59650000(60000)  0.40350000(60000)  0.22800
 C11_11  C 1.0  0.40350000(80000)  0.27000000(60000)  0.40350000(60000)  0.22800
 C11_12  C 1.0  0.40350000(80000)  0.59650000(60000)  0.73000000(60000)  0.22800
 C11_13  C 1.0  0.59650000(80000)  0.73000000(60000)  0.59650000(60000)  0.22800
 C11_14  C 1.0  0.27000000(80000)  0.40350000(60000)  0.59650000(60000)  0.22800
 C11_15  C 1.0  0.59650000(80000)  0.40350000(60000)  0.27000000(60000)  0.22800
 C11_16  C 1.0  0.59650000(80000)  0.73000000(60000)  0.40350000(60000)  0.22800
 C11_17  C 1.0  0.27000000(80000)  0.40350000(60000)  0.40350000(60000)  0.22800
 C11_18  C 1.0  0.59650000(80000)  0.40350000(60000)  0.73000000(60000)  0.22800
 C11_19  C 1.0  0.73000000(80000)  0.40350000(60000)  0.40350000(60000)  0.22800
 C11_20  C 1.0  0.40350000(80000)  0.73000000(60000)  0.40350000(60000)  0.22800
 C11_21  C 1.0  0.40350000(80000)  0.40350000(60000)  0.73000000(60000)  0.22800
 C11_22  C 1.0  0.73000000(80000)  0.40350000(60000)  0.59650000(60000)  0.22800
 C11_23  C 1.0  0.40350000(80000)  0.73000000(60000)  0.59650000(60000)  0.22800
 C11_24  C 1.0  0.40350000(80000)  0.40350000(60000)  0.27000000(60000)  0.22800
 C11_25  C 1.0  0.27000000(80000)  0.09650000(60000)  0.09650000(60000)  0.22800
 C11_26  C 1.0  0.77000000(80000)  0.09650000(60000)  0.59650000(60000)  0.22800
 C11_27  C 1.0  0.77000000(80000)  0.59650000(60000)  0.09650000(60000)  0.22800
 C11_28  C 1.0  0.59650000(80000)  0.77000000(60000)  0.09650000(60000)  0.22800
 C11_29  C 1.0  0.09650000(80000)  0.77000000(60000)  0.59650000(60000)  0.22800
 C11_30  C 1.0  0.09650000(80000)  0.27000000(60000)  0.09650000(60000)  0.22800
 C11_31  C 1.0  0.59650000(80000)  0.09650000(60000)  0.77000000(60000)  0.22800
 C11_32  C 1.0  0.09650000(80000)  0.09650000(60000)  0.27000000(60000)  0.22800
 C11_33  C 1.0  0.09650000(80000)  0.59650000(60000)  0.77000000(60000)  0.22800
 C11_34  C 1.0  0.27000000(80000)  0.09650000(60000)  0.90350000(60000)  0.22800
 C11_35  C 1.0  0.77000000(80000)  0.09650000(60000)  0.40350000(60000)  0.22800
 C11_36  C 1.0  0.77000000(80000)  0.59650000(60000)  0.90350000(60000)  0.22800
 C11_37  C 1.0  0.59650000(80000)  0.77000000(60000)  0.90350000(60000)  0.22800
 C11_38  C 1.0  0.09650000(80000)  0.77000000(60000)  0.40350000(60000)  0.22800
 C11_39  C 1.0  0.09650000(80000)  0.27000000(60000)  0.90350000(60000)  0.22800
 C11_40  C 1.0  0.59650000(80000)  0.09650000(60000)  0.23000000(60000)  0.22800
 C11_41  C 1.0  0.09650000(80000)  0.09650000(60000)  0.73000000(60000)  0.22800
 C11_42  C 1.0  0.09650000(80000)  0.59650000(60000)  0.23000000(60000)  0.22800
 C11_43  C 1.0  0.73000000(80000)  0.09650000(60000)  0.09650000(60000)  0.22800
 C11_44  C 1.0  0.23000000(80000)  0.09650000(60000)  0.59650000(60000)  0.22800
 C11_45  C 1.0  0.23000000(80000)  0.59650000(60000)  0.09650000(60000)  0.22800
 C11_46  C 1.0  0.40350000(80000)  0.77000000(60000)  0.09650000(60000)  0.22800
 C11_47  C 1.0  0.90350000(80000)  0.77000000(60000)  0.59650000(60000)  0.22800
 C11_48  C 1.0  0.90350000(80000)  0.27000000(60000)  0.09650000(60000)  0.22800
 C11_49  C 1.0  0.40350000(80000)  0.09650000(60000)  0.77000000(60000)  0.22800
 C11_50  C 1.0  0.90350000(80000)  0.09650000(60000)  0.27000000(60000)  0.22800
 C11_51  C 1.0  0.90350000(80000)  0.59650000(60000)  0.77000000(60000)  0.22800
 C11_52  C 1.0  0.73000000(80000)  0.09650000(60000)  0.90350000(60000)  0.22800
 C11_53  C 1.0  0.23000000(80000)  0.09650000(60000)  0.40350000(60000)  0.22800
 C11_54  C 1.0  0.23000000(80000)  0.59650000(60000)  0.90350000(60000)  0.22800
 C11_55  C 1.0  0.40350000(80000)  0.77000000(60000)  0.90350000(60000)  0.22800
 C11_56  C 1.0  0.90350000(80000)  0.77000000(60000)  0.40350000(60000)  0.22800
 C11_57  C 1.0  0.90350000(80000)  0.27000000(60000)  0.90350000(60000)  0.22800
 C11_58  C 1.0  0.40350000(80000)  0.09650000(60000)  0.23000000(60000)  0.22800
 C11_59  C 1.0  0.90350000(80000)  0.09650000(60000)  0.73000000(60000)  0.22800
 C11_60  C 1.0  0.90350000(80000)  0.59650000(60000)  0.23000000(60000)  0.22800
 C11_61  C 1.0  0.59650000(80000)  0.23000000(60000)  0.09650000(60000)  0.22800
 C11_62  C 1.0  0.09650000(80000)  0.23000000(60000)  0.59650000(60000)  0.22800
 C11_63  C 1.0  0.09650000(80000)  0.73000000(60000)  0.09650000(60000)  0.22800
 C11_64  C 1.0  0.27000000(80000)  0.90350000(60000)  0.09650000(60000)  0.22800
 C11_65  C 1.0  0.77000000(80000)  0.90350000(60000)  0.59650000(60000)  0.22800
 C11_66  C 1.0  0.77000000(80000)  0.40350000(60000)  0.09650000(60000)  0.22800
 C11_67  C 1.0  0.59650000(80000)  0.90350000(60000)  0.77000000(60000)  0.22800
 C11_68  C 1.0  0.09650000(80000)  0.90350000(60000)  0.27000000(60000)  0.22800
 C11_69  C 1.0  0.09650000(80000)  0.40350000(60000)  0.77000000(60000)  0.22800
 C11_70  C 1.0  0.59650000(80000)  0.23000000(60000)  0.90350000(60000)  0.22800
 C11_71  C 1.0  0.09650000(80000)  0.23000000(60000)  0.40350000(60000)  0.22800
 C11_72  C 1.0  0.09650000(80000)  0.73000000(60000)  0.90350000(60000)  0.22800
 C11_73  C 1.0  0.27000000(80000)  0.90350000(60000)  0.90350000(60000)  0.22800
 C11_74  C 1.0  0.77000000(80000)  0.90350000(60000)  0.40350000(60000)  0.22800
 C11_75  C 1.0  0.77000000(80000)  0.40350000(60000)  0.90350000(60000)  0.22800
 C11_76  C 1.0  0.59650000(80000)  0.90350000(60000)  0.23000000(60000)  0.22800
 C11_77  C 1.0  0.09650000(80000)  0.90350000(60000)  0.73000000(60000)  0.22800
 C11_78  C 1.0  0.09650000(80000)  0.40350000(60000)  0.23000000(60000)  0.22800
 C11_79  C 1.0  0.73000000(80000)  0.90350000(60000)  0.90350000(60000)  0.22800
 C11_80  C 1.0  0.23000000(80000)  0.90350000(60000)  0.40350000(60000)  0.22800
 C11_81  C 1.0  0.23000000(80000)  0.40350000(60000)  0.90350000(60000)  0.22800
 C11_82  C 1.0  0.40350000(80000)  0.23000000(60000)  0.90350000(60000)  0.22800
 C11_83  C 1.0  0.90350000(80000)  0.23000000(60000)  0.40350000(60000)  0.22800
 C11_84  C 1.0  0.90350000(80000)  0.73000000(60000)  0.90350000(60000)  0.22800
 C11_85  C 1.0  0.40350000(80000)  0.90350000(60000)  0.23000000(60000)  0.22800
 C11_86  C 1.0  0.90350000(80000)  0.90350000(60000)  0.73000000(60000)  0.22800
 C11_87  C 1.0  0.90350000(80000)  0.40350000(60000)  0.23000000(60000)  0.22800
 C11_88  C 1.0  0.73000000(80000)  0.90350000(60000)  0.09650000(60000)  0.22800
 C11_89  C 1.0  0.23000000(80000)  0.90350000(60000)  0.59650000(60000)  0.22800
 C11_90  C 1.0  0.23000000(80000)  0.40350000(60000)  0.09650000(60000)  0.22800
 C11_91  C 1.0  0.40350000(80000)  0.23000000(60000)  0.09650000(60000)  0.22800
 C11_92  C 1.0  0.90350000(80000)  0.23000000(60000)  0.59650000(60000)  0.22800
 C11_93  C 1.0  0.90350000(80000)  0.73000000(60000)  0.09650000(60000)  0.22800
 C11_94  C 1.0  0.40350000(80000)  0.90350000(60000)  0.77000000(60000)  0.22800
 C11_95  C 1.0  0.90350000(80000)  0.90350000(60000)  0.27000000(60000)  0.22800
 C11_96  C 1.0  0.90350000(80000)  0.40350000(60000)  0.77000000(60000)  0.22800
 C12  C 1.0  0.25180000(90000)  0.60330000(50000)  0.60330000(50000)  0.23533
 C12_2  C 1.0  0.60330000(90000)  0.25180000(50000)  0.60330000(50000)  0.23533
 C12_3  C 1.0  0.60330000(90000)  0.60330000(50000)  0.25180000(50000)  0.23533
 C12_4  C 1.0  0.25180000(90000)  0.60330000(50000)  0.39670000(50000)  0.23533
 C12_5  C 1.0  0.60330000(90000)  0.25180000(50000)  0.39670000(50000)  0.23533
 C12_6  C 1.0  0.60330000(90000)  0.60330000(50000)  0.74820000(50000)  0.23533
 C12_7  C 1.0  0.74820000(90000)  0.60330000(50000)  0.60330000(50000)  0.23533
 C12_8  C 1.0  0.39670000(90000)  0.25180000(50000)  0.60330000(50000)  0.23533
 C12_9  C 1.0  0.39670000(90000)  0.60330000(50000)  0.25180000(50000)  0.23533
 C12_10  C 1.0  0.74820000(90000)  0.60330000(50000)  0.39670000(50000)  0.23533
 C12_11  C 1.0  0.39670000(90000)  0.25180000(50000)  0.39670000(50000)  0.23533
 C12_12  C 1.0  0.39670000(90000)  0.60330000(50000)  0.74820000(50000)  0.23533
 C12_13  C 1.0  0.60330000(90000)  0.74820000(50000)  0.60330000(50000)  0.23533
 C12_14  C 1.0  0.25180000(90000)  0.39670000(50000)  0.60330000(50000)  0.23533
 C12_15  C 1.0  0.60330000(90000)  0.39670000(50000)  0.25180000(50000)  0.23533
 C12_16  C 1.0  0.60330000(90000)  0.74820000(50000)  0.39670000(50000)  0.23533
 C12_17  C 1.0  0.25180000(90000)  0.39670000(50000)  0.39670000(50000)  0.23533
 C12_18  C 1.0  0.60330000(90000)  0.39670000(50000)  0.74820000(50000)  0.23533
 C12_19  C 1.0  0.74820000(90000)  0.39670000(50000)  0.39670000(50000)  0.23533
 C12_20  C 1.0  0.39670000(90000)  0.74820000(50000)  0.39670000(50000)  0.23533
 C12_21  C 1.0  0.39670000(90000)  0.39670000(50000)  0.74820000(50000)  0.23533
 C12_22  C 1.0  0.74820000(90000)  0.39670000(50000)  0.60330000(50000)  0.23533
 C12_23  C 1.0  0.39670000(90000)  0.74820000(50000)  0.60330000(50000)  0.23533
 C12_24  C 1.0  0.39670000(90000)  0.39670000(50000)  0.25180000(50000)  0.23533
 C12_25  C 1.0  0.25180000(90000)  0.10330000(50000)  0.10330000(50000)  0.23533
 C12_26  C 1.0  0.75180000(90000)  0.10330000(50000)  0.60330000(50000)  0.23533
 C12_27  C 1.0  0.75180000(90000)  0.60330000(50000)  0.10330000(50000)  0.23533
 C12_28  C 1.0  0.60330000(90000)  0.75180000(50000)  0.10330000(50000)  0.23533
 C12_29  C 1.0  0.10330000(90000)  0.75180000(50000)  0.60330000(50000)  0.23533
 C12_30  C 1.0  0.10330000(90000)  0.25180000(50000)  0.10330000(50000)  0.23533
 C12_31  C 1.0  0.60330000(90000)  0.10330000(50000)  0.75180000(50000)  0.23533
 C12_32  C 1.0  0.10330000(90000)  0.10330000(50000)  0.25180000(50000)  0.23533
 C12_33  C 1.0  0.10330000(90000)  0.60330000(50000)  0.75180000(50000)  0.23533
 C12_34  C 1.0  0.25180000(90000)  0.10330000(50000)  0.89670000(50000)  0.23533
 C12_35  C 1.0  0.75180000(90000)  0.10330000(50000)  0.39670000(50000)  0.23533
 C12_36  C 1.0  0.75180000(90000)  0.60330000(50000)  0.89670000(50000)  0.23533
 C12_37  C 1.0  0.60330000(90000)  0.75180000(50000)  0.89670000(50000)  0.23533
 C12_38  C 1.0  0.10330000(90000)  0.75180000(50000)  0.39670000(50000)  0.23533
 C12_39  C 1.0  0.10330000(90000)  0.25180000(50000)  0.89670000(50000)  0.23533
 C12_40  C 1.0  0.60330000(90000)  0.10330000(50000)  0.24820000(50000)  0.23533
 C12_41  C 1.0  0.10330000(90000)  0.10330000(50000)  0.74820000(50000)  0.23533
 C12_42  C 1.0  0.10330000(90000)  0.60330000(50000)  0.24820000(50000)  0.23533
 C12_43  C 1.0  0.74820000(90000)  0.10330000(50000)  0.10330000(50000)  0.23533
 C12_44  C 1.0  0.24820000(90000)  0.10330000(50000)  0.60330000(50000)  0.23533
 C12_45  C 1.0  0.24820000(90000)  0.60330000(50000)  0.10330000(50000)  0.23533
 C12_46  C 1.0  0.39670000(90000)  0.75180000(50000)  0.10330000(50000)  0.23533
 C12_47  C 1.0  0.89670000(90000)  0.75180000(50000)  0.60330000(50000)  0.23533
 C12_48  C 1.0  0.89670000(90000)  0.25180000(50000)  0.10330000(50000)  0.23533
 C12_49  C 1.0  0.39670000(90000)  0.10330000(50000)  0.75180000(50000)  0.23533
 C12_50  C 1.0  0.89670000(90000)  0.10330000(50000)  0.25180000(50000)  0.23533
 C12_51  C 1.0  0.89670000(90000)  0.60330000(50000)  0.75180000(50000)  0.23533
 C12_52  C 1.0  0.74820000(90000)  0.10330000(50000)  0.89670000(50000)  0.23533
 C12_53  C 1.0  0.24820000(90000)  0.10330000(50000)  0.39670000(50000)  0.23533
 C12_54  C 1.0  0.24820000(90000)  0.60330000(50000)  0.89670000(50000)  0.23533
 C12_55  C 1.0  0.39670000(90000)  0.75180000(50000)  0.89670000(50000)  0.23533
 C12_56  C 1.0  0.89670000(90000)  0.75180000(50000)  0.39670000(50000)  0.23533
 C12_57  C 1.0  0.89670000(90000)  0.25180000(50000)  0.89670000(50000)  0.23533
 C12_58  C 1.0  0.39670000(90000)  0.10330000(50000)  0.24820000(50000)  0.23533
 C12_59  C 1.0  0.89670000(90000)  0.10330000(50000)  0.74820000(50000)  0.23533
 C12_60  C 1.0  0.89670000(90000)  0.60330000(50000)  0.24820000(50000)  0.23533
 C12_61  C 1.0  0.60330000(90000)  0.24820000(50000)  0.10330000(50000)  0.23533
 C12_62  C 1.0  0.10330000(90000)  0.24820000(50000)  0.60330000(50000)  0.23533
 C12_63  C 1.0  0.10330000(90000)  0.74820000(50000)  0.10330000(50000)  0.23533
 C12_64  C 1.0  0.25180000(90000)  0.89670000(50000)  0.10330000(50000)  0.23533
 C12_65  C 1.0  0.75180000(90000)  0.89670000(50000)  0.60330000(50000)  0.23533
 C12_66  C 1.0  0.75180000(90000)  0.39670000(50000)  0.10330000(50000)  0.23533
 C12_67  C 1.0  0.60330000(90000)  0.89670000(50000)  0.75180000(50000)  0.23533
 C12_68  C 1.0  0.10330000(90000)  0.89670000(50000)  0.25180000(50000)  0.23533
 C12_69  C 1.0  0.10330000(90000)  0.39670000(50000)  0.75180000(50000)  0.23533
 C12_70  C 1.0  0.60330000(90000)  0.24820000(50000)  0.89670000(50000)  0.23533
 C12_71  C 1.0  0.10330000(90000)  0.24820000(50000)  0.39670000(50000)  0.23533
 C12_72  C 1.0  0.10330000(90000)  0.74820000(50000)  0.89670000(50000)  0.23533
 C12_73  C 1.0  0.25180000(90000)  0.89670000(50000)  0.89670000(50000)  0.23533
 C12_74  C 1.0  0.75180000(90000)  0.89670000(50000)  0.39670000(50000)  0.23533
 C12_75  C 1.0  0.75180000(90000)  0.39670000(50000)  0.89670000(50000)  0.23533
 C12_76  C 1.0  0.60330000(90000)  0.89670000(50000)  0.24820000(50000)  0.23533
 C12_77  C 1.0  0.10330000(90000)  0.89670000(50000)  0.74820000(50000)  0.23533
 C12_78  C 1.0  0.10330000(90000)  0.39670000(50000)  0.24820000(50000)  0.23533
 C12_79  C 1.0  0.74820000(90000)  0.89670000(50000)  0.89670000(50000)  0.23533
 C12_80  C 1.0  0.24820000(90000)  0.89670000(50000)  0.39670000(50000)  0.23533
 C12_81  C 1.0  0.24820000(90000)  0.39670000(50000)  0.89670000(50000)  0.23533
 C12_82  C 1.0  0.39670000(90000)  0.24820000(50000)  0.89670000(50000)  0.23533
 C12_83  C 1.0  0.89670000(90000)  0.24820000(50000)  0.39670000(50000)  0.23533
 C12_84  C 1.0  0.89670000(90000)  0.74820000(50000)  0.89670000(50000)  0.23533
 C12_85  C 1.0  0.39670000(90000)  0.89670000(50000)  0.24820000(50000)  0.23533
 C12_86  C 1.0  0.89670000(90000)  0.89670000(50000)  0.74820000(50000)  0.23533
 C12_87  C 1.0  0.89670000(90000)  0.39670000(50000)  0.24820000(50000)  0.23533
 C12_88  C 1.0  0.74820000(90000)  0.89670000(50000)  0.10330000(50000)  0.23533
 C12_89  C 1.0  0.24820000(90000)  0.89670000(50000)  0.60330000(50000)  0.23533
 C12_90  C 1.0  0.24820000(90000)  0.39670000(50000)  0.10330000(50000)  0.23533
 C12_91  C 1.0  0.39670000(90000)  0.24820000(50000)  0.10330000(50000)  0.23533
 C12_92  C 1.0  0.89670000(90000)  0.24820000(50000)  0.60330000(50000)  0.23533
 C12_93  C 1.0  0.89670000(90000)  0.74820000(50000)  0.10330000(50000)  0.23533
 C12_94  C 1.0  0.39670000(90000)  0.89670000(50000)  0.75180000(50000)  0.23533
 C12_95  C 1.0  0.89670000(90000)  0.89670000(50000)  0.25180000(50000)  0.23533
 C12_96  C 1.0  0.89670000(90000)  0.39670000(50000)  0.75180000(50000)  0.23533
 C13  C 1.0  0.23860000(80000)  0.61140000(60000)  0.61140000(60000)  0.23900
 C13_2  C 1.0  0.61140000(80000)  0.23860000(60000)  0.61140000(60000)  0.23900
 C13_3  C 1.0  0.61140000(80000)  0.61140000(60000)  0.23860000(60000)  0.23900
 C13_4  C 1.0  0.23860000(80000)  0.61140000(60000)  0.38860000(60000)  0.23900
 C13_5  C 1.0  0.61140000(80000)  0.23860000(60000)  0.38860000(60000)  0.23900
 C13_6  C 1.0  0.61140000(80000)  0.61140000(60000)  0.76140000(60000)  0.23900
 C13_7  C 1.0  0.76140000(80000)  0.61140000(60000)  0.61140000(60000)  0.23900
 C13_8  C 1.0  0.38860000(80000)  0.23860000(60000)  0.61140000(60000)  0.23900
 C13_9  C 1.0  0.38860000(80000)  0.61140000(60000)  0.23860000(60000)  0.23900
 C13_10  C 1.0  0.76140000(80000)  0.61140000(60000)  0.38860000(60000)  0.23900
 C13_11  C 1.0  0.38860000(80000)  0.23860000(60000)  0.38860000(60000)  0.23900
 C13_12  C 1.0  0.38860000(80000)  0.61140000(60000)  0.76140000(60000)  0.23900
 C13_13  C 1.0  0.61140000(80000)  0.76140000(60000)  0.61140000(60000)  0.23900
 C13_14  C 1.0  0.23860000(80000)  0.38860000(60000)  0.61140000(60000)  0.23900
 C13_15  C 1.0  0.61140000(80000)  0.38860000(60000)  0.23860000(60000)  0.23900
 C13_16  C 1.0  0.61140000(80000)  0.76140000(60000)  0.38860000(60000)  0.23900
 C13_17  C 1.0  0.23860000(80000)  0.38860000(60000)  0.38860000(60000)  0.23900
 C13_18  C 1.0  0.61140000(80000)  0.38860000(60000)  0.76140000(60000)  0.23900
 C13_19  C 1.0  0.76140000(80000)  0.38860000(60000)  0.38860000(60000)  0.23900
 C13_20  C 1.0  0.38860000(80000)  0.76140000(60000)  0.38860000(60000)  0.23900
 C13_21  C 1.0  0.38860000(80000)  0.38860000(60000)  0.76140000(60000)  0.23900
 C13_22  C 1.0  0.76140000(80000)  0.38860000(60000)  0.61140000(60000)  0.23900
 C13_23  C 1.0  0.38860000(80000)  0.76140000(60000)  0.61140000(60000)  0.23900
 C13_24  C 1.0  0.38860000(80000)  0.38860000(60000)  0.23860000(60000)  0.23900
 C13_25  C 1.0  0.23860000(80000)  0.11140000(60000)  0.11140000(60000)  0.23900
 C13_26  C 1.0  0.73860000(80000)  0.11140000(60000)  0.61140000(60000)  0.23900
 C13_27  C 1.0  0.73860000(80000)  0.61140000(60000)  0.11140000(60000)  0.23900
 C13_28  C 1.0  0.61140000(80000)  0.73860000(60000)  0.11140000(60000)  0.23900
 C13_29  C 1.0  0.11140000(80000)  0.73860000(60000)  0.61140000(60000)  0.23900
 C13_30  C 1.0  0.11140000(80000)  0.23860000(60000)  0.11140000(60000)  0.23900
 C13_31  C 1.0  0.61140000(80000)  0.11140000(60000)  0.73860000(60000)  0.23900
 C13_32  C 1.0  0.11140000(80000)  0.11140000(60000)  0.23860000(60000)  0.23900
 C13_33  C 1.0  0.11140000(80000)  0.61140000(60000)  0.73860000(60000)  0.23900
 C13_34  C 1.0  0.23860000(80000)  0.11140000(60000)  0.88860000(60000)  0.23900
 C13_35  C 1.0  0.73860000(80000)  0.11140000(60000)  0.38860000(60000)  0.23900
 C13_36  C 1.0  0.73860000(80000)  0.61140000(60000)  0.88860000(60000)  0.23900
 C13_37  C 1.0  0.61140000(80000)  0.73860000(60000)  0.88860000(60000)  0.23900
 C13_38  C 1.0  0.11140000(80000)  0.73860000(60000)  0.38860000(60000)  0.23900
 C13_39  C 1.0  0.11140000(80000)  0.23860000(60000)  0.88860000(60000)  0.23900
 C13_40  C 1.0  0.61140000(80000)  0.11140000(60000)  0.26140000(60000)  0.23900
 C13_41  C 1.0  0.11140000(80000)  0.11140000(60000)  0.76140000(60000)  0.23900
 C13_42  C 1.0  0.11140000(80000)  0.61140000(60000)  0.26140000(60000)  0.23900
 C13_43  C 1.0  0.76140000(80000)  0.11140000(60000)  0.11140000(60000)  0.23900
 C13_44  C 1.0  0.26140000(80000)  0.11140000(60000)  0.61140000(60000)  0.23900
 C13_45  C 1.0  0.26140000(80000)  0.61140000(60000)  0.11140000(60000)  0.23900
 C13_46  C 1.0  0.38860000(80000)  0.73860000(60000)  0.11140000(60000)  0.23900
 C13_47  C 1.0  0.88860000(80000)  0.73860000(60000)  0.61140000(60000)  0.23900
 C13_48  C 1.0  0.88860000(80000)  0.23860000(60000)  0.11140000(60000)  0.23900
 C13_49  C 1.0  0.38860000(80000)  0.11140000(60000)  0.73860000(60000)  0.23900
 C13_50  C 1.0  0.88860000(80000)  0.11140000(60000)  0.23860000(60000)  0.23900
 C13_51  C 1.0  0.88860000(80000)  0.61140000(60000)  0.73860000(60000)  0.23900
 C13_52  C 1.0  0.76140000(80000)  0.11140000(60000)  0.88860000(60000)  0.23900
 C13_53  C 1.0  0.26140000(80000)  0.11140000(60000)  0.38860000(60000)  0.23900
 C13_54  C 1.0  0.26140000(80000)  0.61140000(60000)  0.88860000(60000)  0.23900
 C13_55  C 1.0  0.38860000(80000)  0.73860000(60000)  0.88860000(60000)  0.23900
 C13_56  C 1.0  0.88860000(80000)  0.73860000(60000)  0.38860000(60000)  0.23900
 C13_57  C 1.0  0.88860000(80000)  0.23860000(60000)  0.88860000(60000)  0.23900
 C13_58  C 1.0  0.38860000(80000)  0.11140000(60000)  0.26140000(60000)  0.23900
 C13_59  C 1.0  0.88860000(80000)  0.11140000(60000)  0.76140000(60000)  0.23900
 C13_60  C 1.0  0.88860000(80000)  0.61140000(60000)  0.26140000(60000)  0.23900
 C13_61  C 1.0  0.61140000(80000)  0.26140000(60000)  0.11140000(60000)  0.23900
 C13_62  C 1.0  0.11140000(80000)  0.26140000(60000)  0.61140000(60000)  0.23900
 C13_63  C 1.0  0.11140000(80000)  0.76140000(60000)  0.11140000(60000)  0.23900
 C13_64  C 1.0  0.23860000(80000)  0.88860000(60000)  0.11140000(60000)  0.23900
 C13_65  C 1.0  0.73860000(80000)  0.88860000(60000)  0.61140000(60000)  0.23900
 C13_66  C 1.0  0.73860000(80000)  0.38860000(60000)  0.11140000(60000)  0.23900
 C13_67  C 1.0  0.61140000(80000)  0.88860000(60000)  0.73860000(60000)  0.23900
 C13_68  C 1.0  0.11140000(80000)  0.88860000(60000)  0.23860000(60000)  0.23900
 C13_69  C 1.0  0.11140000(80000)  0.38860000(60000)  0.73860000(60000)  0.23900
 C13_70  C 1.0  0.61140000(80000)  0.26140000(60000)  0.88860000(60000)  0.23900
 C13_71  C 1.0  0.11140000(80000)  0.26140000(60000)  0.38860000(60000)  0.23900
 C13_72  C 1.0  0.11140000(80000)  0.76140000(60000)  0.88860000(60000)  0.23900
 C13_73  C 1.0  0.23860000(80000)  0.88860000(60000)  0.88860000(60000)  0.23900
 C13_74  C 1.0  0.73860000(80000)  0.88860000(60000)  0.38860000(60000)  0.23900
 C13_75  C 1.0  0.73860000(80000)  0.38860000(60000)  0.88860000(60000)  0.23900
 C13_76  C 1.0  0.61140000(80000)  0.88860000(60000)  0.26140000(60000)  0.23900
 C13_77  C 1.0  0.11140000(80000)  0.88860000(60000)  0.76140000(60000)  0.23900
 C13_78  C 1.0  0.11140000(80000)  0.38860000(60000)  0.26140000(60000)  0.23900
 C13_79  C 1.0  0.76140000(80000)  0.88860000(60000)  0.88860000(60000)  0.23900
 C13_80  C 1.0  0.26140000(80000)  0.88860000(60000)  0.38860000(60000)  0.23900
 C13_81  C 1.0  0.26140000(80000)  0.38860000(60000)  0.88860000(60000)  0.23900
 C13_82  C 1.0  0.38860000(80000)  0.26140000(60000)  0.88860000(60000)  0.23900
 C13_83  C 1.0  0.88860000(80000)  0.26140000(60000)  0.38860000(60000)  0.23900
 C13_84  C 1.0  0.88860000(80000)  0.76140000(60000)  0.88860000(60000)  0.23900
 C13_85  C 1.0  0.38860000(80000)  0.88860000(60000)  0.26140000(60000)  0.23900
 C13_86  C 1.0  0.88860000(80000)  0.88860000(60000)  0.76140000(60000)  0.23900
 C13_87  C 1.0  0.88860000(80000)  0.38860000(60000)  0.26140000(60000)  0.23900
 C13_88  C 1.0  0.76140000(80000)  0.88860000(60000)  0.11140000(60000)  0.23900
 C13_89  C 1.0  0.26140000(80000)  0.88860000(60000)  0.61140000(60000)  0.23900
 C13_90  C 1.0  0.26140000(80000)  0.38860000(60000)  0.11140000(60000)  0.23900
 C13_91  C 1.0  0.38860000(80000)  0.26140000(60000)  0.11140000(60000)  0.23900
 C13_92  C 1.0  0.88860000(80000)  0.26140000(60000)  0.61140000(60000)  0.23900
 C13_93  C 1.0  0.88860000(80000)  0.76140000(60000)  0.11140000(60000)  0.23900
 C13_94  C 1.0  0.38860000(80000)  0.88860000(60000)  0.73860000(60000)  0.23900
 C13_95  C 1.0  0.88860000(80000)  0.88860000(60000)  0.23860000(60000)  0.23900
 C13_96  C 1.0  0.88860000(80000)  0.38860000(60000)  0.73860000(60000)  0.23900
 C14  C 1.0  0.21960000(80000)  0.61710000(60000)  0.61710000(60000)  0.24067
 C14_2  C 1.0  0.61710000(80000)  0.21960000(60000)  0.61710000(60000)  0.24067
 C14_3  C 1.0  0.61710000(80000)  0.61710000(60000)  0.21960000(60000)  0.24067
 C14_4  C 1.0  0.21960000(80000)  0.61710000(60000)  0.38290000(60000)  0.24067
 C14_5  C 1.0  0.61710000(80000)  0.21960000(60000)  0.38290000(60000)  0.24067
 C14_6  C 1.0  0.61710000(80000)  0.61710000(60000)  0.78040000(60000)  0.24067
 C14_7  C 1.0  0.78040000(80000)  0.61710000(60000)  0.61710000(60000)  0.24067
 C14_8  C 1.0  0.38290000(80000)  0.21960000(60000)  0.61710000(60000)  0.24067
 C14_9  C 1.0  0.38290000(80000)  0.61710000(60000)  0.21960000(60000)  0.24067
 C14_10  C 1.0  0.78040000(80000)  0.61710000(60000)  0.38290000(60000)  0.24067
 C14_11  C 1.0  0.38290000(80000)  0.21960000(60000)  0.38290000(60000)  0.24067
 C14_12  C 1.0  0.38290000(80000)  0.61710000(60000)  0.78040000(60000)  0.24067
 C14_13  C 1.0  0.61710000(80000)  0.78040000(60000)  0.61710000(60000)  0.24067
 C14_14  C 1.0  0.21960000(80000)  0.38290000(60000)  0.61710000(60000)  0.24067
 C14_15  C 1.0  0.61710000(80000)  0.38290000(60000)  0.21960000(60000)  0.24067
 C14_16  C 1.0  0.61710000(80000)  0.78040000(60000)  0.38290000(60000)  0.24067
 C14_17  C 1.0  0.21960000(80000)  0.38290000(60000)  0.38290000(60000)  0.24067
 C14_18  C 1.0  0.61710000(80000)  0.38290000(60000)  0.78040000(60000)  0.24067
 C14_19  C 1.0  0.78040000(80000)  0.38290000(60000)  0.38290000(60000)  0.24067
 C14_20  C 1.0  0.38290000(80000)  0.78040000(60000)  0.38290000(60000)  0.24067
 C14_21  C 1.0  0.38290000(80000)  0.38290000(60000)  0.78040000(60000)  0.24067
 C14_22  C 1.0  0.78040000(80000)  0.38290000(60000)  0.61710000(60000)  0.24067
 C14_23  C 1.0  0.38290000(80000)  0.78040000(60000)  0.61710000(60000)  0.24067
 C14_24  C 1.0  0.38290000(80000)  0.38290000(60000)  0.21960000(60000)  0.24067
 C14_25  C 1.0  0.21960000(80000)  0.11710000(60000)  0.11710000(60000)  0.24067
 C14_26  C 1.0  0.71960000(80000)  0.11710000(60000)  0.61710000(60000)  0.24067
 C14_27  C 1.0  0.71960000(80000)  0.61710000(60000)  0.11710000(60000)  0.24067
 C14_28  C 1.0  0.61710000(80000)  0.71960000(60000)  0.11710000(60000)  0.24067
 C14_29  C 1.0  0.11710000(80000)  0.71960000(60000)  0.61710000(60000)  0.24067
 C14_30  C 1.0  0.11710000(80000)  0.21960000(60000)  0.11710000(60000)  0.24067
 C14_31  C 1.0  0.61710000(80000)  0.11710000(60000)  0.71960000(60000)  0.24067
 C14_32  C 1.0  0.11710000(80000)  0.11710000(60000)  0.21960000(60000)  0.24067
 C14_33  C 1.0  0.11710000(80000)  0.61710000(60000)  0.71960000(60000)  0.24067
 C14_34  C 1.0  0.21960000(80000)  0.11710000(60000)  0.88290000(60000)  0.24067
 C14_35  C 1.0  0.71960000(80000)  0.11710000(60000)  0.38290000(60000)  0.24067
 C14_36  C 1.0  0.71960000(80000)  0.61710000(60000)  0.88290000(60000)  0.24067
 C14_37  C 1.0  0.61710000(80000)  0.71960000(60000)  0.88290000(60000)  0.24067
 C14_38  C 1.0  0.11710000(80000)  0.71960000(60000)  0.38290000(60000)  0.24067
 C14_39  C 1.0  0.11710000(80000)  0.21960000(60000)  0.88290000(60000)  0.24067
 C14_40  C 1.0  0.61710000(80000)  0.11710000(60000)  0.28040000(60000)  0.24067
 C14_41  C 1.0  0.11710000(80000)  0.11710000(60000)  0.78040000(60000)  0.24067
 C14_42  C 1.0  0.11710000(80000)  0.61710000(60000)  0.28040000(60000)  0.24067
 C14_43  C 1.0  0.78040000(80000)  0.11710000(60000)  0.11710000(60000)  0.24067
 C14_44  C 1.0  0.28040000(80000)  0.11710000(60000)  0.61710000(60000)  0.24067
 C14_45  C 1.0  0.28040000(80000)  0.61710000(60000)  0.11710000(60000)  0.24067
 C14_46  C 1.0  0.38290000(80000)  0.71960000(60000)  0.11710000(60000)  0.24067
 C14_47  C 1.0  0.88290000(80000)  0.71960000(60000)  0.61710000(60000)  0.24067
 C14_48  C 1.0  0.88290000(80000)  0.21960000(60000)  0.11710000(60000)  0.24067
 C14_49  C 1.0  0.38290000(80000)  0.11710000(60000)  0.71960000(60000)  0.24067
 C14_50  C 1.0  0.88290000(80000)  0.11710000(60000)  0.21960000(60000)  0.24067
 C14_51  C 1.0  0.88290000(80000)  0.61710000(60000)  0.71960000(60000)  0.24067
 C14_52  C 1.0  0.78040000(80000)  0.11710000(60000)  0.88290000(60000)  0.24067
 C14_53  C 1.0  0.28040000(80000)  0.11710000(60000)  0.38290000(60000)  0.24067
 C14_54  C 1.0  0.28040000(80000)  0.61710000(60000)  0.88290000(60000)  0.24067
 C14_55  C 1.0  0.38290000(80000)  0.71960000(60000)  0.88290000(60000)  0.24067
 C14_56  C 1.0  0.88290000(80000)  0.71960000(60000)  0.38290000(60000)  0.24067
 C14_57  C 1.0  0.88290000(80000)  0.21960000(60000)  0.88290000(60000)  0.24067
 C14_58  C 1.0  0.38290000(80000)  0.11710000(60000)  0.28040000(60000)  0.24067
 C14_59  C 1.0  0.88290000(80000)  0.11710000(60000)  0.78040000(60000)  0.24067
 C14_60  C 1.0  0.88290000(80000)  0.61710000(60000)  0.28040000(60000)  0.24067
 C14_61  C 1.0  0.61710000(80000)  0.28040000(60000)  0.11710000(60000)  0.24067
 C14_62  C 1.0  0.11710000(80000)  0.28040000(60000)  0.61710000(60000)  0.24067
 C14_63  C 1.0  0.11710000(80000)  0.78040000(60000)  0.11710000(60000)  0.24067
 C14_64  C 1.0  0.21960000(80000)  0.88290000(60000)  0.11710000(60000)  0.24067
 C14_65  C 1.0  0.71960000(80000)  0.88290000(60000)  0.61710000(60000)  0.24067
 C14_66  C 1.0  0.71960000(80000)  0.38290000(60000)  0.11710000(60000)  0.24067
 C14_67  C 1.0  0.61710000(80000)  0.88290000(60000)  0.71960000(60000)  0.24067
 C14_68  C 1.0  0.11710000(80000)  0.88290000(60000)  0.21960000(60000)  0.24067
 C14_69  C 1.0  0.11710000(80000)  0.38290000(60000)  0.71960000(60000)  0.24067
 C14_70  C 1.0  0.61710000(80000)  0.28040000(60000)  0.88290000(60000)  0.24067
 C14_71  C 1.0  0.11710000(80000)  0.28040000(60000)  0.38290000(60000)  0.24067
 C14_72  C 1.0  0.11710000(80000)  0.78040000(60000)  0.88290000(60000)  0.24067
 C14_73  C 1.0  0.21960000(80000)  0.88290000(60000)  0.88290000(60000)  0.24067
 C14_74  C 1.0  0.71960000(80000)  0.88290000(60000)  0.38290000(60000)  0.24067
 C14_75  C 1.0  0.71960000(80000)  0.38290000(60000)  0.88290000(60000)  0.24067
 C14_76  C 1.0  0.61710000(80000)  0.88290000(60000)  0.28040000(60000)  0.24067
 C14_77  C 1.0  0.11710000(80000)  0.88290000(60000)  0.78040000(60000)  0.24067
 C14_78  C 1.0  0.11710000(80000)  0.38290000(60000)  0.28040000(60000)  0.24067
 C14_79  C 1.0  0.78040000(80000)  0.88290000(60000)  0.88290000(60000)  0.24067
 C14_80  C 1.0  0.28040000(80000)  0.88290000(60000)  0.38290000(60000)  0.24067
 C14_81  C 1.0  0.28040000(80000)  0.38290000(60000)  0.88290000(60000)  0.24067
 C14_82  C 1.0  0.38290000(80000)  0.28040000(60000)  0.88290000(60000)  0.24067
 C14_83  C 1.0  0.88290000(80000)  0.28040000(60000)  0.38290000(60000)  0.24067
 C14_84  C 1.0  0.88290000(80000)  0.78040000(60000)  0.88290000(60000)  0.24067
 C14_85  C 1.0  0.38290000(80000)  0.88290000(60000)  0.28040000(60000)  0.24067
 C14_86  C 1.0  0.88290000(80000)  0.88290000(60000)  0.78040000(60000)  0.24067
 C14_87  C 1.0  0.88290000(80000)  0.38290000(60000)  0.28040000(60000)  0.24067
 C14_88  C 1.0  0.78040000(80000)  0.88290000(60000)  0.11710000(60000)  0.24067
 C14_89  C 1.0  0.28040000(80000)  0.88290000(60000)  0.61710000(60000)  0.24067
 C14_90  C 1.0  0.28040000(80000)  0.38290000(60000)  0.11710000(60000)  0.24067
 C14_91  C 1.0  0.38290000(80000)  0.28040000(60000)  0.11710000(60000)  0.24067
 C14_92  C 1.0  0.88290000(80000)  0.28040000(60000)  0.61710000(60000)  0.24067
 C14_93  C 1.0  0.88290000(80000)  0.78040000(60000)  0.11710000(60000)  0.24067
 C14_94  C 1.0  0.38290000(80000)  0.88290000(60000)  0.71960000(60000)  0.24067
 C14_95  C 1.0  0.88290000(80000)  0.88290000(60000)  0.21960000(60000)  0.24067
 C14_96  C 1.0  0.88290000(80000)  0.38290000(60000)  0.71960000(60000)  0.24067
 C15  C 1.0  0.21030000(50000)  0.63400000(50000)  0.61260000(50000)  0.24167
 C15_2  C 1.0  0.61260000(50000)  0.21030000(50000)  0.63400000(50000)  0.24167
 C15_3  C 1.0  0.63400000(50000)  0.61260000(50000)  0.21030000(50000)  0.24167
 C15_4  C 1.0  0.21030000(50000)  0.63400000(50000)  0.38740000(50000)  0.24167
 C15_5  C 1.0  0.61260000(50000)  0.21030000(50000)  0.36600000(50000)  0.24167
 C15_6  C 1.0  0.63400000(50000)  0.61260000(50000)  0.78970000(50000)  0.24167
 C15_7  C 1.0  0.78970000(50000)  0.63400000(50000)  0.61260000(50000)  0.24167
 C15_8  C 1.0  0.38740000(50000)  0.21030000(50000)  0.63400000(50000)  0.24167
 C15_9  C 1.0  0.36600000(50000)  0.61260000(50000)  0.21030000(50000)  0.24167
 C15_10  C 1.0  0.78970000(50000)  0.63400000(50000)  0.38740000(50000)  0.24167
 C15_11  C 1.0  0.38740000(50000)  0.21030000(50000)  0.36600000(50000)  0.24167
 C15_12  C 1.0  0.36600000(50000)  0.61260000(50000)  0.78970000(50000)  0.24167
 C15_13  C 1.0  0.63400000(50000)  0.21030000(50000)  0.61260000(50000)  0.24167
 C15_14  C 1.0  0.21030000(50000)  0.61260000(50000)  0.63400000(50000)  0.24167
 C15_15  C 1.0  0.61260000(50000)  0.63400000(50000)  0.21030000(50000)  0.24167
 C15_16  C 1.0  0.63400000(50000)  0.21030000(50000)  0.38740000(50000)  0.24167
 C15_17  C 1.0  0.21030000(50000)  0.61260000(50000)  0.36600000(50000)  0.24167
 C15_18  C 1.0  0.61260000(50000)  0.63400000(50000)  0.78970000(50000)  0.24167
 C15_19  C 1.0  0.63400000(50000)  0.78970000(50000)  0.61260000(50000)  0.24167
 C15_20  C 1.0  0.21030000(50000)  0.38740000(50000)  0.63400000(50000)  0.24167
 C15_21  C 1.0  0.61260000(50000)  0.36600000(50000)  0.21030000(50000)  0.24167
 C15_22  C 1.0  0.63400000(50000)  0.78970000(50000)  0.38740000(50000)  0.24167
 C15_23  C 1.0  0.21030000(50000)  0.38740000(50000)  0.36600000(50000)  0.24167
 C15_24  C 1.0  0.61260000(50000)  0.36600000(50000)  0.78970000(50000)  0.24167
 C15_25  C 1.0  0.78970000(50000)  0.36600000(50000)  0.38740000(50000)  0.24167
 C15_26  C 1.0  0.38740000(50000)  0.78970000(50000)  0.36600000(50000)  0.24167
 C15_27  C 1.0  0.36600000(50000)  0.38740000(50000)  0.78970000(50000)  0.24167
 C15_28  C 1.0  0.78970000(50000)  0.36600000(50000)  0.61260000(50000)  0.24167
 C15_29  C 1.0  0.38740000(50000)  0.78970000(50000)  0.63400000(50000)  0.24167
 C15_30  C 1.0  0.36600000(50000)  0.38740000(50000)  0.21030000(50000)  0.24167
 C15_31  C 1.0  0.21030000(50000)  0.36600000(50000)  0.38740000(50000)  0.24167
 C15_32  C 1.0  0.61260000(50000)  0.78970000(50000)  0.36600000(50000)  0.24167
 C15_33  C 1.0  0.63400000(50000)  0.38740000(50000)  0.78970000(50000)  0.24167
 C15_34  C 1.0  0.21030000(50000)  0.36600000(50000)  0.61260000(50000)  0.24167
 C15_35  C 1.0  0.61260000(50000)  0.78970000(50000)  0.63400000(50000)  0.24167
 C15_36  C 1.0  0.63400000(50000)  0.38740000(50000)  0.21030000(50000)  0.24167
 C15_37  C 1.0  0.36600000(50000)  0.78970000(50000)  0.38740000(50000)  0.24167
 C15_38  C 1.0  0.78970000(50000)  0.38740000(50000)  0.36600000(50000)  0.24167
 C15_39  C 1.0  0.38740000(50000)  0.36600000(50000)  0.78970000(50000)  0.24167
 C15_40  C 1.0  0.36600000(50000)  0.78970000(50000)  0.61260000(50000)  0.24167
 C15_41  C 1.0  0.78970000(50000)  0.38740000(50000)  0.63400000(50000)  0.24167
 C15_42  C 1.0  0.38740000(50000)  0.36600000(50000)  0.21030000(50000)  0.24167
 C15_43  C 1.0  0.36600000(50000)  0.21030000(50000)  0.38740000(50000)  0.24167
 C15_44  C 1.0  0.78970000(50000)  0.61260000(50000)  0.36600000(50000)  0.24167
 C15_45  C 1.0  0.38740000(50000)  0.63400000(50000)  0.78970000(50000)  0.24167
 C15_46  C 1.0  0.36600000(50000)  0.21030000(50000)  0.61260000(50000)  0.24167
 C15_47  C 1.0  0.78970000(50000)  0.61260000(50000)  0.63400000(50000)  0.24167
 C15_48  C 1.0  0.38740000(50000)  0.63400000(50000)  0.21030000(50000)  0.24167
 C15_49  C 1.0  0.21030000(50000)  0.13400000(50000)  0.11260000(50000)  0.24167
 C15_50  C 1.0  0.71030000(50000)  0.13400000(50000)  0.61260000(50000)  0.24167
 C15_51  C 1.0  0.71030000(50000)  0.63400000(50000)  0.11260000(50000)  0.24167
 C15_52  C 1.0  0.61260000(50000)  0.71030000(50000)  0.13400000(50000)  0.24167
 C15_53  C 1.0  0.11260000(50000)  0.71030000(50000)  0.63400000(50000)  0.24167
 C15_54  C 1.0  0.11260000(50000)  0.21030000(50000)  0.13400000(50000)  0.24167
 C15_55  C 1.0  0.63400000(50000)  0.11260000(50000)  0.71030000(50000)  0.24167
 C15_56  C 1.0  0.13400000(50000)  0.11260000(50000)  0.21030000(50000)  0.24167
 C15_57  C 1.0  0.13400000(50000)  0.61260000(50000)  0.71030000(50000)  0.24167
 C15_58  C 1.0  0.21030000(50000)  0.13400000(50000)  0.88740000(50000)  0.24167
 C15_59  C 1.0  0.71030000(50000)  0.13400000(50000)  0.38740000(50000)  0.24167
 C15_60  C 1.0  0.71030000(50000)  0.63400000(50000)  0.88740000(50000)  0.24167
 C15_61  C 1.0  0.61260000(50000)  0.71030000(50000)  0.86600000(50000)  0.24167
 C15_62  C 1.0  0.11260000(50000)  0.71030000(50000)  0.36600000(50000)  0.24167
 C15_63  C 1.0  0.11260000(50000)  0.21030000(50000)  0.86600000(50000)  0.24167
 C15_64  C 1.0  0.63400000(50000)  0.11260000(50000)  0.28970000(50000)  0.24167
 C15_65  C 1.0  0.13400000(50000)  0.11260000(50000)  0.78970000(50000)  0.24167
 C15_66  C 1.0  0.13400000(50000)  0.61260000(50000)  0.28970000(50000)  0.24167
 C15_67  C 1.0  0.78970000(50000)  0.13400000(50000)  0.11260000(50000)  0.24167
 C15_68  C 1.0  0.28970000(50000)  0.13400000(50000)  0.61260000(50000)  0.24167
 C15_69  C 1.0  0.28970000(50000)  0.63400000(50000)  0.11260000(50000)  0.24167
 C15_70  C 1.0  0.38740000(50000)  0.71030000(50000)  0.13400000(50000)  0.24167
 C15_71  C 1.0  0.88740000(50000)  0.71030000(50000)  0.63400000(50000)  0.24167
 C15_72  C 1.0  0.88740000(50000)  0.21030000(50000)  0.13400000(50000)  0.24167
 C15_73  C 1.0  0.36600000(50000)  0.11260000(50000)  0.71030000(50000)  0.24167
 C15_74  C 1.0  0.86600000(50000)  0.11260000(50000)  0.21030000(50000)  0.24167
 C15_75  C 1.0  0.86600000(50000)  0.61260000(50000)  0.71030000(50000)  0.24167
 C15_76  C 1.0  0.78970000(50000)  0.13400000(50000)  0.88740000(50000)  0.24167
 C15_77  C 1.0  0.28970000(50000)  0.13400000(50000)  0.38740000(50000)  0.24167
 C15_78  C 1.0  0.28970000(50000)  0.63400000(50000)  0.88740000(50000)  0.24167
 C15_79  C 1.0  0.38740000(50000)  0.71030000(50000)  0.86600000(50000)  0.24167
 C15_80  C 1.0  0.88740000(50000)  0.71030000(50000)  0.36600000(50000)  0.24167
 C15_81  C 1.0  0.88740000(50000)  0.21030000(50000)  0.86600000(50000)  0.24167
 C15_82  C 1.0  0.36600000(50000)  0.11260000(50000)  0.28970000(50000)  0.24167
 C15_83  C 1.0  0.86600000(50000)  0.11260000(50000)  0.78970000(50000)  0.24167
 C15_84  C 1.0  0.86600000(50000)  0.61260000(50000)  0.28970000(50000)  0.24167
 C15_85  C 1.0  0.63400000(50000)  0.71030000(50000)  0.11260000(50000)  0.24167
 C15_86  C 1.0  0.13400000(50000)  0.71030000(50000)  0.61260000(50000)  0.24167
 C15_87  C 1.0  0.13400000(50000)  0.21030000(50000)  0.11260000(50000)  0.24167
 C15_88  C 1.0  0.21030000(50000)  0.11260000(50000)  0.13400000(50000)  0.24167
 C15_89  C 1.0  0.71030000(50000)  0.11260000(50000)  0.63400000(50000)  0.24167
 C15_90  C 1.0  0.71030000(50000)  0.61260000(50000)  0.13400000(50000)  0.24167
 C15_91  C 1.0  0.61260000(50000)  0.13400000(50000)  0.71030000(50000)  0.24167
 C15_92  C 1.0  0.11260000(50000)  0.13400000(50000)  0.21030000(50000)  0.24167
 C15_93  C 1.0  0.11260000(50000)  0.63400000(50000)  0.71030000(50000)  0.24167
 C15_94  C 1.0  0.63400000(50000)  0.71030000(50000)  0.88740000(50000)  0.24167
 C15_95  C 1.0  0.13400000(50000)  0.71030000(50000)  0.38740000(50000)  0.24167
 C15_96  C 1.0  0.13400000(50000)  0.21030000(50000)  0.88740000(50000)  0.24167
 C15_97  C 1.0  0.21030000(50000)  0.11260000(50000)  0.86600000(50000)  0.24167
 C15_98  C 1.0  0.71030000(50000)  0.11260000(50000)  0.36600000(50000)  0.24167
 C15_99  C 1.0  0.71030000(50000)  0.61260000(50000)  0.86600000(50000)  0.24167
 C15_100  C 1.0  0.61260000(50000)  0.13400000(50000)  0.28970000(50000)  0.24167
 C15_101  C 1.0  0.11260000(50000)  0.13400000(50000)  0.78970000(50000)  0.24167
 C15_102  C 1.0  0.11260000(50000)  0.63400000(50000)  0.28970000(50000)  0.24167
 C15_103  C 1.0  0.63400000(50000)  0.28970000(50000)  0.11260000(50000)  0.24167
 C15_104  C 1.0  0.13400000(50000)  0.28970000(50000)  0.61260000(50000)  0.24167
 C15_105  C 1.0  0.13400000(50000)  0.78970000(50000)  0.11260000(50000)  0.24167
 C15_106  C 1.0  0.21030000(50000)  0.88740000(50000)  0.13400000(50000)  0.24167
 C15_107  C 1.0  0.71030000(50000)  0.88740000(50000)  0.63400000(50000)  0.24167
 C15_108  C 1.0  0.71030000(50000)  0.38740000(50000)  0.13400000(50000)  0.24167
 C15_109  C 1.0  0.61260000(50000)  0.86600000(50000)  0.71030000(50000)  0.24167
 C15_110  C 1.0  0.11260000(50000)  0.86600000(50000)  0.21030000(50000)  0.24167
 C15_111  C 1.0  0.11260000(50000)  0.36600000(50000)  0.71030000(50000)  0.24167
 C15_112  C 1.0  0.63400000(50000)  0.28970000(50000)  0.88740000(50000)  0.24167
 C15_113  C 1.0  0.13400000(50000)  0.28970000(50000)  0.38740000(50000)  0.24167
 C15_114  C 1.0  0.13400000(50000)  0.78970000(50000)  0.88740000(50000)  0.24167
 C15_115  C 1.0  0.21030000(50000)  0.88740000(50000)  0.86600000(50000)  0.24167
 C15_116  C 1.0  0.71030000(50000)  0.88740000(50000)  0.36600000(50000)  0.24167
 C15_117  C 1.0  0.71030000(50000)  0.38740000(50000)  0.86600000(50000)  0.24167
 C15_118  C 1.0  0.61260000(50000)  0.86600000(50000)  0.28970000(50000)  0.24167
 C15_119  C 1.0  0.11260000(50000)  0.86600000(50000)  0.78970000(50000)  0.24167
 C15_120  C 1.0  0.11260000(50000)  0.36600000(50000)  0.28970000(50000)  0.24167
 C15_121  C 1.0  0.78970000(50000)  0.86600000(50000)  0.88740000(50000)  0.24167
 C15_122  C 1.0  0.28970000(50000)  0.86600000(50000)  0.38740000(50000)  0.24167
 C15_123  C 1.0  0.28970000(50000)  0.36600000(50000)  0.88740000(50000)  0.24167
 C15_124  C 1.0  0.38740000(50000)  0.28970000(50000)  0.86600000(50000)  0.24167
 C15_125  C 1.0  0.88740000(50000)  0.28970000(50000)  0.36600000(50000)  0.24167
 C15_126  C 1.0  0.88740000(50000)  0.78970000(50000)  0.86600000(50000)  0.24167
 C15_127  C 1.0  0.36600000(50000)  0.88740000(50000)  0.28970000(50000)  0.24167
 C15_128  C 1.0  0.86600000(50000)  0.88740000(50000)  0.78970000(50000)  0.24167
 C15_129  C 1.0  0.86600000(50000)  0.38740000(50000)  0.28970000(50000)  0.24167
 C15_130  C 1.0  0.78970000(50000)  0.86600000(50000)  0.11260000(50000)  0.24167
 C15_131  C 1.0  0.28970000(50000)  0.86600000(50000)  0.61260000(50000)  0.24167
 C15_132  C 1.0  0.28970000(50000)  0.36600000(50000)  0.11260000(50000)  0.24167
 C15_133  C 1.0  0.38740000(50000)  0.28970000(50000)  0.13400000(50000)  0.24167
 C15_134  C 1.0  0.88740000(50000)  0.28970000(50000)  0.63400000(50000)  0.24167
 C15_135  C 1.0  0.88740000(50000)  0.78970000(50000)  0.13400000(50000)  0.24167
 C15_136  C 1.0  0.36600000(50000)  0.88740000(50000)  0.71030000(50000)  0.24167
 C15_137  C 1.0  0.86600000(50000)  0.88740000(50000)  0.21030000(50000)  0.24167
 C15_138  C 1.0  0.86600000(50000)  0.38740000(50000)  0.71030000(50000)  0.24167
 C15_139  C 1.0  0.21030000(50000)  0.86600000(50000)  0.88740000(50000)  0.24167
 C15_140  C 1.0  0.71030000(50000)  0.86600000(50000)  0.38740000(50000)  0.24167
 C15_141  C 1.0  0.71030000(50000)  0.36600000(50000)  0.88740000(50000)  0.24167
 C15_142  C 1.0  0.61260000(50000)  0.28970000(50000)  0.86600000(50000)  0.24167
 C15_143  C 1.0  0.11260000(50000)  0.28970000(50000)  0.36600000(50000)  0.24167
 C15_144  C 1.0  0.11260000(50000)  0.78970000(50000)  0.86600000(50000)  0.24167
 C15_145  C 1.0  0.63400000(50000)  0.88740000(50000)  0.28970000(50000)  0.24167
 C15_146  C 1.0  0.13400000(50000)  0.88740000(50000)  0.78970000(50000)  0.24167
 C15_147  C 1.0  0.13400000(50000)  0.38740000(50000)  0.28970000(50000)  0.24167
 C15_148  C 1.0  0.21030000(50000)  0.86600000(50000)  0.11260000(50000)  0.24167
 C15_149  C 1.0  0.71030000(50000)  0.86600000(50000)  0.61260000(50000)  0.24167
 C15_150  C 1.0  0.71030000(50000)  0.36600000(50000)  0.11260000(50000)  0.24167
 C15_151  C 1.0  0.61260000(50000)  0.28970000(50000)  0.13400000(50000)  0.24167
 C15_152  C 1.0  0.11260000(50000)  0.28970000(50000)  0.63400000(50000)  0.24167
 C15_153  C 1.0  0.11260000(50000)  0.78970000(50000)  0.13400000(50000)  0.24167
 C15_154  C 1.0  0.63400000(50000)  0.88740000(50000)  0.71030000(50000)  0.24167
 C15_155  C 1.0  0.13400000(50000)  0.88740000(50000)  0.21030000(50000)  0.24167
 C15_156  C 1.0  0.13400000(50000)  0.38740000(50000)  0.71030000(50000)  0.24167
 C15_157  C 1.0  0.36600000(50000)  0.28970000(50000)  0.88740000(50000)  0.24167
 C15_158  C 1.0  0.86600000(50000)  0.28970000(50000)  0.38740000(50000)  0.24167
 C15_159  C 1.0  0.86600000(50000)  0.78970000(50000)  0.88740000(50000)  0.24167
 C15_160  C 1.0  0.78970000(50000)  0.88740000(50000)  0.86600000(50000)  0.24167
 C15_161  C 1.0  0.28970000(50000)  0.88740000(50000)  0.36600000(50000)  0.24167
 C15_162  C 1.0  0.28970000(50000)  0.38740000(50000)  0.86600000(50000)  0.24167
 C15_163  C 1.0  0.38740000(50000)  0.86600000(50000)  0.28970000(50000)  0.24167
 C15_164  C 1.0  0.88740000(50000)  0.86600000(50000)  0.78970000(50000)  0.24167
 C15_165  C 1.0  0.88740000(50000)  0.36600000(50000)  0.28970000(50000)  0.24167
 C15_166  C 1.0  0.36600000(50000)  0.28970000(50000)  0.11260000(50000)  0.24167
 C15_167  C 1.0  0.86600000(50000)  0.28970000(50000)  0.61260000(50000)  0.24167
 C15_168  C 1.0  0.86600000(50000)  0.78970000(50000)  0.11260000(50000)  0.24167
 C15_169  C 1.0  0.78970000(50000)  0.88740000(50000)  0.13400000(50000)  0.24167
 C15_170  C 1.0  0.28970000(50000)  0.88740000(50000)  0.63400000(50000)  0.24167
 C15_171  C 1.0  0.28970000(50000)  0.38740000(50000)  0.13400000(50000)  0.24167
 C15_172  C 1.0  0.38740000(50000)  0.86600000(50000)  0.71030000(50000)  0.24167
 C15_173  C 1.0  0.88740000(50000)  0.86600000(50000)  0.21030000(50000)  0.24167
 C15_174  C 1.0  0.88740000(50000)  0.36600000(50000)  0.71030000(50000)  0.24167
 C15_175  C 1.0  0.36600000(50000)  0.71030000(50000)  0.88740000(50000)  0.24167
 C15_176  C 1.0  0.86600000(50000)  0.71030000(50000)  0.38740000(50000)  0.24167
 C15_177  C 1.0  0.86600000(50000)  0.21030000(50000)  0.88740000(50000)  0.24167
 C15_178  C 1.0  0.78970000(50000)  0.11260000(50000)  0.86600000(50000)  0.24167
 C15_179  C 1.0  0.28970000(50000)  0.11260000(50000)  0.36600000(50000)  0.24167
 C15_180  C 1.0  0.28970000(50000)  0.61260000(50000)  0.86600000(50000)  0.24167
 C15_181  C 1.0  0.38740000(50000)  0.13400000(50000)  0.28970000(50000)  0.24167
 C15_182  C 1.0  0.88740000(50000)  0.13400000(50000)  0.78970000(50000)  0.24167
 C15_183  C 1.0  0.88740000(50000)  0.63400000(50000)  0.28970000(50000)  0.24167
 C15_184  C 1.0  0.36600000(50000)  0.71030000(50000)  0.11260000(50000)  0.24167
 C15_185  C 1.0  0.86600000(50000)  0.71030000(50000)  0.61260000(50000)  0.24167
 C15_186  C 1.0  0.86600000(50000)  0.21030000(50000)  0.11260000(50000)  0.24167
 C15_187  C 1.0  0.78970000(50000)  0.11260000(50000)  0.13400000(50000)  0.24167
 C15_188  C 1.0  0.28970000(50000)  0.11260000(50000)  0.63400000(50000)  0.24167
 C15_189  C 1.0  0.28970000(50000)  0.61260000(50000)  0.13400000(50000)  0.24167
 C15_190  C 1.0  0.38740000(50000)  0.13400000(50000)  0.71030000(50000)  0.24167
 C15_191  C 1.0  0.88740000(50000)  0.13400000(50000)  0.21030000(50000)  0.24167
 C15_192  C 1.0  0.88740000(50000)  0.63400000(50000)  0.71030000(50000)  0.24167
 C16  C 1.0  0.19260000(50000)  0.64070000(50000)  0.61860000(50000)  0.24067
 C16_2  C 1.0  0.61860000(50000)  0.19260000(50000)  0.64070000(50000)  0.24067
 C16_3  C 1.0  0.64070000(50000)  0.61860000(50000)  0.19260000(50000)  0.24067
 C16_4  C 1.0  0.19260000(50000)  0.64070000(50000)  0.38140000(50000)  0.24067
 C16_5  C 1.0  0.61860000(50000)  0.19260000(50000)  0.35930000(50000)  0.24067
 C16_6  C 1.0  0.64070000(50000)  0.61860000(50000)  0.80740000(50000)  0.24067
 C16_7  C 1.0  0.80740000(50000)  0.64070000(50000)  0.61860000(50000)  0.24067
 C16_8  C 1.0  0.38140000(50000)  0.19260000(50000)  0.64070000(50000)  0.24067
 C16_9  C 1.0  0.35930000(50000)  0.61860000(50000)  0.19260000(50000)  0.24067
 C16_10  C 1.0  0.80740000(50000)  0.64070000(50000)  0.38140000(50000)  0.24067
 C16_11  C 1.0  0.38140000(50000)  0.19260000(50000)  0.35930000(50000)  0.24067
 C16_12  C 1.0  0.35930000(50000)  0.61860000(50000)  0.80740000(50000)  0.24067
 C16_13  C 1.0  0.64070000(50000)  0.19260000(50000)  0.61860000(50000)  0.24067
 C16_14  C 1.0  0.19260000(50000)  0.61860000(50000)  0.64070000(50000)  0.24067
 C16_15  C 1.0  0.61860000(50000)  0.64070000(50000)  0.19260000(50000)  0.24067
 C16_16  C 1.0  0.64070000(50000)  0.19260000(50000)  0.38140000(50000)  0.24067
 C16_17  C 1.0  0.19260000(50000)  0.61860000(50000)  0.35930000(50000)  0.24067
 C16_18  C 1.0  0.61860000(50000)  0.64070000(50000)  0.80740000(50000)  0.24067
 C16_19  C 1.0  0.64070000(50000)  0.80740000(50000)  0.61860000(50000)  0.24067
 C16_20  C 1.0  0.19260000(50000)  0.38140000(50000)  0.64070000(50000)  0.24067
 C16_21  C 1.0  0.61860000(50000)  0.35930000(50000)  0.19260000(50000)  0.24067
 C16_22  C 1.0  0.64070000(50000)  0.80740000(50000)  0.38140000(50000)  0.24067
 C16_23  C 1.0  0.19260000(50000)  0.38140000(50000)  0.35930000(50000)  0.24067
 C16_24  C 1.0  0.61860000(50000)  0.35930000(50000)  0.80740000(50000)  0.24067
 C16_25  C 1.0  0.80740000(50000)  0.35930000(50000)  0.38140000(50000)  0.24067
 C16_26  C 1.0  0.38140000(50000)  0.80740000(50000)  0.35930000(50000)  0.24067
 C16_27  C 1.0  0.35930000(50000)  0.38140000(50000)  0.80740000(50000)  0.24067
 C16_28  C 1.0  0.80740000(50000)  0.35930000(50000)  0.61860000(50000)  0.24067
 C16_29  C 1.0  0.38140000(50000)  0.80740000(50000)  0.64070000(50000)  0.24067
 C16_30  C 1.0  0.35930000(50000)  0.38140000(50000)  0.19260000(50000)  0.24067
 C16_31  C 1.0  0.19260000(50000)  0.35930000(50000)  0.38140000(50000)  0.24067
 C16_32  C 1.0  0.61860000(50000)  0.80740000(50000)  0.35930000(50000)  0.24067
 C16_33  C 1.0  0.64070000(50000)  0.38140000(50000)  0.80740000(50000)  0.24067
 C16_34  C 1.0  0.19260000(50000)  0.35930000(50000)  0.61860000(50000)  0.24067
 C16_35  C 1.0  0.61860000(50000)  0.80740000(50000)  0.64070000(50000)  0.24067
 C16_36  C 1.0  0.64070000(50000)  0.38140000(50000)  0.19260000(50000)  0.24067
 C16_37  C 1.0  0.35930000(50000)  0.80740000(50000)  0.38140000(50000)  0.24067
 C16_38  C 1.0  0.80740000(50000)  0.38140000(50000)  0.35930000(50000)  0.24067
 C16_39  C 1.0  0.38140000(50000)  0.35930000(50000)  0.80740000(50000)  0.24067
 C16_40  C 1.0  0.35930000(50000)  0.80740000(50000)  0.61860000(50000)  0.24067
 C16_41  C 1.0  0.80740000(50000)  0.38140000(50000)  0.64070000(50000)  0.24067
 C16_42  C 1.0  0.38140000(50000)  0.35930000(50000)  0.19260000(50000)  0.24067
 C16_43  C 1.0  0.35930000(50000)  0.19260000(50000)  0.38140000(50000)  0.24067
 C16_44  C 1.0  0.80740000(50000)  0.61860000(50000)  0.35930000(50000)  0.24067
 C16_45  C 1.0  0.38140000(50000)  0.64070000(50000)  0.80740000(50000)  0.24067
 C16_46  C 1.0  0.35930000(50000)  0.19260000(50000)  0.61860000(50000)  0.24067
 C16_47  C 1.0  0.80740000(50000)  0.61860000(50000)  0.64070000(50000)  0.24067
 C16_48  C 1.0  0.38140000(50000)  0.64070000(50000)  0.19260000(50000)  0.24067
 C16_49  C 1.0  0.19260000(50000)  0.14070000(50000)  0.11860000(50000)  0.24067
 C16_50  C 1.0  0.69260000(50000)  0.14070000(50000)  0.61860000(50000)  0.24067
 C16_51  C 1.0  0.69260000(50000)  0.64070000(50000)  0.11860000(50000)  0.24067
 C16_52  C 1.0  0.61860000(50000)  0.69260000(50000)  0.14070000(50000)  0.24067
 C16_53  C 1.0  0.11860000(50000)  0.69260000(50000)  0.64070000(50000)  0.24067
 C16_54  C 1.0  0.11860000(50000)  0.19260000(50000)  0.14070000(50000)  0.24067
 C16_55  C 1.0  0.64070000(50000)  0.11860000(50000)  0.69260000(50000)  0.24067
 C16_56  C 1.0  0.14070000(50000)  0.11860000(50000)  0.19260000(50000)  0.24067
 C16_57  C 1.0  0.14070000(50000)  0.61860000(50000)  0.69260000(50000)  0.24067
 C16_58  C 1.0  0.19260000(50000)  0.14070000(50000)  0.88140000(50000)  0.24067
 C16_59  C 1.0  0.69260000(50000)  0.14070000(50000)  0.38140000(50000)  0.24067
 C16_60  C 1.0  0.69260000(50000)  0.64070000(50000)  0.88140000(50000)  0.24067
 C16_61  C 1.0  0.61860000(50000)  0.69260000(50000)  0.85930000(50000)  0.24067
 C16_62  C 1.0  0.11860000(50000)  0.69260000(50000)  0.35930000(50000)  0.24067
 C16_63  C 1.0  0.11860000(50000)  0.19260000(50000)  0.85930000(50000)  0.24067
 C16_64  C 1.0  0.64070000(50000)  0.11860000(50000)  0.30740000(50000)  0.24067
 C16_65  C 1.0  0.14070000(50000)  0.11860000(50000)  0.80740000(50000)  0.24067
 C16_66  C 1.0  0.14070000(50000)  0.61860000(50000)  0.30740000(50000)  0.24067
 C16_67  C 1.0  0.80740000(50000)  0.14070000(50000)  0.11860000(50000)  0.24067
 C16_68  C 1.0  0.30740000(50000)  0.14070000(50000)  0.61860000(50000)  0.24067
 C16_69  C 1.0  0.30740000(50000)  0.64070000(50000)  0.11860000(50000)  0.24067
 C16_70  C 1.0  0.38140000(50000)  0.69260000(50000)  0.14070000(50000)  0.24067
 C16_71  C 1.0  0.88140000(50000)  0.69260000(50000)  0.64070000(50000)  0.24067
 C16_72  C 1.0  0.88140000(50000)  0.19260000(50000)  0.14070000(50000)  0.24067
 C16_73  C 1.0  0.35930000(50000)  0.11860000(50000)  0.69260000(50000)  0.24067
 C16_74  C 1.0  0.85930000(50000)  0.11860000(50000)  0.19260000(50000)  0.24067
 C16_75  C 1.0  0.85930000(50000)  0.61860000(50000)  0.69260000(50000)  0.24067
 C16_76  C 1.0  0.80740000(50000)  0.14070000(50000)  0.88140000(50000)  0.24067
 C16_77  C 1.0  0.30740000(50000)  0.14070000(50000)  0.38140000(50000)  0.24067
 C16_78  C 1.0  0.30740000(50000)  0.64070000(50000)  0.88140000(50000)  0.24067
 C16_79  C 1.0  0.38140000(50000)  0.69260000(50000)  0.85930000(50000)  0.24067
 C16_80  C 1.0  0.88140000(50000)  0.69260000(50000)  0.35930000(50000)  0.24067
 C16_81  C 1.0  0.88140000(50000)  0.19260000(50000)  0.85930000(50000)  0.24067
 C16_82  C 1.0  0.35930000(50000)  0.11860000(50000)  0.30740000(50000)  0.24067
 C16_83  C 1.0  0.85930000(50000)  0.11860000(50000)  0.80740000(50000)  0.24067
 C16_84  C 1.0  0.85930000(50000)  0.61860000(50000)  0.30740000(50000)  0.24067
 C16_85  C 1.0  0.64070000(50000)  0.69260000(50000)  0.11860000(50000)  0.24067
 C16_86  C 1.0  0.14070000(50000)  0.69260000(50000)  0.61860000(50000)  0.24067
 C16_87  C 1.0  0.14070000(50000)  0.19260000(50000)  0.11860000(50000)  0.24067
 C16_88  C 1.0  0.19260000(50000)  0.11860000(50000)  0.14070000(50000)  0.24067
 C16_89  C 1.0  0.69260000(50000)  0.11860000(50000)  0.64070000(50000)  0.24067
 C16_90  C 1.0  0.69260000(50000)  0.61860000(50000)  0.14070000(50000)  0.24067
 C16_91  C 1.0  0.61860000(50000)  0.14070000(50000)  0.69260000(50000)  0.24067
 C16_92  C 1.0  0.11860000(50000)  0.14070000(50000)  0.19260000(50000)  0.24067
 C16_93  C 1.0  0.11860000(50000)  0.64070000(50000)  0.69260000(50000)  0.24067
 C16_94  C 1.0  0.64070000(50000)  0.69260000(50000)  0.88140000(50000)  0.24067
 C16_95  C 1.0  0.14070000(50000)  0.69260000(50000)  0.38140000(50000)  0.24067
 C16_96  C 1.0  0.14070000(50000)  0.19260000(50000)  0.88140000(50000)  0.24067
 C16_97  C 1.0  0.19260000(50000)  0.11860000(50000)  0.85930000(50000)  0.24067
 C16_98  C 1.0  0.69260000(50000)  0.11860000(50000)  0.35930000(50000)  0.24067
 C16_99  C 1.0  0.69260000(50000)  0.61860000(50000)  0.85930000(50000)  0.24067
 C16_100  C 1.0  0.61860000(50000)  0.14070000(50000)  0.30740000(50000)  0.24067
 C16_101  C 1.0  0.11860000(50000)  0.14070000(50000)  0.80740000(50000)  0.24067
 C16_102  C 1.0  0.11860000(50000)  0.64070000(50000)  0.30740000(50000)  0.24067
 C16_103  C 1.0  0.64070000(50000)  0.30740000(50000)  0.11860000(50000)  0.24067
 C16_104  C 1.0  0.14070000(50000)  0.30740000(50000)  0.61860000(50000)  0.24067
 C16_105  C 1.0  0.14070000(50000)  0.80740000(50000)  0.11860000(50000)  0.24067
 C16_106  C 1.0  0.19260000(50000)  0.88140000(50000)  0.14070000(50000)  0.24067
 C16_107  C 1.0  0.69260000(50000)  0.88140000(50000)  0.64070000(50000)  0.24067
 C16_108  C 1.0  0.69260000(50000)  0.38140000(50000)  0.14070000(50000)  0.24067
 C16_109  C 1.0  0.61860000(50000)  0.85930000(50000)  0.69260000(50000)  0.24067
 C16_110  C 1.0  0.11860000(50000)  0.85930000(50000)  0.19260000(50000)  0.24067
 C16_111  C 1.0  0.11860000(50000)  0.35930000(50000)  0.69260000(50000)  0.24067
 C16_112  C 1.0  0.64070000(50000)  0.30740000(50000)  0.88140000(50000)  0.24067
 C16_113  C 1.0  0.14070000(50000)  0.30740000(50000)  0.38140000(50000)  0.24067
 C16_114  C 1.0  0.14070000(50000)  0.80740000(50000)  0.88140000(50000)  0.24067
 C16_115  C 1.0  0.19260000(50000)  0.88140000(50000)  0.85930000(50000)  0.24067
 C16_116  C 1.0  0.69260000(50000)  0.88140000(50000)  0.35930000(50000)  0.24067
 C16_117  C 1.0  0.69260000(50000)  0.38140000(50000)  0.85930000(50000)  0.24067
 C16_118  C 1.0  0.61860000(50000)  0.85930000(50000)  0.30740000(50000)  0.24067
 C16_119  C 1.0  0.11860000(50000)  0.85930000(50000)  0.80740000(50000)  0.24067
 C16_120  C 1.0  0.11860000(50000)  0.35930000(50000)  0.30740000(50000)  0.24067
 C16_121  C 1.0  0.80740000(50000)  0.85930000(50000)  0.88140000(50000)  0.24067
 C16_122  C 1.0  0.30740000(50000)  0.85930000(50000)  0.38140000(50000)  0.24067
 C16_123  C 1.0  0.30740000(50000)  0.35930000(50000)  0.88140000(50000)  0.24067
 C16_124  C 1.0  0.38140000(50000)  0.30740000(50000)  0.85930000(50000)  0.24067
 C16_125  C 1.0  0.88140000(50000)  0.30740000(50000)  0.35930000(50000)  0.24067
 C16_126  C 1.0  0.88140000(50000)  0.80740000(50000)  0.85930000(50000)  0.24067
 C16_127  C 1.0  0.35930000(50000)  0.88140000(50000)  0.30740000(50000)  0.24067
 C16_128  C 1.0  0.85930000(50000)  0.88140000(50000)  0.80740000(50000)  0.24067
 C16_129  C 1.0  0.85930000(50000)  0.38140000(50000)  0.30740000(50000)  0.24067
 C16_130  C 1.0  0.80740000(50000)  0.85930000(50000)  0.11860000(50000)  0.24067
 C16_131  C 1.0  0.30740000(50000)  0.85930000(50000)  0.61860000(50000)  0.24067
 C16_132  C 1.0  0.30740000(50000)  0.35930000(50000)  0.11860000(50000)  0.24067
 C16_133  C 1.0  0.38140000(50000)  0.30740000(50000)  0.14070000(50000)  0.24067
 C16_134  C 1.0  0.88140000(50000)  0.30740000(50000)  0.64070000(50000)  0.24067
 C16_135  C 1.0  0.88140000(50000)  0.80740000(50000)  0.14070000(50000)  0.24067
 C16_136  C 1.0  0.35930000(50000)  0.88140000(50000)  0.69260000(50000)  0.24067
 C16_137  C 1.0  0.85930000(50000)  0.88140000(50000)  0.19260000(50000)  0.24067
 C16_138  C 1.0  0.85930000(50000)  0.38140000(50000)  0.69260000(50000)  0.24067
 C16_139  C 1.0  0.19260000(50000)  0.85930000(50000)  0.88140000(50000)  0.24067
 C16_140  C 1.0  0.69260000(50000)  0.85930000(50000)  0.38140000(50000)  0.24067
 C16_141  C 1.0  0.69260000(50000)  0.35930000(50000)  0.88140000(50000)  0.24067
 C16_142  C 1.0  0.61860000(50000)  0.30740000(50000)  0.85930000(50000)  0.24067
 C16_143  C 1.0  0.11860000(50000)  0.30740000(50000)  0.35930000(50000)  0.24067
 C16_144  C 1.0  0.11860000(50000)  0.80740000(50000)  0.85930000(50000)  0.24067
 C16_145  C 1.0  0.64070000(50000)  0.88140000(50000)  0.30740000(50000)  0.24067
 C16_146  C 1.0  0.14070000(50000)  0.88140000(50000)  0.80740000(50000)  0.24067
 C16_147  C 1.0  0.14070000(50000)  0.38140000(50000)  0.30740000(50000)  0.24067
 C16_148  C 1.0  0.19260000(50000)  0.85930000(50000)  0.11860000(50000)  0.24067
 C16_149  C 1.0  0.69260000(50000)  0.85930000(50000)  0.61860000(50000)  0.24067
 C16_150  C 1.0  0.69260000(50000)  0.35930000(50000)  0.11860000(50000)  0.24067
 C16_151  C 1.0  0.61860000(50000)  0.30740000(50000)  0.14070000(50000)  0.24067
 C16_152  C 1.0  0.11860000(50000)  0.30740000(50000)  0.64070000(50000)  0.24067
 C16_153  C 1.0  0.11860000(50000)  0.80740000(50000)  0.14070000(50000)  0.24067
 C16_154  C 1.0  0.64070000(50000)  0.88140000(50000)  0.69260000(50000)  0.24067
 C16_155  C 1.0  0.14070000(50000)  0.88140000(50000)  0.19260000(50000)  0.24067
 C16_156  C 1.0  0.14070000(50000)  0.38140000(50000)  0.69260000(50000)  0.24067
 C16_157  C 1.0  0.35930000(50000)  0.30740000(50000)  0.88140000(50000)  0.24067
 C16_158  C 1.0  0.85930000(50000)  0.30740000(50000)  0.38140000(50000)  0.24067
 C16_159  C 1.0  0.85930000(50000)  0.80740000(50000)  0.88140000(50000)  0.24067
 C16_160  C 1.0  0.80740000(50000)  0.88140000(50000)  0.85930000(50000)  0.24067
 C16_161  C 1.0  0.30740000(50000)  0.88140000(50000)  0.35930000(50000)  0.24067
 C16_162  C 1.0  0.30740000(50000)  0.38140000(50000)  0.85930000(50000)  0.24067
 C16_163  C 1.0  0.38140000(50000)  0.85930000(50000)  0.30740000(50000)  0.24067
 C16_164  C 1.0  0.88140000(50000)  0.85930000(50000)  0.80740000(50000)  0.24067
 C16_165  C 1.0  0.88140000(50000)  0.35930000(50000)  0.30740000(50000)  0.24067
 C16_166  C 1.0  0.35930000(50000)  0.30740000(50000)  0.11860000(50000)  0.24067
 C16_167  C 1.0  0.85930000(50000)  0.30740000(50000)  0.61860000(50000)  0.24067
 C16_168  C 1.0  0.85930000(50000)  0.80740000(50000)  0.11860000(50000)  0.24067
 C16_169  C 1.0  0.80740000(50000)  0.88140000(50000)  0.14070000(50000)  0.24067
 C16_170  C 1.0  0.30740000(50000)  0.88140000(50000)  0.64070000(50000)  0.24067
 C16_171  C 1.0  0.30740000(50000)  0.38140000(50000)  0.14070000(50000)  0.24067
 C16_172  C 1.0  0.38140000(50000)  0.85930000(50000)  0.69260000(50000)  0.24067
 C16_173  C 1.0  0.88140000(50000)  0.85930000(50000)  0.19260000(50000)  0.24067
 C16_174  C 1.0  0.88140000(50000)  0.35930000(50000)  0.69260000(50000)  0.24067
 C16_175  C 1.0  0.35930000(50000)  0.69260000(50000)  0.88140000(50000)  0.24067
 C16_176  C 1.0  0.85930000(50000)  0.69260000(50000)  0.38140000(50000)  0.24067
 C16_177  C 1.0  0.85930000(50000)  0.19260000(50000)  0.88140000(50000)  0.24067
 C16_178  C 1.0  0.80740000(50000)  0.11860000(50000)  0.85930000(50000)  0.24067
 C16_179  C 1.0  0.30740000(50000)  0.11860000(50000)  0.35930000(50000)  0.24067
 C16_180  C 1.0  0.30740000(50000)  0.61860000(50000)  0.85930000(50000)  0.24067
 C16_181  C 1.0  0.38140000(50000)  0.14070000(50000)  0.30740000(50000)  0.24067
 C16_182  C 1.0  0.88140000(50000)  0.14070000(50000)  0.80740000(50000)  0.24067
 C16_183  C 1.0  0.88140000(50000)  0.64070000(50000)  0.30740000(50000)  0.24067
 C16_184  C 1.0  0.35930000(50000)  0.69260000(50000)  0.11860000(50000)  0.24067
 C16_185  C 1.0  0.85930000(50000)  0.69260000(50000)  0.61860000(50000)  0.24067
 C16_186  C 1.0  0.85930000(50000)  0.19260000(50000)  0.11860000(50000)  0.24067
 C16_187  C 1.0  0.80740000(50000)  0.11860000(50000)  0.14070000(50000)  0.24067
 C16_188  C 1.0  0.30740000(50000)  0.11860000(50000)  0.64070000(50000)  0.24067
 C16_189  C 1.0  0.30740000(50000)  0.61860000(50000)  0.14070000(50000)  0.24067
 C16_190  C 1.0  0.38140000(50000)  0.14070000(50000)  0.69260000(50000)  0.24067
 C16_191  C 1.0  0.88140000(50000)  0.14070000(50000)  0.19260000(50000)  0.24067
 C16_192  C 1.0  0.88140000(50000)  0.64070000(50000)  0.69260000(50000)  0.24067
 C17  C 1.0  0.18170000(80000)  0.63360000(60000)  0.63360000(60000)  0.23933
 C17_2  C 1.0  0.63360000(80000)  0.18170000(60000)  0.63360000(60000)  0.23933
 C17_3  C 1.0  0.63360000(80000)  0.63360000(60000)  0.18170000(60000)  0.23933
 C17_4  C 1.0  0.18170000(80000)  0.63360000(60000)  0.36640000(60000)  0.23933
 C17_5  C 1.0  0.63360000(80000)  0.18170000(60000)  0.36640000(60000)  0.23933
 C17_6  C 1.0  0.63360000(80000)  0.63360000(60000)  0.81830000(60000)  0.23933
 C17_7  C 1.0  0.81830000(80000)  0.63360000(60000)  0.63360000(60000)  0.23933
 C17_8  C 1.0  0.36640000(80000)  0.18170000(60000)  0.63360000(60000)  0.23933
 C17_9  C 1.0  0.36640000(80000)  0.63360000(60000)  0.18170000(60000)  0.23933
 C17_10  C 1.0  0.81830000(80000)  0.63360000(60000)  0.36640000(60000)  0.23933
 C17_11  C 1.0  0.36640000(80000)  0.18170000(60000)  0.36640000(60000)  0.23933
 C17_12  C 1.0  0.36640000(80000)  0.63360000(60000)  0.81830000(60000)  0.23933
 C17_13  C 1.0  0.63360000(80000)  0.81830000(60000)  0.63360000(60000)  0.23933
 C17_14  C 1.0  0.18170000(80000)  0.36640000(60000)  0.63360000(60000)  0.23933
 C17_15  C 1.0  0.63360000(80000)  0.36640000(60000)  0.18170000(60000)  0.23933
 C17_16  C 1.0  0.63360000(80000)  0.81830000(60000)  0.36640000(60000)  0.23933
 C17_17  C 1.0  0.18170000(80000)  0.36640000(60000)  0.36640000(60000)  0.23933
 C17_18  C 1.0  0.63360000(80000)  0.36640000(60000)  0.81830000(60000)  0.23933
 C17_19  C 1.0  0.81830000(80000)  0.36640000(60000)  0.36640000(60000)  0.23933
 C17_20  C 1.0  0.36640000(80000)  0.81830000(60000)  0.36640000(60000)  0.23933
 C17_21  C 1.0  0.36640000(80000)  0.36640000(60000)  0.81830000(60000)  0.23933
 C17_22  C 1.0  0.81830000(80000)  0.36640000(60000)  0.63360000(60000)  0.23933
 C17_23  C 1.0  0.36640000(80000)  0.81830000(60000)  0.63360000(60000)  0.23933
 C17_24  C 1.0  0.36640000(80000)  0.36640000(60000)  0.18170000(60000)  0.23933
 C17_25  C 1.0  0.18170000(80000)  0.13360000(60000)  0.13360000(60000)  0.23933
 C17_26  C 1.0  0.68170000(80000)  0.13360000(60000)  0.63360000(60000)  0.23933
 C17_27  C 1.0  0.68170000(80000)  0.63360000(60000)  0.13360000(60000)  0.23933
 C17_28  C 1.0  0.63360000(80000)  0.68170000(60000)  0.13360000(60000)  0.23933
 C17_29  C 1.0  0.13360000(80000)  0.68170000(60000)  0.63360000(60000)  0.23933
 C17_30  C 1.0  0.13360000(80000)  0.18170000(60000)  0.13360000(60000)  0.23933
 C17_31  C 1.0  0.63360000(80000)  0.13360000(60000)  0.68170000(60000)  0.23933
 C17_32  C 1.0  0.13360000(80000)  0.13360000(60000)  0.18170000(60000)  0.23933
 C17_33  C 1.0  0.13360000(80000)  0.63360000(60000)  0.68170000(60000)  0.23933
 C17_34  C 1.0  0.18170000(80000)  0.13360000(60000)  0.86640000(60000)  0.23933
 C17_35  C 1.0  0.68170000(80000)  0.13360000(60000)  0.36640000(60000)  0.23933
 C17_36  C 1.0  0.68170000(80000)  0.63360000(60000)  0.86640000(60000)  0.23933
 C17_37  C 1.0  0.63360000(80000)  0.68170000(60000)  0.86640000(60000)  0.23933
 C17_38  C 1.0  0.13360000(80000)  0.68170000(60000)  0.36640000(60000)  0.23933
 C17_39  C 1.0  0.13360000(80000)  0.18170000(60000)  0.86640000(60000)  0.23933
 C17_40  C 1.0  0.63360000(80000)  0.13360000(60000)  0.31830000(60000)  0.23933
 C17_41  C 1.0  0.13360000(80000)  0.13360000(60000)  0.81830000(60000)  0.23933
 C17_42  C 1.0  0.13360000(80000)  0.63360000(60000)  0.31830000(60000)  0.23933
 C17_43  C 1.0  0.81830000(80000)  0.13360000(60000)  0.13360000(60000)  0.23933
 C17_44  C 1.0  0.31830000(80000)  0.13360000(60000)  0.63360000(60000)  0.23933
 C17_45  C 1.0  0.31830000(80000)  0.63360000(60000)  0.13360000(60000)  0.23933
 C17_46  C 1.0  0.36640000(80000)  0.68170000(60000)  0.13360000(60000)  0.23933
 C17_47  C 1.0  0.86640000(80000)  0.68170000(60000)  0.63360000(60000)  0.23933
 C17_48  C 1.0  0.86640000(80000)  0.18170000(60000)  0.13360000(60000)  0.23933
 C17_49  C 1.0  0.36640000(80000)  0.13360000(60000)  0.68170000(60000)  0.23933
 C17_50  C 1.0  0.86640000(80000)  0.13360000(60000)  0.18170000(60000)  0.23933
 C17_51  C 1.0  0.86640000(80000)  0.63360000(60000)  0.68170000(60000)  0.23933
 C17_52  C 1.0  0.81830000(80000)  0.13360000(60000)  0.86640000(60000)  0.23933
 C17_53  C 1.0  0.31830000(80000)  0.13360000(60000)  0.36640000(60000)  0.23933
 C17_54  C 1.0  0.31830000(80000)  0.63360000(60000)  0.86640000(60000)  0.23933
 C17_55  C 1.0  0.36640000(80000)  0.68170000(60000)  0.86640000(60000)  0.23933
 C17_56  C 1.0  0.86640000(80000)  0.68170000(60000)  0.36640000(60000)  0.23933
 C17_57  C 1.0  0.86640000(80000)  0.18170000(60000)  0.86640000(60000)  0.23933
 C17_58  C 1.0  0.36640000(80000)  0.13360000(60000)  0.31830000(60000)  0.23933
 C17_59  C 1.0  0.86640000(80000)  0.13360000(60000)  0.81830000(60000)  0.23933
 C17_60  C 1.0  0.86640000(80000)  0.63360000(60000)  0.31830000(60000)  0.23933
 C17_61  C 1.0  0.63360000(80000)  0.31830000(60000)  0.13360000(60000)  0.23933
 C17_62  C 1.0  0.13360000(80000)  0.31830000(60000)  0.63360000(60000)  0.23933
 C17_63  C 1.0  0.13360000(80000)  0.81830000(60000)  0.13360000(60000)  0.23933
 C17_64  C 1.0  0.18170000(80000)  0.86640000(60000)  0.13360000(60000)  0.23933
 C17_65  C 1.0  0.68170000(80000)  0.86640000(60000)  0.63360000(60000)  0.23933
 C17_66  C 1.0  0.68170000(80000)  0.36640000(60000)  0.13360000(60000)  0.23933
 C17_67  C 1.0  0.63360000(80000)  0.86640000(60000)  0.68170000(60000)  0.23933
 C17_68  C 1.0  0.13360000(80000)  0.86640000(60000)  0.18170000(60000)  0.23933
 C17_69  C 1.0  0.13360000(80000)  0.36640000(60000)  0.68170000(60000)  0.23933
 C17_70  C 1.0  0.63360000(80000)  0.31830000(60000)  0.86640000(60000)  0.23933
 C17_71  C 1.0  0.13360000(80000)  0.31830000(60000)  0.36640000(60000)  0.23933
 C17_72  C 1.0  0.13360000(80000)  0.81830000(60000)  0.86640000(60000)  0.23933
 C17_73  C 1.0  0.18170000(80000)  0.86640000(60000)  0.86640000(60000)  0.23933
 C17_74  C 1.0  0.68170000(80000)  0.86640000(60000)  0.36640000(60000)  0.23933
 C17_75  C 1.0  0.68170000(80000)  0.36640000(60000)  0.86640000(60000)  0.23933
 C17_76  C 1.0  0.63360000(80000)  0.86640000(60000)  0.31830000(60000)  0.23933
 C17_77  C 1.0  0.13360000(80000)  0.86640000(60000)  0.81830000(60000)  0.23933
 C17_78  C 1.0  0.13360000(80000)  0.36640000(60000)  0.31830000(60000)  0.23933
 C17_79  C 1.0  0.81830000(80000)  0.86640000(60000)  0.86640000(60000)  0.23933
 C17_80  C 1.0  0.31830000(80000)  0.86640000(60000)  0.36640000(60000)  0.23933
 C17_81  C 1.0  0.31830000(80000)  0.36640000(60000)  0.86640000(60000)  0.23933
 C17_82  C 1.0  0.36640000(80000)  0.31830000(60000)  0.86640000(60000)  0.23933
 C17_83  C 1.0  0.86640000(80000)  0.31830000(60000)  0.36640000(60000)  0.23933
 C17_84  C 1.0  0.86640000(80000)  0.81830000(60000)  0.86640000(60000)  0.23933
 C17_85  C 1.0  0.36640000(80000)  0.86640000(60000)  0.31830000(60000)  0.23933
 C17_86  C 1.0  0.86640000(80000)  0.86640000(60000)  0.81830000(60000)  0.23933
 C17_87  C 1.0  0.86640000(80000)  0.36640000(60000)  0.31830000(60000)  0.23933
 C17_88  C 1.0  0.81830000(80000)  0.86640000(60000)  0.13360000(60000)  0.23933
 C17_89  C 1.0  0.31830000(80000)  0.86640000(60000)  0.63360000(60000)  0.23933
 C17_90  C 1.0  0.31830000(80000)  0.36640000(60000)  0.13360000(60000)  0.23933
 C17_91  C 1.0  0.36640000(80000)  0.31830000(60000)  0.13360000(60000)  0.23933
 C17_92  C 1.0  0.86640000(80000)  0.31830000(60000)  0.63360000(60000)  0.23933
 C17_93  C 1.0  0.86640000(80000)  0.81830000(60000)  0.13360000(60000)  0.23933
 C17_94  C 1.0  0.36640000(80000)  0.86640000(60000)  0.68170000(60000)  0.23933
 C17_95  C 1.0  0.86640000(80000)  0.86640000(60000)  0.18170000(60000)  0.23933
 C17_96  C 1.0  0.86640000(80000)  0.36640000(60000)  0.68170000(60000)  0.23933
 C18  C 1.0  0.16340000(80000)  0.64030000(70000)  0.64030000(70000)  0.23733
 C18_2  C 1.0  0.64030000(80000)  0.16340000(70000)  0.64030000(70000)  0.23733
 C18_3  C 1.0  0.64030000(80000)  0.64030000(70000)  0.16340000(70000)  0.23733
 C18_4  C 1.0  0.16340000(80000)  0.64030000(70000)  0.35970000(70000)  0.23733
 C18_5  C 1.0  0.64030000(80000)  0.16340000(70000)  0.35970000(70000)  0.23733
 C18_6  C 1.0  0.64030000(80000)  0.64030000(70000)  0.83660000(70000)  0.23733
 C18_7  C 1.0  0.83660000(80000)  0.64030000(70000)  0.64030000(70000)  0.23733
 C18_8  C 1.0  0.35970000(80000)  0.16340000(70000)  0.64030000(70000)  0.23733
 C18_9  C 1.0  0.35970000(80000)  0.64030000(70000)  0.16340000(70000)  0.23733
 C18_10  C 1.0  0.83660000(80000)  0.64030000(70000)  0.35970000(70000)  0.23733
 C18_11  C 1.0  0.35970000(80000)  0.16340000(70000)  0.35970000(70000)  0.23733
 C18_12  C 1.0  0.35970000(80000)  0.64030000(70000)  0.83660000(70000)  0.23733
 C18_13  C 1.0  0.64030000(80000)  0.83660000(70000)  0.64030000(70000)  0.23733
 C18_14  C 1.0  0.16340000(80000)  0.35970000(70000)  0.64030000(70000)  0.23733
 C18_15  C 1.0  0.64030000(80000)  0.35970000(70000)  0.16340000(70000)  0.23733
 C18_16  C 1.0  0.64030000(80000)  0.83660000(70000)  0.35970000(70000)  0.23733
 C18_17  C 1.0  0.16340000(80000)  0.35970000(70000)  0.35970000(70000)  0.23733
 C18_18  C 1.0  0.64030000(80000)  0.35970000(70000)  0.83660000(70000)  0.23733
 C18_19  C 1.0  0.83660000(80000)  0.35970000(70000)  0.35970000(70000)  0.23733
 C18_20  C 1.0  0.35970000(80000)  0.83660000(70000)  0.35970000(70000)  0.23733
 C18_21  C 1.0  0.35970000(80000)  0.35970000(70000)  0.83660000(70000)  0.23733
 C18_22  C 1.0  0.83660000(80000)  0.35970000(70000)  0.64030000(70000)  0.23733
 C18_23  C 1.0  0.35970000(80000)  0.83660000(70000)  0.64030000(70000)  0.23733
 C18_24  C 1.0  0.35970000(80000)  0.35970000(70000)  0.16340000(70000)  0.23733
 C18_25  C 1.0  0.16340000(80000)  0.14030000(70000)  0.14030000(70000)  0.23733
 C18_26  C 1.0  0.66340000(80000)  0.14030000(70000)  0.64030000(70000)  0.23733
 C18_27  C 1.0  0.66340000(80000)  0.64030000(70000)  0.14030000(70000)  0.23733
 C18_28  C 1.0  0.64030000(80000)  0.66340000(70000)  0.14030000(70000)  0.23733
 C18_29  C 1.0  0.14030000(80000)  0.66340000(70000)  0.64030000(70000)  0.23733
 C18_30  C 1.0  0.14030000(80000)  0.16340000(70000)  0.14030000(70000)  0.23733
 C18_31  C 1.0  0.64030000(80000)  0.14030000(70000)  0.66340000(70000)  0.23733
 C18_32  C 1.0  0.14030000(80000)  0.14030000(70000)  0.16340000(70000)  0.23733
 C18_33  C 1.0  0.14030000(80000)  0.64030000(70000)  0.66340000(70000)  0.23733
 C18_34  C 1.0  0.16340000(80000)  0.14030000(70000)  0.85970000(70000)  0.23733
 C18_35  C 1.0  0.66340000(80000)  0.14030000(70000)  0.35970000(70000)  0.23733
 C18_36  C 1.0  0.66340000(80000)  0.64030000(70000)  0.85970000(70000)  0.23733
 C18_37  C 1.0  0.64030000(80000)  0.66340000(70000)  0.85970000(70000)  0.23733
 C18_38  C 1.0  0.14030000(80000)  0.66340000(70000)  0.35970000(70000)  0.23733
 C18_39  C 1.0  0.14030000(80000)  0.16340000(70000)  0.85970000(70000)  0.23733
 C18_40  C 1.0  0.64030000(80000)  0.14030000(70000)  0.33660000(70000)  0.23733
 C18_41  C 1.0  0.14030000(80000)  0.14030000(70000)  0.83660000(70000)  0.23733
 C18_42  C 1.0  0.14030000(80000)  0.64030000(70000)  0.33660000(70000)  0.23733
 C18_43  C 1.0  0.83660000(80000)  0.14030000(70000)  0.14030000(70000)  0.23733
 C18_44  C 1.0  0.33660000(80000)  0.14030000(70000)  0.64030000(70000)  0.23733
 C18_45  C 1.0  0.33660000(80000)  0.64030000(70000)  0.14030000(70000)  0.23733
 C18_46  C 1.0  0.35970000(80000)  0.66340000(70000)  0.14030000(70000)  0.23733
 C18_47  C 1.0  0.85970000(80000)  0.66340000(70000)  0.64030000(70000)  0.23733
 C18_48  C 1.0  0.85970000(80000)  0.16340000(70000)  0.14030000(70000)  0.23733
 C18_49  C 1.0  0.35970000(80000)  0.14030000(70000)  0.66340000(70000)  0.23733
 C18_50  C 1.0  0.85970000(80000)  0.14030000(70000)  0.16340000(70000)  0.23733
 C18_51  C 1.0  0.85970000(80000)  0.64030000(70000)  0.66340000(70000)  0.23733
 C18_52  C 1.0  0.83660000(80000)  0.14030000(70000)  0.85970000(70000)  0.23733
 C18_53  C 1.0  0.33660000(80000)  0.14030000(70000)  0.35970000(70000)  0.23733
 C18_54  C 1.0  0.33660000(80000)  0.64030000(70000)  0.85970000(70000)  0.23733
 C18_55  C 1.0  0.35970000(80000)  0.66340000(70000)  0.85970000(70000)  0.23733
 C18_56  C 1.0  0.85970000(80000)  0.66340000(70000)  0.35970000(70000)  0.23733
 C18_57  C 1.0  0.85970000(80000)  0.16340000(70000)  0.85970000(70000)  0.23733
 C18_58  C 1.0  0.35970000(80000)  0.14030000(70000)  0.33660000(70000)  0.23733
 C18_59  C 1.0  0.85970000(80000)  0.14030000(70000)  0.83660000(70000)  0.23733
 C18_60  C 1.0  0.85970000(80000)  0.64030000(70000)  0.33660000(70000)  0.23733
 C18_61  C 1.0  0.64030000(80000)  0.33660000(70000)  0.14030000(70000)  0.23733
 C18_62  C 1.0  0.14030000(80000)  0.33660000(70000)  0.64030000(70000)  0.23733
 C18_63  C 1.0  0.14030000(80000)  0.83660000(70000)  0.14030000(70000)  0.23733
 C18_64  C 1.0  0.16340000(80000)  0.85970000(70000)  0.14030000(70000)  0.23733
 C18_65  C 1.0  0.66340000(80000)  0.85970000(70000)  0.64030000(70000)  0.23733
 C18_66  C 1.0  0.66340000(80000)  0.35970000(70000)  0.14030000(70000)  0.23733
 C18_67  C 1.0  0.64030000(80000)  0.85970000(70000)  0.66340000(70000)  0.23733
 C18_68  C 1.0  0.14030000(80000)  0.85970000(70000)  0.16340000(70000)  0.23733
 C18_69  C 1.0  0.14030000(80000)  0.35970000(70000)  0.66340000(70000)  0.23733
 C18_70  C 1.0  0.64030000(80000)  0.33660000(70000)  0.85970000(70000)  0.23733
 C18_71  C 1.0  0.14030000(80000)  0.33660000(70000)  0.35970000(70000)  0.23733
 C18_72  C 1.0  0.14030000(80000)  0.83660000(70000)  0.85970000(70000)  0.23733
 C18_73  C 1.0  0.16340000(80000)  0.85970000(70000)  0.85970000(70000)  0.23733
 C18_74  C 1.0  0.66340000(80000)  0.85970000(70000)  0.35970000(70000)  0.23733
 C18_75  C 1.0  0.66340000(80000)  0.35970000(70000)  0.85970000(70000)  0.23733
 C18_76  C 1.0  0.64030000(80000)  0.85970000(70000)  0.33660000(70000)  0.23733
 C18_77  C 1.0  0.14030000(80000)  0.85970000(70000)  0.83660000(70000)  0.23733
 C18_78  C 1.0  0.14030000(80000)  0.35970000(70000)  0.33660000(70000)  0.23733
 C18_79  C 1.0  0.83660000(80000)  0.85970000(70000)  0.85970000(70000)  0.23733
 C18_80  C 1.0  0.33660000(80000)  0.85970000(70000)  0.35970000(70000)  0.23733
 C18_81  C 1.0  0.33660000(80000)  0.35970000(70000)  0.85970000(70000)  0.23733
 C18_82  C 1.0  0.35970000(80000)  0.33660000(70000)  0.85970000(70000)  0.23733
 C18_83  C 1.0  0.85970000(80000)  0.33660000(70000)  0.35970000(70000)  0.23733
 C18_84  C 1.0  0.85970000(80000)  0.83660000(70000)  0.85970000(70000)  0.23733
 C18_85  C 1.0  0.35970000(80000)  0.85970000(70000)  0.33660000(70000)  0.23733
 C18_86  C 1.0  0.85970000(80000)  0.85970000(70000)  0.83660000(70000)  0.23733
 C18_87  C 1.0  0.85970000(80000)  0.35970000(70000)  0.33660000(70000)  0.23733
 C18_88  C 1.0  0.83660000(80000)  0.85970000(70000)  0.14030000(70000)  0.23733
 C18_89  C 1.0  0.33660000(80000)  0.85970000(70000)  0.64030000(70000)  0.23733
 C18_90  C 1.0  0.33660000(80000)  0.35970000(70000)  0.14030000(70000)  0.23733
 C18_91  C 1.0  0.35970000(80000)  0.33660000(70000)  0.14030000(70000)  0.23733
 C18_92  C 1.0  0.85970000(80000)  0.33660000(70000)  0.64030000(70000)  0.23733
 C18_93  C 1.0  0.85970000(80000)  0.83660000(70000)  0.14030000(70000)  0.23733
 C18_94  C 1.0  0.35970000(80000)  0.85970000(70000)  0.66340000(70000)  0.23733
 C18_95  C 1.0  0.85970000(80000)  0.85970000(70000)  0.16340000(70000)  0.23733
 C18_96  C 1.0  0.85970000(80000)  0.35970000(70000)  0.66340000(70000)  0.23733
 C19  C 1.0  0.15490000(60000)  0.62990000(70000)  0.65490000(60000)  0.23767
 C19_2  C 1.0  0.65490000(60000)  0.15490000(70000)  0.62990000(60000)  0.23767
 C19_3  C 1.0  0.62990000(60000)  0.65490000(70000)  0.15490000(60000)  0.23767
 C19_4  C 1.0  0.15490000(60000)  0.62990000(70000)  0.34510000(60000)  0.23767
 C19_5  C 1.0  0.65490000(60000)  0.15490000(70000)  0.37010000(60000)  0.23767
 C19_6  C 1.0  0.62990000(60000)  0.65490000(70000)  0.84510000(60000)  0.23767
 C19_7  C 1.0  0.84510000(60000)  0.62990000(70000)  0.65490000(60000)  0.23767
 C19_8  C 1.0  0.34510000(60000)  0.15490000(70000)  0.62990000(60000)  0.23767
 C19_9  C 1.0  0.37010000(60000)  0.65490000(70000)  0.15490000(60000)  0.23767
 C19_10  C 1.0  0.84510000(60000)  0.62990000(70000)  0.34510000(60000)  0.23767
 C19_11  C 1.0  0.34510000(60000)  0.15490000(70000)  0.37010000(60000)  0.23767
 C19_12  C 1.0  0.37010000(60000)  0.65490000(70000)  0.84510000(60000)  0.23767
 C19_13  C 1.0  0.62990000(60000)  0.15490000(70000)  0.65490000(60000)  0.23767
 C19_14  C 1.0  0.15490000(60000)  0.65490000(70000)  0.62990000(60000)  0.23767
 C19_15  C 1.0  0.65490000(60000)  0.62990000(70000)  0.15490000(60000)  0.23767
 C19_16  C 1.0  0.62990000(60000)  0.15490000(70000)  0.34510000(60000)  0.23767
 C19_17  C 1.0  0.15490000(60000)  0.65490000(70000)  0.37010000(60000)  0.23767
 C19_18  C 1.0  0.65490000(60000)  0.62990000(70000)  0.84510000(60000)  0.23767
 C19_19  C 1.0  0.62990000(60000)  0.84510000(70000)  0.65490000(60000)  0.23767
 C19_20  C 1.0  0.15490000(60000)  0.34510000(70000)  0.62990000(60000)  0.23767
 C19_21  C 1.0  0.65490000(60000)  0.37010000(70000)  0.15490000(60000)  0.23767
 C19_22  C 1.0  0.62990000(60000)  0.84510000(70000)  0.34510000(60000)  0.23767
 C19_23  C 1.0  0.15490000(60000)  0.34510000(70000)  0.37010000(60000)  0.23767
 C19_24  C 1.0  0.65490000(60000)  0.37010000(70000)  0.84510000(60000)  0.23767
 C19_25  C 1.0  0.84510000(60000)  0.37010000(70000)  0.34510000(60000)  0.23767
 C19_26  C 1.0  0.34510000(60000)  0.84510000(70000)  0.37010000(60000)  0.23767
 C19_27  C 1.0  0.37010000(60000)  0.34510000(70000)  0.84510000(60000)  0.23767
 C19_28  C 1.0  0.84510000(60000)  0.37010000(70000)  0.65490000(60000)  0.23767
 C19_29  C 1.0  0.34510000(60000)  0.84510000(70000)  0.62990000(60000)  0.23767
 C19_30  C 1.0  0.37010000(60000)  0.34510000(70000)  0.15490000(60000)  0.23767
 C19_31  C 1.0  0.15490000(60000)  0.37010000(70000)  0.34510000(60000)  0.23767
 C19_32  C 1.0  0.65490000(60000)  0.84510000(70000)  0.37010000(60000)  0.23767
 C19_33  C 1.0  0.62990000(60000)  0.34510000(70000)  0.84510000(60000)  0.23767
 C19_34  C 1.0  0.15490000(60000)  0.37010000(70000)  0.65490000(60000)  0.23767
 C19_35  C 1.0  0.65490000(60000)  0.84510000(70000)  0.62990000(60000)  0.23767
 C19_36  C 1.0  0.62990000(60000)  0.34510000(70000)  0.15490000(60000)  0.23767
 C19_37  C 1.0  0.37010000(60000)  0.84510000(70000)  0.34510000(60000)  0.23767
 C19_38  C 1.0  0.84510000(60000)  0.34510000(70000)  0.37010000(60000)  0.23767
 C19_39  C 1.0  0.34510000(60000)  0.37010000(70000)  0.84510000(60000)  0.23767
 C19_40  C 1.0  0.37010000(60000)  0.84510000(70000)  0.65490000(60000)  0.23767
 C19_41  C 1.0  0.84510000(60000)  0.34510000(70000)  0.62990000(60000)  0.23767
 C19_42  C 1.0  0.34510000(60000)  0.37010000(70000)  0.15490000(60000)  0.23767
 C19_43  C 1.0  0.37010000(60000)  0.15490000(70000)  0.34510000(60000)  0.23767
 C19_44  C 1.0  0.84510000(60000)  0.65490000(70000)  0.37010000(60000)  0.23767
 C19_45  C 1.0  0.34510000(60000)  0.62990000(70000)  0.84510000(60000)  0.23767
 C19_46  C 1.0  0.37010000(60000)  0.15490000(70000)  0.65490000(60000)  0.23767
 C19_47  C 1.0  0.84510000(60000)  0.65490000(70000)  0.62990000(60000)  0.23767
 C19_48  C 1.0  0.34510000(60000)  0.62990000(70000)  0.15490000(60000)  0.23767
 C19_49  C 1.0  0.15490000(60000)  0.12990000(70000)  0.15490000(60000)  0.23767
 C19_50  C 1.0  0.65490000(60000)  0.12990000(70000)  0.65490000(60000)  0.23767
 C19_51  C 1.0  0.65490000(60000)  0.65490000(70000)  0.12990000(60000)  0.23767
 C19_52  C 1.0  0.15490000(60000)  0.15490000(70000)  0.12990000(60000)  0.23767
 C19_53  C 1.0  0.12990000(60000)  0.15490000(70000)  0.15490000(60000)  0.23767
 C19_54  C 1.0  0.12990000(60000)  0.65490000(70000)  0.65490000(60000)  0.23767
 C19_55  C 1.0  0.15490000(60000)  0.12990000(70000)  0.84510000(60000)  0.23767
 C19_56  C 1.0  0.65490000(60000)  0.12990000(70000)  0.34510000(60000)  0.23767
 C19_57  C 1.0  0.65490000(60000)  0.65490000(70000)  0.87010000(60000)  0.23767
 C19_58  C 1.0  0.15490000(60000)  0.15490000(70000)  0.87010000(60000)  0.23767
 C19_59  C 1.0  0.12990000(60000)  0.15490000(70000)  0.84510000(60000)  0.23767
 C19_60  C 1.0  0.12990000(60000)  0.65490000(70000)  0.34510000(60000)  0.23767
 C19_61  C 1.0  0.84510000(60000)  0.12990000(70000)  0.15490000(60000)  0.23767
 C19_62  C 1.0  0.34510000(60000)  0.12990000(70000)  0.65490000(60000)  0.23767
 C19_63  C 1.0  0.34510000(60000)  0.65490000(70000)  0.12990000(60000)  0.23767
 C19_64  C 1.0  0.84510000(60000)  0.15490000(70000)  0.12990000(60000)  0.23767
 C19_65  C 1.0  0.87010000(60000)  0.15490000(70000)  0.15490000(60000)  0.23767
 C19_66  C 1.0  0.87010000(60000)  0.65490000(70000)  0.65490000(60000)  0.23767
 C19_67  C 1.0  0.84510000(60000)  0.12990000(70000)  0.84510000(60000)  0.23767
 C19_68  C 1.0  0.34510000(60000)  0.12990000(70000)  0.34510000(60000)  0.23767
 C19_69  C 1.0  0.34510000(60000)  0.65490000(70000)  0.87010000(60000)  0.23767
 C19_70  C 1.0  0.84510000(60000)  0.15490000(70000)  0.87010000(60000)  0.23767
 C19_71  C 1.0  0.87010000(60000)  0.15490000(70000)  0.84510000(60000)  0.23767
 C19_72  C 1.0  0.87010000(60000)  0.65490000(70000)  0.34510000(60000)  0.23767
 C19_73  C 1.0  0.12990000(60000)  0.34510000(70000)  0.65490000(60000)  0.23767
 C19_74  C 1.0  0.12990000(60000)  0.84510000(70000)  0.15490000(60000)  0.23767
 C19_75  C 1.0  0.15490000(60000)  0.84510000(70000)  0.12990000(60000)  0.23767
 C19_76  C 1.0  0.65490000(60000)  0.34510000(70000)  0.12990000(60000)  0.23767
 C19_77  C 1.0  0.65490000(60000)  0.87010000(70000)  0.65490000(60000)  0.23767
 C19_78  C 1.0  0.15490000(60000)  0.87010000(70000)  0.15490000(60000)  0.23767
 C19_79  C 1.0  0.12990000(60000)  0.34510000(70000)  0.34510000(60000)  0.23767
 C19_80  C 1.0  0.12990000(60000)  0.84510000(70000)  0.84510000(60000)  0.23767
 C19_81  C 1.0  0.15490000(60000)  0.84510000(70000)  0.87010000(60000)  0.23767
 C19_82  C 1.0  0.65490000(60000)  0.34510000(70000)  0.87010000(60000)  0.23767
 C19_83  C 1.0  0.65490000(60000)  0.87010000(70000)  0.34510000(60000)  0.23767
 C19_84  C 1.0  0.15490000(60000)  0.87010000(70000)  0.84510000(60000)  0.23767
 C19_85  C 1.0  0.84510000(60000)  0.87010000(70000)  0.84510000(60000)  0.23767
 C19_86  C 1.0  0.34510000(60000)  0.87010000(70000)  0.34510000(60000)  0.23767
 C19_87  C 1.0  0.34510000(60000)  0.34510000(70000)  0.87010000(60000)  0.23767
 C19_88  C 1.0  0.84510000(60000)  0.84510000(70000)  0.87010000(60000)  0.23767
 C19_89  C 1.0  0.87010000(60000)  0.84510000(70000)  0.84510000(60000)  0.23767
 C19_90  C 1.0  0.87010000(60000)  0.34510000(70000)  0.34510000(60000)  0.23767
 C19_91  C 1.0  0.84510000(60000)  0.87010000(70000)  0.15490000(60000)  0.23767
 C19_92  C 1.0  0.34510000(60000)  0.87010000(70000)  0.65490000(60000)  0.23767
 C19_93  C 1.0  0.34510000(60000)  0.34510000(70000)  0.12990000(60000)  0.23767
 C19_94  C 1.0  0.84510000(60000)  0.84510000(70000)  0.12990000(60000)  0.23767
 C19_95  C 1.0  0.87010000(60000)  0.84510000(70000)  0.15490000(60000)  0.23767
 C19_96  C 1.0  0.87010000(60000)  0.34510000(70000)  0.65490000(60000)  0.23767
 Cu1  Cu 1.0  0.39660000(12000)  0.60340000(12000)  0.50000000(0)  0.19533
 Cu1_2  Cu 1.0  0.50000000(12000)  0.39660000(12000)  0.60340000(0)  0.19533
 Cu1_3  Cu 1.0  0.60340000(12000)  0.50000000(12000)  0.39660000(0)  0.19533
 Cu1_4  Cu 1.0  0.50000000(12000)  0.39660000(12000)  0.39660000(0)  0.19533
 Cu1_5  Cu 1.0  0.60340000(12000)  0.50000000(12000)  0.60340000(0)  0.19533
 Cu1_6  Cu 1.0  0.60340000(12000)  0.60340000(12000)  0.50000000(0)  0.19533
 Cu1_7  Cu 1.0  0.39660000(12000)  0.50000000(12000)  0.39660000(0)  0.19533
 Cu1_8  Cu 1.0  0.39660000(12000)  0.50000000(12000)  0.60340000(0)  0.19533
 Cu1_9  Cu 1.0  0.60340000(12000)  0.39660000(12000)  0.50000000(0)  0.19533
 Cu1_10  Cu 1.0  0.50000000(12000)  0.60340000(12000)  0.39660000(0)  0.19533
 Cu1_11  Cu 1.0  0.50000000(12000)  0.60340000(12000)  0.60340000(0)  0.19533
 Cu1_12  Cu 1.0  0.39660000(12000)  0.39660000(12000)  0.50000000(0)  0.19533
 Cu1_13  Cu 1.0  0.39660000(12000)  0.10340000(12000)  0.00000000(0)  0.19533
 Cu1_14  Cu 1.0  0.89660000(12000)  0.10340000(12000)  0.50000000(0)  0.19533
 Cu1_15  Cu 1.0  0.89660000(12000)  0.60340000(12000)  0.00000000(0)  0.19533
 Cu1_16  Cu 1.0  0.50000000(12000)  0.89660000(12000)  0.10340000(0)  0.19533
 Cu1_17  Cu 1.0  0.00000000(12000)  0.89660000(12000)  0.60340000(0)  0.19533
 Cu1_18  Cu 1.0  0.00000000(12000)  0.39660000(12000)  0.10340000(0)  0.19533
 Cu1_19  Cu 1.0  0.60340000(12000)  0.00000000(12000)  0.89660000(0)  0.19533
 Cu1_20  Cu 1.0  0.10340000(12000)  0.00000000(12000)  0.39660000(0)  0.19533
 Cu1_21  Cu 1.0  0.10340000(12000)  0.50000000(12000)  0.89660000(0)  0.19533
 Cu1_22  Cu 1.0  0.50000000(12000)  0.89660000(12000)  0.89660000(0)  0.19533
 Cu1_23  Cu 1.0  0.00000000(12000)  0.89660000(12000)  0.39660000(0)  0.19533
 Cu1_24  Cu 1.0  0.00000000(12000)  0.39660000(12000)  0.89660000(0)  0.19533
 Cu1_25  Cu 1.0  0.60340000(12000)  0.00000000(12000)  0.10340000(0)  0.19533
 Cu1_26  Cu 1.0  0.10340000(12000)  0.00000000(12000)  0.60340000(0)  0.19533
 Cu1_27  Cu 1.0  0.10340000(12000)  0.50000000(12000)  0.10340000(0)  0.19533
 Cu1_28  Cu 1.0  0.60340000(12000)  0.10340000(12000)  0.00000000(0)  0.19533
 Cu1_29  Cu 1.0  0.10340000(12000)  0.10340000(12000)  0.50000000(0)  0.19533
 Cu1_30  Cu 1.0  0.10340000(12000)  0.60340000(12000)  0.00000000(0)  0.19533
 Cu1_31  Cu 1.0  0.39660000(12000)  0.00000000(12000)  0.89660000(0)  0.19533
 Cu1_32  Cu 1.0  0.89660000(12000)  0.00000000(12000)  0.39660000(0)  0.19533
 Cu1_33  Cu 1.0  0.89660000(12000)  0.50000000(12000)  0.89660000(0)  0.19533
 Cu1_34  Cu 1.0  0.39660000(12000)  0.00000000(12000)  0.10340000(0)  0.19533
 Cu1_35  Cu 1.0  0.89660000(12000)  0.00000000(12000)  0.60340000(0)  0.19533
 Cu1_36  Cu 1.0  0.89660000(12000)  0.50000000(12000)  0.10340000(0)  0.19533
 Cu1_37  Cu 1.0  0.60340000(12000)  0.89660000(12000)  0.00000000(0)  0.19533
 Cu1_38  Cu 1.0  0.10340000(12000)  0.89660000(12000)  0.50000000(0)  0.19533
 Cu1_39  Cu 1.0  0.10340000(12000)  0.39660000(12000)  0.00000000(0)  0.19533
 Cu1_40  Cu 1.0  0.50000000(12000)  0.10340000(12000)  0.89660000(0)  0.19533
 Cu1_41  Cu 1.0  0.00000000(12000)  0.10340000(12000)  0.39660000(0)  0.19533
 Cu1_42  Cu 1.0  0.00000000(12000)  0.60340000(12000)  0.89660000(0)  0.19533
 Cu1_43  Cu 1.0  0.50000000(12000)  0.10340000(12000)  0.10340000(0)  0.19533
 Cu1_44  Cu 1.0  0.00000000(12000)  0.10340000(12000)  0.60340000(0)  0.19533
 Cu1_45  Cu 1.0  0.00000000(12000)  0.60340000(12000)  0.10340000(0)  0.19533
 Cu1_46  Cu 1.0  0.39660000(12000)  0.89660000(12000)  0.00000000(0)  0.19533
 Cu1_47  Cu 1.0  0.89660000(12000)  0.89660000(12000)  0.50000000(0)  0.19533
 Cu1_48  Cu 1.0  0.89660000(12000)  0.39660000(12000)  0.00000000(0)  0.19533
 Cu2  Cu 1.0  0.41788000(12000)  0.58212000(12000)  0.50000000(0)  0.19567
 Cu2_2  Cu 1.0  0.50000000(12000)  0.41788000(12000)  0.58212000(0)  0.19567
 Cu2_3  Cu 1.0  0.58212000(12000)  0.50000000(12000)  0.41788000(0)  0.19567
 Cu2_4  Cu 1.0  0.50000000(12000)  0.41788000(12000)  0.41788000(0)  0.19567
 Cu2_5  Cu 1.0  0.58212000(12000)  0.50000000(12000)  0.58212000(0)  0.19567
 Cu2_6  Cu 1.0  0.58212000(12000)  0.58212000(12000)  0.50000000(0)  0.19567
 Cu2_7  Cu 1.0  0.41788000(12000)  0.50000000(12000)  0.41788000(0)  0.19567
 Cu2_8  Cu 1.0  0.41788000(12000)  0.50000000(12000)  0.58212000(0)  0.19567
 Cu2_9  Cu 1.0  0.58212000(12000)  0.41788000(12000)  0.50000000(0)  0.19567
 Cu2_10  Cu 1.0  0.50000000(12000)  0.58212000(12000)  0.41788000(0)  0.19567
 Cu2_11  Cu 1.0  0.50000000(12000)  0.58212000(12000)  0.58212000(0)  0.19567
 Cu2_12  Cu 1.0  0.41788000(12000)  0.41788000(12000)  0.50000000(0)  0.19567
 Cu2_13  Cu 1.0  0.41788000(12000)  0.08212000(12000)  0.00000000(0)  0.19567
 Cu2_14  Cu 1.0  0.91788000(12000)  0.08212000(12000)  0.50000000(0)  0.19567
 Cu2_15  Cu 1.0  0.91788000(12000)  0.58212000(12000)  0.00000000(0)  0.19567
 Cu2_16  Cu 1.0  0.50000000(12000)  0.91788000(12000)  0.08212000(0)  0.19567
 Cu2_17  Cu 1.0  0.00000000(12000)  0.91788000(12000)  0.58212000(0)  0.19567
 Cu2_18  Cu 1.0  0.00000000(12000)  0.41788000(12000)  0.08212000(0)  0.19567
 Cu2_19  Cu 1.0  0.58212000(12000)  0.00000000(12000)  0.91788000(0)  0.19567
 Cu2_20  Cu 1.0  0.08212000(12000)  0.00000000(12000)  0.41788000(0)  0.19567
 Cu2_21  Cu 1.0  0.08212000(12000)  0.50000000(12000)  0.91788000(0)  0.19567
 Cu2_22  Cu 1.0  0.50000000(12000)  0.91788000(12000)  0.91788000(0)  0.19567
 Cu2_23  Cu 1.0  0.00000000(12000)  0.91788000(12000)  0.41788000(0)  0.19567
 Cu2_24  Cu 1.0  0.00000000(12000)  0.41788000(12000)  0.91788000(0)  0.19567
 Cu2_25  Cu 1.0  0.58212000(12000)  0.00000000(12000)  0.08212000(0)  0.19567
 Cu2_26  Cu 1.0  0.08212000(12000)  0.00000000(12000)  0.58212000(0)  0.19567
 Cu2_27  Cu 1.0  0.08212000(12000)  0.50000000(12000)  0.08212000(0)  0.19567
 Cu2_28  Cu 1.0  0.58212000(12000)  0.08212000(12000)  0.00000000(0)  0.19567
 Cu2_29  Cu 1.0  0.08212000(12000)  0.08212000(12000)  0.50000000(0)  0.19567
 Cu2_30  Cu 1.0  0.08212000(12000)  0.58212000(12000)  0.00000000(0)  0.19567
 Cu2_31  Cu 1.0  0.41788000(12000)  0.00000000(12000)  0.91788000(0)  0.19567
 Cu2_32  Cu 1.0  0.91788000(12000)  0.00000000(12000)  0.41788000(0)  0.19567
 Cu2_33  Cu 1.0  0.91788000(12000)  0.50000000(12000)  0.91788000(0)  0.19567
 Cu2_34  Cu 1.0  0.41788000(12000)  0.00000000(12000)  0.08212000(0)  0.19567
 Cu2_35  Cu 1.0  0.91788000(12000)  0.00000000(12000)  0.58212000(0)  0.19567
 Cu2_36  Cu 1.0  0.91788000(12000)  0.50000000(12000)  0.08212000(0)  0.19567
 Cu2_37  Cu 1.0  0.58212000(12000)  0.91788000(12000)  0.00000000(0)  0.19567
 Cu2_38  Cu 1.0  0.08212000(12000)  0.91788000(12000)  0.50000000(0)  0.19567
 Cu2_39  Cu 1.0  0.08212000(12000)  0.41788000(12000)  0.00000000(0)  0.19567
 Cu2_40  Cu 1.0  0.50000000(12000)  0.08212000(12000)  0.91788000(0)  0.19567
 Cu2_41  Cu 1.0  0.00000000(12000)  0.08212000(12000)  0.41788000(0)  0.19567
 Cu2_42  Cu 1.0  0.00000000(12000)  0.58212000(12000)  0.91788000(0)  0.19567
 Cu2_43  Cu 1.0  0.50000000(12000)  0.08212000(12000)  0.08212000(0)  0.19567
 Cu2_44  Cu 1.0  0.00000000(12000)  0.08212000(12000)  0.58212000(0)  0.19567
 Cu2_45  Cu 1.0  0.00000000(12000)  0.58212000(12000)  0.08212000(0)  0.19567
 Cu2_46  Cu 1.0  0.41788000(12000)  0.91788000(12000)  0.00000000(0)  0.19567
 Cu2_47  Cu 1.0  0.91788000(12000)  0.91788000(12000)  0.50000000(0)  0.19567
 Cu2_48  Cu 1.0  0.91788000(12000)  0.41788000(12000)  0.00000000(0)  0.19567
 H3  H 1.0  0.39860000(0)  0.54480000(0)  0.54480000(0)  0.24100
 H3_2  H 1.0  0.54480000(0)  0.39860000(0)  0.54480000(0)  0.24100
 H3_3  H 1.0  0.54480000(0)  0.54480000(0)  0.39860000(0)  0.24100
 H3_4  H 1.0  0.39860000(0)  0.54480000(0)  0.45520000(0)  0.24100
 H3_5  H 1.0  0.54480000(0)  0.39860000(0)  0.45520000(0)  0.24100
 H3_6  H 1.0  0.54480000(0)  0.54480000(0)  0.60140000(0)  0.24100
 H3_7  H 1.0  0.60140000(0)  0.54480000(0)  0.54480000(0)  0.24100
 H3_8  H 1.0  0.45520000(0)  0.39860000(0)  0.54480000(0)  0.24100
 H3_9  H 1.0  0.45520000(0)  0.54480000(0)  0.39860000(0)  0.24100
 H3_10  H 1.0  0.60140000(0)  0.54480000(0)  0.45520000(0)  0.24100
 H3_11  H 1.0  0.45520000(0)  0.39860000(0)  0.45520000(0)  0.24100
 H3_12  H 1.0  0.45520000(0)  0.54480000(0)  0.60140000(0)  0.24100
 H3_13  H 1.0  0.54480000(0)  0.60140000(0)  0.54480000(0)  0.24100
 H3_14  H 1.0  0.39860000(0)  0.45520000(0)  0.54480000(0)  0.24100
 H3_15  H 1.0  0.54480000(0)  0.45520000(0)  0.39860000(0)  0.24100
 H3_16  H 1.0  0.54480000(0)  0.60140000(0)  0.45520000(0)  0.24100
 H3_17  H 1.0  0.39860000(0)  0.45520000(0)  0.45520000(0)  0.24100
 H3_18  H 1.0  0.54480000(0)  0.45520000(0)  0.60140000(0)  0.24100
 H3_19  H 1.0  0.60140000(0)  0.45520000(0)  0.45520000(0)  0.24100
 H3_20  H 1.0  0.45520000(0)  0.60140000(0)  0.45520000(0)  0.24100
 H3_21  H 1.0  0.45520000(0)  0.45520000(0)  0.60140000(0)  0.24100
 H3_22  H 1.0  0.60140000(0)  0.45520000(0)  0.54480000(0)  0.24100
 H3_23  H 1.0  0.45520000(0)  0.60140000(0)  0.54480000(0)  0.24100
 H3_24  H 1.0  0.45520000(0)  0.45520000(0)  0.39860000(0)  0.24100
 H3_25  H 1.0  0.39860000(0)  0.04480000(0)  0.04480000(0)  0.24100
 H3_26  H 1.0  0.89860000(0)  0.04480000(0)  0.54480000(0)  0.24100
 H3_27  H 1.0  0.89860000(0)  0.54480000(0)  0.04480000(0)  0.24100
 H3_28  H 1.0  0.54480000(0)  0.89860000(0)  0.04480000(0)  0.24100
 H3_29  H 1.0  0.04480000(0)  0.89860000(0)  0.54480000(0)  0.24100
 H3_30  H 1.0  0.04480000(0)  0.39860000(0)  0.04480000(0)  0.24100
 H3_31  H 1.0  0.54480000(0)  0.04480000(0)  0.89860000(0)  0.24100
 H3_32  H 1.0  0.04480000(0)  0.04480000(0)  0.39860000(0)  0.24100
 H3_33  H 1.0  0.04480000(0)  0.54480000(0)  0.89860000(0)  0.24100
 H3_34  H 1.0  0.39860000(0)  0.04480000(0)  0.95520000(0)  0.24100
 H3_35  H 1.0  0.89860000(0)  0.04480000(0)  0.45520000(0)  0.24100
 H3_36  H 1.0  0.89860000(0)  0.54480000(0)  0.95520000(0)  0.24100
 H3_37  H 1.0  0.54480000(0)  0.89860000(0)  0.95520000(0)  0.24100
 H3_38  H 1.0  0.04480000(0)  0.89860000(0)  0.45520000(0)  0.24100
 H3_39  H 1.0  0.04480000(0)  0.39860000(0)  0.95520000(0)  0.24100
 H3_40  H 1.0  0.54480000(0)  0.04480000(0)  0.10140000(0)  0.24100
 H3_41  H 1.0  0.04480000(0)  0.04480000(0)  0.60140000(0)  0.24100
 H3_42  H 1.0  0.04480000(0)  0.54480000(0)  0.10140000(0)  0.24100
 H3_43  H 1.0  0.60140000(0)  0.04480000(0)  0.04480000(0)  0.24100
 H3_44  H 1.0  0.10140000(0)  0.04480000(0)  0.54480000(0)  0.24100
 H3_45  H 1.0  0.10140000(0)  0.54480000(0)  0.04480000(0)  0.24100
 H3_46  H 1.0  0.45520000(0)  0.89860000(0)  0.04480000(0)  0.24100
 H3_47  H 1.0  0.95520000(0)  0.89860000(0)  0.54480000(0)  0.24100
 H3_48  H 1.0  0.95520000(0)  0.39860000(0)  0.04480000(0)  0.24100
 H3_49  H 1.0  0.45520000(0)  0.04480000(0)  0.89860000(0)  0.24100
 H3_50  H 1.0  0.95520000(0)  0.04480000(0)  0.39860000(0)  0.24100
 H3_51  H 1.0  0.95520000(0)  0.54480000(0)  0.89860000(0)  0.24100
 H3_52  H 1.0  0.60140000(0)  0.04480000(0)  0.95520000(0)  0.24100
 H3_53  H 1.0  0.10140000(0)  0.04480000(0)  0.45520000(0)  0.24100
 H3_54  H 1.0  0.10140000(0)  0.54480000(0)  0.95520000(0)  0.24100
 H3_55  H 1.0  0.45520000(0)  0.89860000(0)  0.95520000(0)  0.24100
 H3_56  H 1.0  0.95520000(0)  0.89860000(0)  0.45520000(0)  0.24100
 H3_57  H 1.0  0.95520000(0)  0.39860000(0)  0.95520000(0)  0.24100
 H3_58  H 1.0  0.45520000(0)  0.04480000(0)  0.10140000(0)  0.24100
 H3_59  H 1.0  0.95520000(0)  0.04480000(0)  0.60140000(0)  0.24100
 H3_60  H 1.0  0.95520000(0)  0.54480000(0)  0.10140000(0)  0.24100
 H3_61  H 1.0  0.54480000(0)  0.10140000(0)  0.04480000(0)  0.24100
 H3_62  H 1.0  0.04480000(0)  0.10140000(0)  0.54480000(0)  0.24100
 H3_63  H 1.0  0.04480000(0)  0.60140000(0)  0.04480000(0)  0.24100
 H3_64  H 1.0  0.39860000(0)  0.95520000(0)  0.04480000(0)  0.24100
 H3_65  H 1.0  0.89860000(0)  0.95520000(0)  0.54480000(0)  0.24100
 H3_66  H 1.0  0.89860000(0)  0.45520000(0)  0.04480000(0)  0.24100
 H3_67  H 1.0  0.54480000(0)  0.95520000(0)  0.89860000(0)  0.24100
 H3_68  H 1.0  0.04480000(0)  0.95520000(0)  0.39860000(0)  0.24100
 H3_69  H 1.0  0.04480000(0)  0.45520000(0)  0.89860000(0)  0.24100
 H3_70  H 1.0  0.54480000(0)  0.10140000(0)  0.95520000(0)  0.24100
 H3_71  H 1.0  0.04480000(0)  0.10140000(0)  0.45520000(0)  0.24100
 H3_72  H 1.0  0.04480000(0)  0.60140000(0)  0.95520000(0)  0.24100
 H3_73  H 1.0  0.39860000(0)  0.95520000(0)  0.95520000(0)  0.24100
 H3_74  H 1.0  0.89860000(0)  0.95520000(0)  0.45520000(0)  0.24100
 H3_75  H 1.0  0.89860000(0)  0.45520000(0)  0.95520000(0)  0.24100
 H3_76  H 1.0  0.54480000(0)  0.95520000(0)  0.10140000(0)  0.24100
 H3_77  H 1.0  0.04480000(0)  0.95520000(0)  0.60140000(0)  0.24100
 H3_78  H 1.0  0.04480000(0)  0.45520000(0)  0.10140000(0)  0.24100
 H3_79  H 1.0  0.60140000(0)  0.95520000(0)  0.95520000(0)  0.24100
 H3_80  H 1.0  0.10140000(0)  0.95520000(0)  0.45520000(0)  0.24100
 H3_81  H 1.0  0.10140000(0)  0.45520000(0)  0.95520000(0)  0.24100
 H3_82  H 1.0  0.45520000(0)  0.10140000(0)  0.95520000(0)  0.24100
 H3_83  H 1.0  0.95520000(0)  0.10140000(0)  0.45520000(0)  0.24100
 H3_84  H 1.0  0.95520000(0)  0.60140000(0)  0.95520000(0)  0.24100
 H3_85  H 1.0  0.45520000(0)  0.95520000(0)  0.10140000(0)  0.24100
 H3_86  H 1.0  0.95520000(0)  0.95520000(0)  0.60140000(0)  0.24100
 H3_87  H 1.0  0.95520000(0)  0.45520000(0)  0.10140000(0)  0.24100
 H3_88  H 1.0  0.60140000(0)  0.95520000(0)  0.04480000(0)  0.24100
 H3_89  H 1.0  0.10140000(0)  0.95520000(0)  0.54480000(0)  0.24100
 H3_90  H 1.0  0.10140000(0)  0.45520000(0)  0.04480000(0)  0.24100
 H3_91  H 1.0  0.45520000(0)  0.10140000(0)  0.04480000(0)  0.24100
 H3_92  H 1.0  0.95520000(0)  0.10140000(0)  0.54480000(0)  0.24100
 H3_93  H 1.0  0.95520000(0)  0.60140000(0)  0.04480000(0)  0.24100
 H3_94  H 1.0  0.45520000(0)  0.95520000(0)  0.89860000(0)  0.24100
 H3_95  H 1.0  0.95520000(0)  0.95520000(0)  0.39860000(0)  0.24100
 H3_96  H 1.0  0.95520000(0)  0.45520000(0)  0.89860000(0)  0.24100
 H4  H 1.0  0.35830000(0)  0.58250000(0)  0.54350000(0)  0.24200
 H4_2  H 1.0  0.54350000(0)  0.35830000(0)  0.58250000(0)  0.24200
 H4_3  H 1.0  0.58250000(0)  0.54350000(0)  0.35830000(0)  0.24200
 H4_4  H 1.0  0.35830000(0)  0.58250000(0)  0.45650000(0)  0.24200
 H4_5  H 1.0  0.54350000(0)  0.35830000(0)  0.41750000(0)  0.24200
 H4_6  H 1.0  0.58250000(0)  0.54350000(0)  0.64170000(0)  0.24200
 H4_7  H 1.0  0.64170000(0)  0.58250000(0)  0.54350000(0)  0.24200
 H4_8  H 1.0  0.45650000(0)  0.35830000(0)  0.58250000(0)  0.24200
 H4_9  H 1.0  0.41750000(0)  0.54350000(0)  0.35830000(0)  0.24200
 H4_10  H 1.0  0.64170000(0)  0.58250000(0)  0.45650000(0)  0.24200
 H4_11  H 1.0  0.45650000(0)  0.35830000(0)  0.41750000(0)  0.24200
 H4_12  H 1.0  0.41750000(0)  0.54350000(0)  0.64170000(0)  0.24200
 H4_13  H 1.0  0.58250000(0)  0.35830000(0)  0.54350000(0)  0.24200
 H4_14  H 1.0  0.35830000(0)  0.54350000(0)  0.58250000(0)  0.24200
 H4_15  H 1.0  0.54350000(0)  0.58250000(0)  0.35830000(0)  0.24200
 H4_16  H 1.0  0.58250000(0)  0.35830000(0)  0.45650000(0)  0.24200
 H4_17  H 1.0  0.35830000(0)  0.54350000(0)  0.41750000(0)  0.24200
 H4_18  H 1.0  0.54350000(0)  0.58250000(0)  0.64170000(0)  0.24200
 H4_19  H 1.0  0.58250000(0)  0.64170000(0)  0.54350000(0)  0.24200
 H4_20  H 1.0  0.35830000(0)  0.45650000(0)  0.58250000(0)  0.24200
 H4_21  H 1.0  0.54350000(0)  0.41750000(0)  0.35830000(0)  0.24200
 H4_22  H 1.0  0.58250000(0)  0.64170000(0)  0.45650000(0)  0.24200
 H4_23  H 1.0  0.35830000(0)  0.45650000(0)  0.41750000(0)  0.24200
 H4_24  H 1.0  0.54350000(0)  0.41750000(0)  0.64170000(0)  0.24200
 H4_25  H 1.0  0.64170000(0)  0.41750000(0)  0.45650000(0)  0.24200
 H4_26  H 1.0  0.45650000(0)  0.64170000(0)  0.41750000(0)  0.24200
 H4_27  H 1.0  0.41750000(0)  0.45650000(0)  0.64170000(0)  0.24200
 H4_28  H 1.0  0.64170000(0)  0.41750000(0)  0.54350000(0)  0.24200
 H4_29  H 1.0  0.45650000(0)  0.64170000(0)  0.58250000(0)  0.24200
 H4_30  H 1.0  0.41750000(0)  0.45650000(0)  0.35830000(0)  0.24200
 H4_31  H 1.0  0.35830000(0)  0.41750000(0)  0.45650000(0)  0.24200
 H4_32  H 1.0  0.54350000(0)  0.64170000(0)  0.41750000(0)  0.24200
 H4_33  H 1.0  0.58250000(0)  0.45650000(0)  0.64170000(0)  0.24200
 H4_34  H 1.0  0.35830000(0)  0.41750000(0)  0.54350000(0)  0.24200
 H4_35  H 1.0  0.54350000(0)  0.64170000(0)  0.58250000(0)  0.24200
 H4_36  H 1.0  0.58250000(0)  0.45650000(0)  0.35830000(0)  0.24200
 H4_37  H 1.0  0.41750000(0)  0.64170000(0)  0.45650000(0)  0.24200
 H4_38  H 1.0  0.64170000(0)  0.45650000(0)  0.41750000(0)  0.24200
 H4_39  H 1.0  0.45650000(0)  0.41750000(0)  0.64170000(0)  0.24200
 H4_40  H 1.0  0.41750000(0)  0.64170000(0)  0.54350000(0)  0.24200
 H4_41  H 1.0  0.64170000(0)  0.45650000(0)  0.58250000(0)  0.24200
 H4_42  H 1.0  0.45650000(0)  0.41750000(0)  0.35830000(0)  0.24200
 H4_43  H 1.0  0.41750000(0)  0.35830000(0)  0.45650000(0)  0.24200
 H4_44  H 1.0  0.64170000(0)  0.54350000(0)  0.41750000(0)  0.24200
 H4_45  H 1.0  0.45650000(0)  0.58250000(0)  0.64170000(0)  0.24200
 H4_46  H 1.0  0.41750000(0)  0.35830000(0)  0.54350000(0)  0.24200
 H4_47  H 1.0  0.64170000(0)  0.54350000(0)  0.58250000(0)  0.24200
 H4_48  H 1.0  0.45650000(0)  0.58250000(0)  0.35830000(0)  0.24200
 H4_49  H 1.0  0.35830000(0)  0.08250000(0)  0.04350000(0)  0.24200
 H4_50  H 1.0  0.85830000(0)  0.08250000(0)  0.54350000(0)  0.24200
 H4_51  H 1.0  0.85830000(0)  0.58250000(0)  0.04350000(0)  0.24200
 H4_52  H 1.0  0.54350000(0)  0.85830000(0)  0.08250000(0)  0.24200
 H4_53  H 1.0  0.04350000(0)  0.85830000(0)  0.58250000(0)  0.24200
 H4_54  H 1.0  0.04350000(0)  0.35830000(0)  0.08250000(0)  0.24200
 H4_55  H 1.0  0.58250000(0)  0.04350000(0)  0.85830000(0)  0.24200
 H4_56  H 1.0  0.08250000(0)  0.04350000(0)  0.35830000(0)  0.24200
 H4_57  H 1.0  0.08250000(0)  0.54350000(0)  0.85830000(0)  0.24200
 H4_58  H 1.0  0.35830000(0)  0.08250000(0)  0.95650000(0)  0.24200
 H4_59  H 1.0  0.85830000(0)  0.08250000(0)  0.45650000(0)  0.24200
 H4_60  H 1.0  0.85830000(0)  0.58250000(0)  0.95650000(0)  0.24200
 H4_61  H 1.0  0.54350000(0)  0.85830000(0)  0.91750000(0)  0.24200
 H4_62  H 1.0  0.04350000(0)  0.85830000(0)  0.41750000(0)  0.24200
 H4_63  H 1.0  0.04350000(0)  0.35830000(0)  0.91750000(0)  0.24200
 H4_64  H 1.0  0.58250000(0)  0.04350000(0)  0.14170000(0)  0.24200
 H4_65  H 1.0  0.08250000(0)  0.04350000(0)  0.64170000(0)  0.24200
 H4_66  H 1.0  0.08250000(0)  0.54350000(0)  0.14170000(0)  0.24200
 H4_67  H 1.0  0.64170000(0)  0.08250000(0)  0.04350000(0)  0.24200
 H4_68  H 1.0  0.14170000(0)  0.08250000(0)  0.54350000(0)  0.24200
 H4_69  H 1.0  0.14170000(0)  0.58250000(0)  0.04350000(0)  0.24200
 H4_70  H 1.0  0.45650000(0)  0.85830000(0)  0.08250000(0)  0.24200
 H4_71  H 1.0  0.95650000(0)  0.85830000(0)  0.58250000(0)  0.24200
 H4_72  H 1.0  0.95650000(0)  0.35830000(0)  0.08250000(0)  0.24200
 H4_73  H 1.0  0.41750000(0)  0.04350000(0)  0.85830000(0)  0.24200
 H4_74  H 1.0  0.91750000(0)  0.04350000(0)  0.35830000(0)  0.24200
 H4_75  H 1.0  0.91750000(0)  0.54350000(0)  0.85830000(0)  0.24200
 H4_76  H 1.0  0.64170000(0)  0.08250000(0)  0.95650000(0)  0.24200
 H4_77  H 1.0  0.14170000(0)  0.08250000(0)  0.45650000(0)  0.24200
 H4_78  H 1.0  0.14170000(0)  0.58250000(0)  0.95650000(0)  0.24200
 H4_79  H 1.0  0.45650000(0)  0.85830000(0)  0.91750000(0)  0.24200
 H4_80  H 1.0  0.95650000(0)  0.85830000(0)  0.41750000(0)  0.24200
 H4_81  H 1.0  0.95650000(0)  0.35830000(0)  0.91750000(0)  0.24200
 H4_82  H 1.0  0.41750000(0)  0.04350000(0)  0.14170000(0)  0.24200
 H4_83  H 1.0  0.91750000(0)  0.04350000(0)  0.64170000(0)  0.24200
 H4_84  H 1.0  0.91750000(0)  0.54350000(0)  0.14170000(0)  0.24200
 H4_85  H 1.0  0.58250000(0)  0.85830000(0)  0.04350000(0)  0.24200
 H4_86  H 1.0  0.08250000(0)  0.85830000(0)  0.54350000(0)  0.24200
 H4_87  H 1.0  0.08250000(0)  0.35830000(0)  0.04350000(0)  0.24200
 H4_88  H 1.0  0.35830000(0)  0.04350000(0)  0.08250000(0)  0.24200
 H4_89  H 1.0  0.85830000(0)  0.04350000(0)  0.58250000(0)  0.24200
 H4_90  H 1.0  0.85830000(0)  0.54350000(0)  0.08250000(0)  0.24200
 H4_91  H 1.0  0.54350000(0)  0.08250000(0)  0.85830000(0)  0.24200
 H4_92  H 1.0  0.04350000(0)  0.08250000(0)  0.35830000(0)  0.24200
 H4_93  H 1.0  0.04350000(0)  0.58250000(0)  0.85830000(0)  0.24200
 H4_94  H 1.0  0.58250000(0)  0.85830000(0)  0.95650000(0)  0.24200
 H4_95  H 1.0  0.08250000(0)  0.85830000(0)  0.45650000(0)  0.24200
 H4_96  H 1.0  0.08250000(0)  0.35830000(0)  0.95650000(0)  0.24200
 H4_97  H 1.0  0.35830000(0)  0.04350000(0)  0.91750000(0)  0.24200
 H4_98  H 1.0  0.85830000(0)  0.04350000(0)  0.41750000(0)  0.24200
 H4_99  H 1.0  0.85830000(0)  0.54350000(0)  0.91750000(0)  0.24200
 H4_100  H 1.0  0.54350000(0)  0.08250000(0)  0.14170000(0)  0.24200
 H4_101  H 1.0  0.04350000(0)  0.08250000(0)  0.64170000(0)  0.24200
 H4_102  H 1.0  0.04350000(0)  0.58250000(0)  0.14170000(0)  0.24200
 H4_103  H 1.0  0.58250000(0)  0.14170000(0)  0.04350000(0)  0.24200
 H4_104  H 1.0  0.08250000(0)  0.14170000(0)  0.54350000(0)  0.24200
 H4_105  H 1.0  0.08250000(0)  0.64170000(0)  0.04350000(0)  0.24200
 H4_106  H 1.0  0.35830000(0)  0.95650000(0)  0.08250000(0)  0.24200
 H4_107  H 1.0  0.85830000(0)  0.95650000(0)  0.58250000(0)  0.24200
 H4_108  H 1.0  0.85830000(0)  0.45650000(0)  0.08250000(0)  0.24200
 H4_109  H 1.0  0.54350000(0)  0.91750000(0)  0.85830000(0)  0.24200
 H4_110  H 1.0  0.04350000(0)  0.91750000(0)  0.35830000(0)  0.24200
 H4_111  H 1.0  0.04350000(0)  0.41750000(0)  0.85830000(0)  0.24200
 H4_112  H 1.0  0.58250000(0)  0.14170000(0)  0.95650000(0)  0.24200
 H4_113  H 1.0  0.08250000(0)  0.14170000(0)  0.45650000(0)  0.24200
 H4_114  H 1.0  0.08250000(0)  0.64170000(0)  0.95650000(0)  0.24200
 H4_115  H 1.0  0.35830000(0)  0.95650000(0)  0.91750000(0)  0.24200
 H4_116  H 1.0  0.85830000(0)  0.95650000(0)  0.41750000(0)  0.24200
 H4_117  H 1.0  0.85830000(0)  0.45650000(0)  0.91750000(0)  0.24200
 H4_118  H 1.0  0.54350000(0)  0.91750000(0)  0.14170000(0)  0.24200
 H4_119  H 1.0  0.04350000(0)  0.91750000(0)  0.64170000(0)  0.24200
 H4_120  H 1.0  0.04350000(0)  0.41750000(0)  0.14170000(0)  0.24200
 H4_121  H 1.0  0.64170000(0)  0.91750000(0)  0.95650000(0)  0.24200
 H4_122  H 1.0  0.14170000(0)  0.91750000(0)  0.45650000(0)  0.24200
 H4_123  H 1.0  0.14170000(0)  0.41750000(0)  0.95650000(0)  0.24200
 H4_124  H 1.0  0.45650000(0)  0.14170000(0)  0.91750000(0)  0.24200
 H4_125  H 1.0  0.95650000(0)  0.14170000(0)  0.41750000(0)  0.24200
 H4_126  H 1.0  0.95650000(0)  0.64170000(0)  0.91750000(0)  0.24200
 H4_127  H 1.0  0.41750000(0)  0.95650000(0)  0.14170000(0)  0.24200
 H4_128  H 1.0  0.91750000(0)  0.95650000(0)  0.64170000(0)  0.24200
 H4_129  H 1.0  0.91750000(0)  0.45650000(0)  0.14170000(0)  0.24200
 H4_130  H 1.0  0.64170000(0)  0.91750000(0)  0.04350000(0)  0.24200
 H4_131  H 1.0  0.14170000(0)  0.91750000(0)  0.54350000(0)  0.24200
 H4_132  H 1.0  0.14170000(0)  0.41750000(0)  0.04350000(0)  0.24200
 H4_133  H 1.0  0.45650000(0)  0.14170000(0)  0.08250000(0)  0.24200
 H4_134  H 1.0  0.95650000(0)  0.14170000(0)  0.58250000(0)  0.24200
 H4_135  H 1.0  0.95650000(0)  0.64170000(0)  0.08250000(0)  0.24200
 H4_136  H 1.0  0.41750000(0)  0.95650000(0)  0.85830000(0)  0.24200
 H4_137  H 1.0  0.91750000(0)  0.95650000(0)  0.35830000(0)  0.24200
 H4_138  H 1.0  0.91750000(0)  0.45650000(0)  0.85830000(0)  0.24200
 H4_139  H 1.0  0.35830000(0)  0.91750000(0)  0.95650000(0)  0.24200
 H4_140  H 1.0  0.85830000(0)  0.91750000(0)  0.45650000(0)  0.24200
 H4_141  H 1.0  0.85830000(0)  0.41750000(0)  0.95650000(0)  0.24200
 H4_142  H 1.0  0.54350000(0)  0.14170000(0)  0.91750000(0)  0.24200
 H4_143  H 1.0  0.04350000(0)  0.14170000(0)  0.41750000(0)  0.24200
 H4_144  H 1.0  0.04350000(0)  0.64170000(0)  0.91750000(0)  0.24200
 H4_145  H 1.0  0.58250000(0)  0.95650000(0)  0.14170000(0)  0.24200
 H4_146  H 1.0  0.08250000(0)  0.95650000(0)  0.64170000(0)  0.24200
 H4_147  H 1.0  0.08250000(0)  0.45650000(0)  0.14170000(0)  0.24200
 H4_148  H 1.0  0.35830000(0)  0.91750000(0)  0.04350000(0)  0.24200
 H4_149  H 1.0  0.85830000(0)  0.91750000(0)  0.54350000(0)  0.24200
 H4_150  H 1.0  0.85830000(0)  0.41750000(0)  0.04350000(0)  0.24200
 H4_151  H 1.0  0.54350000(0)  0.14170000(0)  0.08250000(0)  0.24200
 H4_152  H 1.0  0.04350000(0)  0.14170000(0)  0.58250000(0)  0.24200
 H4_153  H 1.0  0.04350000(0)  0.64170000(0)  0.08250000(0)  0.24200
 H4_154  H 1.0  0.58250000(0)  0.95650000(0)  0.85830000(0)  0.24200
 H4_155  H 1.0  0.08250000(0)  0.95650000(0)  0.35830000(0)  0.24200
 H4_156  H 1.0  0.08250000(0)  0.45650000(0)  0.85830000(0)  0.24200
 H4_157  H 1.0  0.41750000(0)  0.14170000(0)  0.95650000(0)  0.24200
 H4_158  H 1.0  0.91750000(0)  0.14170000(0)  0.45650000(0)  0.24200
 H4_159  H 1.0  0.91750000(0)  0.64170000(0)  0.95650000(0)  0.24200
 H4_160  H 1.0  0.64170000(0)  0.95650000(0)  0.91750000(0)  0.24200
 H4_161  H 1.0  0.14170000(0)  0.95650000(0)  0.41750000(0)  0.24200
 H4_162  H 1.0  0.14170000(0)  0.45650000(0)  0.91750000(0)  0.24200
 H4_163  H 1.0  0.45650000(0)  0.91750000(0)  0.14170000(0)  0.24200
 H4_164  H 1.0  0.95650000(0)  0.91750000(0)  0.64170000(0)  0.24200
 H4_165  H 1.0  0.95650000(0)  0.41750000(0)  0.14170000(0)  0.24200
 H4_166  H 1.0  0.41750000(0)  0.14170000(0)  0.04350000(0)  0.24200
 H4_167  H 1.0  0.91750000(0)  0.14170000(0)  0.54350000(0)  0.24200
 H4_168  H 1.0  0.91750000(0)  0.64170000(0)  0.04350000(0)  0.24200
 H4_169  H 1.0  0.64170000(0)  0.95650000(0)  0.08250000(0)  0.24200
 H4_170  H 1.0  0.14170000(0)  0.95650000(0)  0.58250000(0)  0.24200
 H4_171  H 1.0  0.14170000(0)  0.45650000(0)  0.08250000(0)  0.24200
 H4_172  H 1.0  0.45650000(0)  0.91750000(0)  0.85830000(0)  0.24200
 H4_173  H 1.0  0.95650000(0)  0.91750000(0)  0.35830000(0)  0.24200
 H4_174  H 1.0  0.95650000(0)  0.41750000(0)  0.85830000(0)  0.24200
 H4_175  H 1.0  0.41750000(0)  0.85830000(0)  0.95650000(0)  0.24200
 H4_176  H 1.0  0.91750000(0)  0.85830000(0)  0.45650000(0)  0.24200
 H4_177  H 1.0  0.91750000(0)  0.35830000(0)  0.95650000(0)  0.24200
 H4_178  H 1.0  0.64170000(0)  0.04350000(0)  0.91750000(0)  0.24200
 H4_179  H 1.0  0.14170000(0)  0.04350000(0)  0.41750000(0)  0.24200
 H4_180  H 1.0  0.14170000(0)  0.54350000(0)  0.91750000(0)  0.24200
 H4_181  H 1.0  0.45650000(0)  0.08250000(0)  0.14170000(0)  0.24200
 H4_182  H 1.0  0.95650000(0)  0.08250000(0)  0.64170000(0)  0.24200
 H4_183  H 1.0  0.95650000(0)  0.58250000(0)  0.14170000(0)  0.24200
 H4_184  H 1.0  0.41750000(0)  0.85830000(0)  0.04350000(0)  0.24200
 H4_185  H 1.0  0.91750000(0)  0.85830000(0)  0.54350000(0)  0.24200
 H4_186  H 1.0  0.91750000(0)  0.35830000(0)  0.04350000(0)  0.24200
 H4_187  H 1.0  0.64170000(0)  0.04350000(0)  0.08250000(0)  0.24200
 H4_188  H 1.0  0.14170000(0)  0.04350000(0)  0.58250000(0)  0.24200
 H4_189  H 1.0  0.14170000(0)  0.54350000(0)  0.08250000(0)  0.24200
 H4_190  H 1.0  0.45650000(0)  0.08250000(0)  0.85830000(0)  0.24200
 H4_191  H 1.0  0.95650000(0)  0.08250000(0)  0.35830000(0)  0.24200
 H4_192  H 1.0  0.95650000(0)  0.58250000(0)  0.85830000(0)  0.24200
 H9  H 1.0  0.30340000(0)  0.60650000(0)  0.56440000(0)  0.25700
 H9_2  H 1.0  0.56440000(0)  0.30340000(0)  0.60650000(0)  0.25700
 H9_3  H 1.0  0.60650000(0)  0.56440000(0)  0.30340000(0)  0.25700
 H9_4  H 1.0  0.30340000(0)  0.60650000(0)  0.43560000(0)  0.25700
 H9_5  H 1.0  0.56440000(0)  0.30340000(0)  0.39350000(0)  0.25700
 H9_6  H 1.0  0.60650000(0)  0.56440000(0)  0.69660000(0)  0.25700
 H9_7  H 1.0  0.69660000(0)  0.60650000(0)  0.56440000(0)  0.25700
 H9_8  H 1.0  0.43560000(0)  0.30340000(0)  0.60650000(0)  0.25700
 H9_9  H 1.0  0.39350000(0)  0.56440000(0)  0.30340000(0)  0.25700
 H9_10  H 1.0  0.69660000(0)  0.60650000(0)  0.43560000(0)  0.25700
 H9_11  H 1.0  0.43560000(0)  0.30340000(0)  0.39350000(0)  0.25700
 H9_12  H 1.0  0.39350000(0)  0.56440000(0)  0.69660000(0)  0.25700
 H9_13  H 1.0  0.60650000(0)  0.30340000(0)  0.56440000(0)  0.25700
 H9_14  H 1.0  0.30340000(0)  0.56440000(0)  0.60650000(0)  0.25700
 H9_15  H 1.0  0.56440000(0)  0.60650000(0)  0.30340000(0)  0.25700
 H9_16  H 1.0  0.60650000(0)  0.30340000(0)  0.43560000(0)  0.25700
 H9_17  H 1.0  0.30340000(0)  0.56440000(0)  0.39350000(0)  0.25700
 H9_18  H 1.0  0.56440000(0)  0.60650000(0)  0.69660000(0)  0.25700
 H9_19  H 1.0  0.60650000(0)  0.69660000(0)  0.56440000(0)  0.25700
 H9_20  H 1.0  0.30340000(0)  0.43560000(0)  0.60650000(0)  0.25700
 H9_21  H 1.0  0.56440000(0)  0.39350000(0)  0.30340000(0)  0.25700
 H9_22  H 1.0  0.60650000(0)  0.69660000(0)  0.43560000(0)  0.25700
 H9_23  H 1.0  0.30340000(0)  0.43560000(0)  0.39350000(0)  0.25700
 H9_24  H 1.0  0.56440000(0)  0.39350000(0)  0.69660000(0)  0.25700
 H9_25  H 1.0  0.69660000(0)  0.39350000(0)  0.43560000(0)  0.25700
 H9_26  H 1.0  0.43560000(0)  0.69660000(0)  0.39350000(0)  0.25700
 H9_27  H 1.0  0.39350000(0)  0.43560000(0)  0.69660000(0)  0.25700
 H9_28  H 1.0  0.69660000(0)  0.39350000(0)  0.56440000(0)  0.25700
 H9_29  H 1.0  0.43560000(0)  0.69660000(0)  0.60650000(0)  0.25700
 H9_30  H 1.0  0.39350000(0)  0.43560000(0)  0.30340000(0)  0.25700
 H9_31  H 1.0  0.30340000(0)  0.39350000(0)  0.43560000(0)  0.25700
 H9_32  H 1.0  0.56440000(0)  0.69660000(0)  0.39350000(0)  0.25700
 H9_33  H 1.0  0.60650000(0)  0.43560000(0)  0.69660000(0)  0.25700
 H9_34  H 1.0  0.30340000(0)  0.39350000(0)  0.56440000(0)  0.25700
 H9_35  H 1.0  0.56440000(0)  0.69660000(0)  0.60650000(0)  0.25700
 H9_36  H 1.0  0.60650000(0)  0.43560000(0)  0.30340000(0)  0.25700
 H9_37  H 1.0  0.39350000(0)  0.69660000(0)  0.43560000(0)  0.25700
 H9_38  H 1.0  0.69660000(0)  0.43560000(0)  0.39350000(0)  0.25700
 H9_39  H 1.0  0.43560000(0)  0.39350000(0)  0.69660000(0)  0.25700
 H9_40  H 1.0  0.39350000(0)  0.69660000(0)  0.56440000(0)  0.25700
 H9_41  H 1.0  0.69660000(0)  0.43560000(0)  0.60650000(0)  0.25700
 H9_42  H 1.0  0.43560000(0)  0.39350000(0)  0.30340000(0)  0.25700
 H9_43  H 1.0  0.39350000(0)  0.30340000(0)  0.43560000(0)  0.25700
 H9_44  H 1.0  0.69660000(0)  0.56440000(0)  0.39350000(0)  0.25700
 H9_45  H 1.0  0.43560000(0)  0.60650000(0)  0.69660000(0)  0.25700
 H9_46  H 1.0  0.39350000(0)  0.30340000(0)  0.56440000(0)  0.25700
 H9_47  H 1.0  0.69660000(0)  0.56440000(0)  0.60650000(0)  0.25700
 H9_48  H 1.0  0.43560000(0)  0.60650000(0)  0.30340000(0)  0.25700
 H9_49  H 1.0  0.30340000(0)  0.10650000(0)  0.06440000(0)  0.25700
 H9_50  H 1.0  0.80340000(0)  0.10650000(0)  0.56440000(0)  0.25700
 H9_51  H 1.0  0.80340000(0)  0.60650000(0)  0.06440000(0)  0.25700
 H9_52  H 1.0  0.56440000(0)  0.80340000(0)  0.10650000(0)  0.25700
 H9_53  H 1.0  0.06440000(0)  0.80340000(0)  0.60650000(0)  0.25700
 H9_54  H 1.0  0.06440000(0)  0.30340000(0)  0.10650000(0)  0.25700
 H9_55  H 1.0  0.60650000(0)  0.06440000(0)  0.80340000(0)  0.25700
 H9_56  H 1.0  0.10650000(0)  0.06440000(0)  0.30340000(0)  0.25700
 H9_57  H 1.0  0.10650000(0)  0.56440000(0)  0.80340000(0)  0.25700
 H9_58  H 1.0  0.30340000(0)  0.10650000(0)  0.93560000(0)  0.25700
 H9_59  H 1.0  0.80340000(0)  0.10650000(0)  0.43560000(0)  0.25700
 H9_60  H 1.0  0.80340000(0)  0.60650000(0)  0.93560000(0)  0.25700
 H9_61  H 1.0  0.56440000(0)  0.80340000(0)  0.89350000(0)  0.25700
 H9_62  H 1.0  0.06440000(0)  0.80340000(0)  0.39350000(0)  0.25700
 H9_63  H 1.0  0.06440000(0)  0.30340000(0)  0.89350000(0)  0.25700
 H9_64  H 1.0  0.60650000(0)  0.06440000(0)  0.19660000(0)  0.25700
 H9_65  H 1.0  0.10650000(0)  0.06440000(0)  0.69660000(0)  0.25700
 H9_66  H 1.0  0.10650000(0)  0.56440000(0)  0.19660000(0)  0.25700
 H9_67  H 1.0  0.69660000(0)  0.10650000(0)  0.06440000(0)  0.25700
 H9_68  H 1.0  0.19660000(0)  0.10650000(0)  0.56440000(0)  0.25700
 H9_69  H 1.0  0.19660000(0)  0.60650000(0)  0.06440000(0)  0.25700
 H9_70  H 1.0  0.43560000(0)  0.80340000(0)  0.10650000(0)  0.25700
 H9_71  H 1.0  0.93560000(0)  0.80340000(0)  0.60650000(0)  0.25700
 H9_72  H 1.0  0.93560000(0)  0.30340000(0)  0.10650000(0)  0.25700
 H9_73  H 1.0  0.39350000(0)  0.06440000(0)  0.80340000(0)  0.25700
 H9_74  H 1.0  0.89350000(0)  0.06440000(0)  0.30340000(0)  0.25700
 H9_75  H 1.0  0.89350000(0)  0.56440000(0)  0.80340000(0)  0.25700
 H9_76  H 1.0  0.69660000(0)  0.10650000(0)  0.93560000(0)  0.25700
 H9_77  H 1.0  0.19660000(0)  0.10650000(0)  0.43560000(0)  0.25700
 H9_78  H 1.0  0.19660000(0)  0.60650000(0)  0.93560000(0)  0.25700
 H9_79  H 1.0  0.43560000(0)  0.80340000(0)  0.89350000(0)  0.25700
 H9_80  H 1.0  0.93560000(0)  0.80340000(0)  0.39350000(0)  0.25700
 H9_81  H 1.0  0.93560000(0)  0.30340000(0)  0.89350000(0)  0.25700
 H9_82  H 1.0  0.39350000(0)  0.06440000(0)  0.19660000(0)  0.25700
 H9_83  H 1.0  0.89350000(0)  0.06440000(0)  0.69660000(0)  0.25700
 H9_84  H 1.0  0.89350000(0)  0.56440000(0)  0.19660000(0)  0.25700
 H9_85  H 1.0  0.60650000(0)  0.80340000(0)  0.06440000(0)  0.25700
 H9_86  H 1.0  0.10650000(0)  0.80340000(0)  0.56440000(0)  0.25700
 H9_87  H 1.0  0.10650000(0)  0.30340000(0)  0.06440000(0)  0.25700
 H9_88  H 1.0  0.30340000(0)  0.06440000(0)  0.10650000(0)  0.25700
 H9_89  H 1.0  0.80340000(0)  0.06440000(0)  0.60650000(0)  0.25700
 H9_90  H 1.0  0.80340000(0)  0.56440000(0)  0.10650000(0)  0.25700
 H9_91  H 1.0  0.56440000(0)  0.10650000(0)  0.80340000(0)  0.25700
 H9_92  H 1.0  0.06440000(0)  0.10650000(0)  0.30340000(0)  0.25700
 H9_93  H 1.0  0.06440000(0)  0.60650000(0)  0.80340000(0)  0.25700
 H9_94  H 1.0  0.60650000(0)  0.80340000(0)  0.93560000(0)  0.25700
 H9_95  H 1.0  0.10650000(0)  0.80340000(0)  0.43560000(0)  0.25700
 H9_96  H 1.0  0.10650000(0)  0.30340000(0)  0.93560000(0)  0.25700
 H9_97  H 1.0  0.30340000(0)  0.06440000(0)  0.89350000(0)  0.25700
 H9_98  H 1.0  0.80340000(0)  0.06440000(0)  0.39350000(0)  0.25700
 H9_99  H 1.0  0.80340000(0)  0.56440000(0)  0.89350000(0)  0.25700
 H9_100  H 1.0  0.56440000(0)  0.10650000(0)  0.19660000(0)  0.25700
 H9_101  H 1.0  0.06440000(0)  0.10650000(0)  0.69660000(0)  0.25700
 H9_102  H 1.0  0.06440000(0)  0.60650000(0)  0.19660000(0)  0.25700
 H9_103  H 1.0  0.60650000(0)  0.19660000(0)  0.06440000(0)  0.25700
 H9_104  H 1.0  0.10650000(0)  0.19660000(0)  0.56440000(0)  0.25700
 H9_105  H 1.0  0.10650000(0)  0.69660000(0)  0.06440000(0)  0.25700
 H9_106  H 1.0  0.30340000(0)  0.93560000(0)  0.10650000(0)  0.25700
 H9_107  H 1.0  0.80340000(0)  0.93560000(0)  0.60650000(0)  0.25700
 H9_108  H 1.0  0.80340000(0)  0.43560000(0)  0.10650000(0)  0.25700
 H9_109  H 1.0  0.56440000(0)  0.89350000(0)  0.80340000(0)  0.25700
 H9_110  H 1.0  0.06440000(0)  0.89350000(0)  0.30340000(0)  0.25700
 H9_111  H 1.0  0.06440000(0)  0.39350000(0)  0.80340000(0)  0.25700
 H9_112  H 1.0  0.60650000(0)  0.19660000(0)  0.93560000(0)  0.25700
 H9_113  H 1.0  0.10650000(0)  0.19660000(0)  0.43560000(0)  0.25700
 H9_114  H 1.0  0.10650000(0)  0.69660000(0)  0.93560000(0)  0.25700
 H9_115  H 1.0  0.30340000(0)  0.93560000(0)  0.89350000(0)  0.25700
 H9_116  H 1.0  0.80340000(0)  0.93560000(0)  0.39350000(0)  0.25700
 H9_117  H 1.0  0.80340000(0)  0.43560000(0)  0.89350000(0)  0.25700
 H9_118  H 1.0  0.56440000(0)  0.89350000(0)  0.19660000(0)  0.25700
 H9_119  H 1.0  0.06440000(0)  0.89350000(0)  0.69660000(0)  0.25700
 H9_120  H 1.0  0.06440000(0)  0.39350000(0)  0.19660000(0)  0.25700
 H9_121  H 1.0  0.69660000(0)  0.89350000(0)  0.93560000(0)  0.25700
 H9_122  H 1.0  0.19660000(0)  0.89350000(0)  0.43560000(0)  0.25700
 H9_123  H 1.0  0.19660000(0)  0.39350000(0)  0.93560000(0)  0.25700
 H9_124  H 1.0  0.43560000(0)  0.19660000(0)  0.89350000(0)  0.25700
 H9_125  H 1.0  0.93560000(0)  0.19660000(0)  0.39350000(0)  0.25700
 H9_126  H 1.0  0.93560000(0)  0.69660000(0)  0.89350000(0)  0.25700
 H9_127  H 1.0  0.39350000(0)  0.93560000(0)  0.19660000(0)  0.25700
 H9_128  H 1.0  0.89350000(0)  0.93560000(0)  0.69660000(0)  0.25700
 H9_129  H 1.0  0.89350000(0)  0.43560000(0)  0.19660000(0)  0.25700
 H9_130  H 1.0  0.69660000(0)  0.89350000(0)  0.06440000(0)  0.25700
 H9_131  H 1.0  0.19660000(0)  0.89350000(0)  0.56440000(0)  0.25700
 H9_132  H 1.0  0.19660000(0)  0.39350000(0)  0.06440000(0)  0.25700
 H9_133  H 1.0  0.43560000(0)  0.19660000(0)  0.10650000(0)  0.25700
 H9_134  H 1.0  0.93560000(0)  0.19660000(0)  0.60650000(0)  0.25700
 H9_135  H 1.0  0.93560000(0)  0.69660000(0)  0.10650000(0)  0.25700
 H9_136  H 1.0  0.39350000(0)  0.93560000(0)  0.80340000(0)  0.25700
 H9_137  H 1.0  0.89350000(0)  0.93560000(0)  0.30340000(0)  0.25700
 H9_138  H 1.0  0.89350000(0)  0.43560000(0)  0.80340000(0)  0.25700
 H9_139  H 1.0  0.30340000(0)  0.89350000(0)  0.93560000(0)  0.25700
 H9_140  H 1.0  0.80340000(0)  0.89350000(0)  0.43560000(0)  0.25700
 H9_141  H 1.0  0.80340000(0)  0.39350000(0)  0.93560000(0)  0.25700
 H9_142  H 1.0  0.56440000(0)  0.19660000(0)  0.89350000(0)  0.25700
 H9_143  H 1.0  0.06440000(0)  0.19660000(0)  0.39350000(0)  0.25700
 H9_144  H 1.0  0.06440000(0)  0.69660000(0)  0.89350000(0)  0.25700
 H9_145  H 1.0  0.60650000(0)  0.93560000(0)  0.19660000(0)  0.25700
 H9_146  H 1.0  0.10650000(0)  0.93560000(0)  0.69660000(0)  0.25700
 H9_147  H 1.0  0.10650000(0)  0.43560000(0)  0.19660000(0)  0.25700
 H9_148  H 1.0  0.30340000(0)  0.89350000(0)  0.06440000(0)  0.25700
 H9_149  H 1.0  0.80340000(0)  0.89350000(0)  0.56440000(0)  0.25700
 H9_150  H 1.0  0.80340000(0)  0.39350000(0)  0.06440000(0)  0.25700
 H9_151  H 1.0  0.56440000(0)  0.19660000(0)  0.10650000(0)  0.25700
 H9_152  H 1.0  0.06440000(0)  0.19660000(0)  0.60650000(0)  0.25700
 H9_153  H 1.0  0.06440000(0)  0.69660000(0)  0.10650000(0)  0.25700
 H9_154  H 1.0  0.60650000(0)  0.93560000(0)  0.80340000(0)  0.25700
 H9_155  H 1.0  0.10650000(0)  0.93560000(0)  0.30340000(0)  0.25700
 H9_156  H 1.0  0.10650000(0)  0.43560000(0)  0.80340000(0)  0.25700
 H9_157  H 1.0  0.39350000(0)  0.19660000(0)  0.93560000(0)  0.25700
 H9_158  H 1.0  0.89350000(0)  0.19660000(0)  0.43560000(0)  0.25700
 H9_159  H 1.0  0.89350000(0)  0.69660000(0)  0.93560000(0)  0.25700
 H9_160  H 1.0  0.69660000(0)  0.93560000(0)  0.89350000(0)  0.25700
 H9_161  H 1.0  0.19660000(0)  0.93560000(0)  0.39350000(0)  0.25700
 H9_162  H 1.0  0.19660000(0)  0.43560000(0)  0.89350000(0)  0.25700
 H9_163  H 1.0  0.43560000(0)  0.89350000(0)  0.19660000(0)  0.25700
 H9_164  H 1.0  0.93560000(0)  0.89350000(0)  0.69660000(0)  0.25700
 H9_165  H 1.0  0.93560000(0)  0.39350000(0)  0.19660000(0)  0.25700
 H9_166  H 1.0  0.39350000(0)  0.19660000(0)  0.06440000(0)  0.25700
 H9_167  H 1.0  0.89350000(0)  0.19660000(0)  0.56440000(0)  0.25700
 H9_168  H 1.0  0.89350000(0)  0.69660000(0)  0.06440000(0)  0.25700
 H9_169  H 1.0  0.69660000(0)  0.93560000(0)  0.10650000(0)  0.25700
 H9_170  H 1.0  0.19660000(0)  0.93560000(0)  0.60650000(0)  0.25700
 H9_171  H 1.0  0.19660000(0)  0.43560000(0)  0.10650000(0)  0.25700
 H9_172  H 1.0  0.43560000(0)  0.89350000(0)  0.80340000(0)  0.25700
 H9_173  H 1.0  0.93560000(0)  0.89350000(0)  0.30340000(0)  0.25700
 H9_174  H 1.0  0.93560000(0)  0.39350000(0)  0.80340000(0)  0.25700
 H9_175  H 1.0  0.39350000(0)  0.80340000(0)  0.93560000(0)  0.25700
 H9_176  H 1.0  0.89350000(0)  0.80340000(0)  0.43560000(0)  0.25700
 H9_177  H 1.0  0.89350000(0)  0.30340000(0)  0.93560000(0)  0.25700
 H9_178  H 1.0  0.69660000(0)  0.06440000(0)  0.89350000(0)  0.25700
 H9_179  H 1.0  0.19660000(0)  0.06440000(0)  0.39350000(0)  0.25700
 H9_180  H 1.0  0.19660000(0)  0.56440000(0)  0.89350000(0)  0.25700
 H9_181  H 1.0  0.43560000(0)  0.10650000(0)  0.19660000(0)  0.25700
 H9_182  H 1.0  0.93560000(0)  0.10650000(0)  0.69660000(0)  0.25700
 H9_183  H 1.0  0.93560000(0)  0.60650000(0)  0.19660000(0)  0.25700
 H9_184  H 1.0  0.39350000(0)  0.80340000(0)  0.06440000(0)  0.25700
 H9_185  H 1.0  0.89350000(0)  0.80340000(0)  0.56440000(0)  0.25700
 H9_186  H 1.0  0.89350000(0)  0.30340000(0)  0.06440000(0)  0.25700
 H9_187  H 1.0  0.69660000(0)  0.06440000(0)  0.10650000(0)  0.25700
 H9_188  H 1.0  0.19660000(0)  0.06440000(0)  0.60650000(0)  0.25700
 H9_189  H 1.0  0.19660000(0)  0.56440000(0)  0.10650000(0)  0.25700
 H9_190  H 1.0  0.43560000(0)  0.10650000(0)  0.80340000(0)  0.25700
 H9_191  H 1.0  0.93560000(0)  0.10650000(0)  0.30340000(0)  0.25700
 H9_192  H 1.0  0.93560000(0)  0.60650000(0)  0.80340000(0)  0.25700
 H10  H 1.0  0.27330000(0)  0.61750000(0)  0.57680000(0)  0.26500
 H10_2  H 1.0  0.57680000(0)  0.27330000(0)  0.61750000(0)  0.26500
 H10_3  H 1.0  0.61750000(0)  0.57680000(0)  0.27330000(0)  0.26500
 H10_4  H 1.0  0.27330000(0)  0.61750000(0)  0.42320000(0)  0.26500
 H10_5  H 1.0  0.57680000(0)  0.27330000(0)  0.38250000(0)  0.26500
 H10_6  H 1.0  0.61750000(0)  0.57680000(0)  0.72670000(0)  0.26500
 H10_7  H 1.0  0.72670000(0)  0.61750000(0)  0.57680000(0)  0.26500
 H10_8  H 1.0  0.42320000(0)  0.27330000(0)  0.61750000(0)  0.26500
 H10_9  H 1.0  0.38250000(0)  0.57680000(0)  0.27330000(0)  0.26500
 H10_10  H 1.0  0.72670000(0)  0.61750000(0)  0.42320000(0)  0.26500
 H10_11  H 1.0  0.42320000(0)  0.27330000(0)  0.38250000(0)  0.26500
 H10_12  H 1.0  0.38250000(0)  0.57680000(0)  0.72670000(0)  0.26500
 H10_13  H 1.0  0.61750000(0)  0.27330000(0)  0.57680000(0)  0.26500
 H10_14  H 1.0  0.27330000(0)  0.57680000(0)  0.61750000(0)  0.26500
 H10_15  H 1.0  0.57680000(0)  0.61750000(0)  0.27330000(0)  0.26500
 H10_16  H 1.0  0.61750000(0)  0.27330000(0)  0.42320000(0)  0.26500
 H10_17  H 1.0  0.27330000(0)  0.57680000(0)  0.38250000(0)  0.26500
 H10_18  H 1.0  0.57680000(0)  0.61750000(0)  0.72670000(0)  0.26500
 H10_19  H 1.0  0.61750000(0)  0.72670000(0)  0.57680000(0)  0.26500
 H10_20  H 1.0  0.27330000(0)  0.42320000(0)  0.61750000(0)  0.26500
 H10_21  H 1.0  0.57680000(0)  0.38250000(0)  0.27330000(0)  0.26500
 H10_22  H 1.0  0.61750000(0)  0.72670000(0)  0.42320000(0)  0.26500
 H10_23  H 1.0  0.27330000(0)  0.42320000(0)  0.38250000(0)  0.26500
 H10_24  H 1.0  0.57680000(0)  0.38250000(0)  0.72670000(0)  0.26500
 H10_25  H 1.0  0.72670000(0)  0.38250000(0)  0.42320000(0)  0.26500
 H10_26  H 1.0  0.42320000(0)  0.72670000(0)  0.38250000(0)  0.26500
 H10_27  H 1.0  0.38250000(0)  0.42320000(0)  0.72670000(0)  0.26500
 H10_28  H 1.0  0.72670000(0)  0.38250000(0)  0.57680000(0)  0.26500
 H10_29  H 1.0  0.42320000(0)  0.72670000(0)  0.61750000(0)  0.26500
 H10_30  H 1.0  0.38250000(0)  0.42320000(0)  0.27330000(0)  0.26500
 H10_31  H 1.0  0.27330000(0)  0.38250000(0)  0.42320000(0)  0.26500
 H10_32  H 1.0  0.57680000(0)  0.72670000(0)  0.38250000(0)  0.26500
 H10_33  H 1.0  0.61750000(0)  0.42320000(0)  0.72670000(0)  0.26500
 H10_34  H 1.0  0.27330000(0)  0.38250000(0)  0.57680000(0)  0.26500
 H10_35  H 1.0  0.57680000(0)  0.72670000(0)  0.61750000(0)  0.26500
 H10_36  H 1.0  0.61750000(0)  0.42320000(0)  0.27330000(0)  0.26500
 H10_37  H 1.0  0.38250000(0)  0.72670000(0)  0.42320000(0)  0.26500
 H10_38  H 1.0  0.72670000(0)  0.42320000(0)  0.38250000(0)  0.26500
 H10_39  H 1.0  0.42320000(0)  0.38250000(0)  0.72670000(0)  0.26500
 H10_40  H 1.0  0.38250000(0)  0.72670000(0)  0.57680000(0)  0.26500
 H10_41  H 1.0  0.72670000(0)  0.42320000(0)  0.61750000(0)  0.26500
 H10_42  H 1.0  0.42320000(0)  0.38250000(0)  0.27330000(0)  0.26500
 H10_43  H 1.0  0.38250000(0)  0.27330000(0)  0.42320000(0)  0.26500
 H10_44  H 1.0  0.72670000(0)  0.57680000(0)  0.38250000(0)  0.26500
 H10_45  H 1.0  0.42320000(0)  0.61750000(0)  0.72670000(0)  0.26500
 H10_46  H 1.0  0.38250000(0)  0.27330000(0)  0.57680000(0)  0.26500
 H10_47  H 1.0  0.72670000(0)  0.57680000(0)  0.61750000(0)  0.26500
 H10_48  H 1.0  0.42320000(0)  0.61750000(0)  0.27330000(0)  0.26500
 H10_49  H 1.0  0.27330000(0)  0.11750000(0)  0.07680000(0)  0.26500
 H10_50  H 1.0  0.77330000(0)  0.11750000(0)  0.57680000(0)  0.26500
 H10_51  H 1.0  0.77330000(0)  0.61750000(0)  0.07680000(0)  0.26500
 H10_52  H 1.0  0.57680000(0)  0.77330000(0)  0.11750000(0)  0.26500
 H10_53  H 1.0  0.07680000(0)  0.77330000(0)  0.61750000(0)  0.26500
 H10_54  H 1.0  0.07680000(0)  0.27330000(0)  0.11750000(0)  0.26500
 H10_55  H 1.0  0.61750000(0)  0.07680000(0)  0.77330000(0)  0.26500
 H10_56  H 1.0  0.11750000(0)  0.07680000(0)  0.27330000(0)  0.26500
 H10_57  H 1.0  0.11750000(0)  0.57680000(0)  0.77330000(0)  0.26500
 H10_58  H 1.0  0.27330000(0)  0.11750000(0)  0.92320000(0)  0.26500
 H10_59  H 1.0  0.77330000(0)  0.11750000(0)  0.42320000(0)  0.26500
 H10_60  H 1.0  0.77330000(0)  0.61750000(0)  0.92320000(0)  0.26500
 H10_61  H 1.0  0.57680000(0)  0.77330000(0)  0.88250000(0)  0.26500
 H10_62  H 1.0  0.07680000(0)  0.77330000(0)  0.38250000(0)  0.26500
 H10_63  H 1.0  0.07680000(0)  0.27330000(0)  0.88250000(0)  0.26500
 H10_64  H 1.0  0.61750000(0)  0.07680000(0)  0.22670000(0)  0.26500
 H10_65  H 1.0  0.11750000(0)  0.07680000(0)  0.72670000(0)  0.26500
 H10_66  H 1.0  0.11750000(0)  0.57680000(0)  0.22670000(0)  0.26500
 H10_67  H 1.0  0.72670000(0)  0.11750000(0)  0.07680000(0)  0.26500
 H10_68  H 1.0  0.22670000(0)  0.11750000(0)  0.57680000(0)  0.26500
 H10_69  H 1.0  0.22670000(0)  0.61750000(0)  0.07680000(0)  0.26500
 H10_70  H 1.0  0.42320000(0)  0.77330000(0)  0.11750000(0)  0.26500
 H10_71  H 1.0  0.92320000(0)  0.77330000(0)  0.61750000(0)  0.26500
 H10_72  H 1.0  0.92320000(0)  0.27330000(0)  0.11750000(0)  0.26500
 H10_73  H 1.0  0.38250000(0)  0.07680000(0)  0.77330000(0)  0.26500
 H10_74  H 1.0  0.88250000(0)  0.07680000(0)  0.27330000(0)  0.26500
 H10_75  H 1.0  0.88250000(0)  0.57680000(0)  0.77330000(0)  0.26500
 H10_76  H 1.0  0.72670000(0)  0.11750000(0)  0.92320000(0)  0.26500
 H10_77  H 1.0  0.22670000(0)  0.11750000(0)  0.42320000(0)  0.26500
 H10_78  H 1.0  0.22670000(0)  0.61750000(0)  0.92320000(0)  0.26500
 H10_79  H 1.0  0.42320000(0)  0.77330000(0)  0.88250000(0)  0.26500
 H10_80  H 1.0  0.92320000(0)  0.77330000(0)  0.38250000(0)  0.26500
 H10_81  H 1.0  0.92320000(0)  0.27330000(0)  0.88250000(0)  0.26500
 H10_82  H 1.0  0.38250000(0)  0.07680000(0)  0.22670000(0)  0.26500
 H10_83  H 1.0  0.88250000(0)  0.07680000(0)  0.72670000(0)  0.26500
 H10_84  H 1.0  0.88250000(0)  0.57680000(0)  0.22670000(0)  0.26500
 H10_85  H 1.0  0.61750000(0)  0.77330000(0)  0.07680000(0)  0.26500
 H10_86  H 1.0  0.11750000(0)  0.77330000(0)  0.57680000(0)  0.26500
 H10_87  H 1.0  0.11750000(0)  0.27330000(0)  0.07680000(0)  0.26500
 H10_88  H 1.0  0.27330000(0)  0.07680000(0)  0.11750000(0)  0.26500
 H10_89  H 1.0  0.77330000(0)  0.07680000(0)  0.61750000(0)  0.26500
 H10_90  H 1.0  0.77330000(0)  0.57680000(0)  0.11750000(0)  0.26500
 H10_91  H 1.0  0.57680000(0)  0.11750000(0)  0.77330000(0)  0.26500
 H10_92  H 1.0  0.07680000(0)  0.11750000(0)  0.27330000(0)  0.26500
 H10_93  H 1.0  0.07680000(0)  0.61750000(0)  0.77330000(0)  0.26500
 H10_94  H 1.0  0.61750000(0)  0.77330000(0)  0.92320000(0)  0.26500
 H10_95  H 1.0  0.11750000(0)  0.77330000(0)  0.42320000(0)  0.26500
 H10_96  H 1.0  0.11750000(0)  0.27330000(0)  0.92320000(0)  0.26500
 H10_97  H 1.0  0.27330000(0)  0.07680000(0)  0.88250000(0)  0.26500
 H10_98  H 1.0  0.77330000(0)  0.07680000(0)  0.38250000(0)  0.26500
 H10_99  H 1.0  0.77330000(0)  0.57680000(0)  0.88250000(0)  0.26500
 H10_100  H 1.0  0.57680000(0)  0.11750000(0)  0.22670000(0)  0.26500
 H10_101  H 1.0  0.07680000(0)  0.11750000(0)  0.72670000(0)  0.26500
 H10_102  H 1.0  0.07680000(0)  0.61750000(0)  0.22670000(0)  0.26500
 H10_103  H 1.0  0.61750000(0)  0.22670000(0)  0.07680000(0)  0.26500
 H10_104  H 1.0  0.11750000(0)  0.22670000(0)  0.57680000(0)  0.26500
 H10_105  H 1.0  0.11750000(0)  0.72670000(0)  0.07680000(0)  0.26500
 H10_106  H 1.0  0.27330000(0)  0.92320000(0)  0.11750000(0)  0.26500
 H10_107  H 1.0  0.77330000(0)  0.92320000(0)  0.61750000(0)  0.26500
 H10_108  H 1.0  0.77330000(0)  0.42320000(0)  0.11750000(0)  0.26500
 H10_109  H 1.0  0.57680000(0)  0.88250000(0)  0.77330000(0)  0.26500
 H10_110  H 1.0  0.07680000(0)  0.88250000(0)  0.27330000(0)  0.26500
 H10_111  H 1.0  0.07680000(0)  0.38250000(0)  0.77330000(0)  0.26500
 H10_112  H 1.0  0.61750000(0)  0.22670000(0)  0.92320000(0)  0.26500
 H10_113  H 1.0  0.11750000(0)  0.22670000(0)  0.42320000(0)  0.26500
 H10_114  H 1.0  0.11750000(0)  0.72670000(0)  0.92320000(0)  0.26500
 H10_115  H 1.0  0.27330000(0)  0.92320000(0)  0.88250000(0)  0.26500
 H10_116  H 1.0  0.77330000(0)  0.92320000(0)  0.38250000(0)  0.26500
 H10_117  H 1.0  0.77330000(0)  0.42320000(0)  0.88250000(0)  0.26500
 H10_118  H 1.0  0.57680000(0)  0.88250000(0)  0.22670000(0)  0.26500
 H10_119  H 1.0  0.07680000(0)  0.88250000(0)  0.72670000(0)  0.26500
 H10_120  H 1.0  0.07680000(0)  0.38250000(0)  0.22670000(0)  0.26500
 H10_121  H 1.0  0.72670000(0)  0.88250000(0)  0.92320000(0)  0.26500
 H10_122  H 1.0  0.22670000(0)  0.88250000(0)  0.42320000(0)  0.26500
 H10_123  H 1.0  0.22670000(0)  0.38250000(0)  0.92320000(0)  0.26500
 H10_124  H 1.0  0.42320000(0)  0.22670000(0)  0.88250000(0)  0.26500
 H10_125  H 1.0  0.92320000(0)  0.22670000(0)  0.38250000(0)  0.26500
 H10_126  H 1.0  0.92320000(0)  0.72670000(0)  0.88250000(0)  0.26500
 H10_127  H 1.0  0.38250000(0)  0.92320000(0)  0.22670000(0)  0.26500
 H10_128  H 1.0  0.88250000(0)  0.92320000(0)  0.72670000(0)  0.26500
 H10_129  H 1.0  0.88250000(0)  0.42320000(0)  0.22670000(0)  0.26500
 H10_130  H 1.0  0.72670000(0)  0.88250000(0)  0.07680000(0)  0.26500
 H10_131  H 1.0  0.22670000(0)  0.88250000(0)  0.57680000(0)  0.26500
 H10_132  H 1.0  0.22670000(0)  0.38250000(0)  0.07680000(0)  0.26500
 H10_133  H 1.0  0.42320000(0)  0.22670000(0)  0.11750000(0)  0.26500
 H10_134  H 1.0  0.92320000(0)  0.22670000(0)  0.61750000(0)  0.26500
 H10_135  H 1.0  0.92320000(0)  0.72670000(0)  0.11750000(0)  0.26500
 H10_136  H 1.0  0.38250000(0)  0.92320000(0)  0.77330000(0)  0.26500
 H10_137  H 1.0  0.88250000(0)  0.92320000(0)  0.27330000(0)  0.26500
 H10_138  H 1.0  0.88250000(0)  0.42320000(0)  0.77330000(0)  0.26500
 H10_139  H 1.0  0.27330000(0)  0.88250000(0)  0.92320000(0)  0.26500
 H10_140  H 1.0  0.77330000(0)  0.88250000(0)  0.42320000(0)  0.26500
 H10_141  H 1.0  0.77330000(0)  0.38250000(0)  0.92320000(0)  0.26500
 H10_142  H 1.0  0.57680000(0)  0.22670000(0)  0.88250000(0)  0.26500
 H10_143  H 1.0  0.07680000(0)  0.22670000(0)  0.38250000(0)  0.26500
 H10_144  H 1.0  0.07680000(0)  0.72670000(0)  0.88250000(0)  0.26500
 H10_145  H 1.0  0.61750000(0)  0.92320000(0)  0.22670000(0)  0.26500
 H10_146  H 1.0  0.11750000(0)  0.92320000(0)  0.72670000(0)  0.26500
 H10_147  H 1.0  0.11750000(0)  0.42320000(0)  0.22670000(0)  0.26500
 H10_148  H 1.0  0.27330000(0)  0.88250000(0)  0.07680000(0)  0.26500
 H10_149  H 1.0  0.77330000(0)  0.88250000(0)  0.57680000(0)  0.26500
 H10_150  H 1.0  0.77330000(0)  0.38250000(0)  0.07680000(0)  0.26500
 H10_151  H 1.0  0.57680000(0)  0.22670000(0)  0.11750000(0)  0.26500
 H10_152  H 1.0  0.07680000(0)  0.22670000(0)  0.61750000(0)  0.26500
 H10_153  H 1.0  0.07680000(0)  0.72670000(0)  0.11750000(0)  0.26500
 H10_154  H 1.0  0.61750000(0)  0.92320000(0)  0.77330000(0)  0.26500
 H10_155  H 1.0  0.11750000(0)  0.92320000(0)  0.27330000(0)  0.26500
 H10_156  H 1.0  0.11750000(0)  0.42320000(0)  0.77330000(0)  0.26500
 H10_157  H 1.0  0.38250000(0)  0.22670000(0)  0.92320000(0)  0.26500
 H10_158  H 1.0  0.88250000(0)  0.22670000(0)  0.42320000(0)  0.26500
 H10_159  H 1.0  0.88250000(0)  0.72670000(0)  0.92320000(0)  0.26500
 H10_160  H 1.0  0.72670000(0)  0.92320000(0)  0.88250000(0)  0.26500
 H10_161  H 1.0  0.22670000(0)  0.92320000(0)  0.38250000(0)  0.26500
 H10_162  H 1.0  0.22670000(0)  0.42320000(0)  0.88250000(0)  0.26500
 H10_163  H 1.0  0.42320000(0)  0.88250000(0)  0.22670000(0)  0.26500
 H10_164  H 1.0  0.92320000(0)  0.88250000(0)  0.72670000(0)  0.26500
 H10_165  H 1.0  0.92320000(0)  0.38250000(0)  0.22670000(0)  0.26500
 H10_166  H 1.0  0.38250000(0)  0.22670000(0)  0.07680000(0)  0.26500
 H10_167  H 1.0  0.88250000(0)  0.22670000(0)  0.57680000(0)  0.26500
 H10_168  H 1.0  0.88250000(0)  0.72670000(0)  0.07680000(0)  0.26500
 H10_169  H 1.0  0.72670000(0)  0.92320000(0)  0.11750000(0)  0.26500
 H10_170  H 1.0  0.22670000(0)  0.92320000(0)  0.61750000(0)  0.26500
 H10_171  H 1.0  0.22670000(0)  0.42320000(0)  0.11750000(0)  0.26500
 H10_172  H 1.0  0.42320000(0)  0.88250000(0)  0.77330000(0)  0.26500
 H10_173  H 1.0  0.92320000(0)  0.88250000(0)  0.27330000(0)  0.26500
 H10_174  H 1.0  0.92320000(0)  0.38250000(0)  0.77330000(0)  0.26500
 H10_175  H 1.0  0.38250000(0)  0.77330000(0)  0.92320000(0)  0.26500
 H10_176  H 1.0  0.88250000(0)  0.77330000(0)  0.42320000(0)  0.26500
 H10_177  H 1.0  0.88250000(0)  0.27330000(0)  0.92320000(0)  0.26500
 H10_178  H 1.0  0.72670000(0)  0.07680000(0)  0.88250000(0)  0.26500
 H10_179  H 1.0  0.22670000(0)  0.07680000(0)  0.38250000(0)  0.26500
 H10_180  H 1.0  0.22670000(0)  0.57680000(0)  0.88250000(0)  0.26500
 H10_181  H 1.0  0.42320000(0)  0.11750000(0)  0.22670000(0)  0.26500
 H10_182  H 1.0  0.92320000(0)  0.11750000(0)  0.72670000(0)  0.26500
 H10_183  H 1.0  0.92320000(0)  0.61750000(0)  0.22670000(0)  0.26500
 H10_184  H 1.0  0.38250000(0)  0.77330000(0)  0.07680000(0)  0.26500
 H10_185  H 1.0  0.88250000(0)  0.77330000(0)  0.57680000(0)  0.26500
 H10_186  H 1.0  0.88250000(0)  0.27330000(0)  0.07680000(0)  0.26500
 H10_187  H 1.0  0.72670000(0)  0.07680000(0)  0.11750000(0)  0.26500
 H10_188  H 1.0  0.22670000(0)  0.07680000(0)  0.61750000(0)  0.26500
 H10_189  H 1.0  0.22670000(0)  0.57680000(0)  0.11750000(0)  0.26500
 H10_190  H 1.0  0.42320000(0)  0.11750000(0)  0.77330000(0)  0.26500
 H10_191  H 1.0  0.92320000(0)  0.11750000(0)  0.27330000(0)  0.26500
 H10_192  H 1.0  0.92320000(0)  0.61750000(0)  0.77330000(0)  0.26500
 H15  H 1.0  0.21700000(0)  0.64230000(0)  0.60420000(0)  0.29000
 H15_2  H 1.0  0.60420000(0)  0.21700000(0)  0.64230000(0)  0.29000
 H15_3  H 1.0  0.64230000(0)  0.60420000(0)  0.21700000(0)  0.29000
 H15_4  H 1.0  0.21700000(0)  0.64230000(0)  0.39580000(0)  0.29000
 H15_5  H 1.0  0.60420000(0)  0.21700000(0)  0.35770000(0)  0.29000
 H15_6  H 1.0  0.64230000(0)  0.60420000(0)  0.78300000(0)  0.29000
 H15_7  H 1.0  0.78300000(0)  0.64230000(0)  0.60420000(0)  0.29000
 H15_8  H 1.0  0.39580000(0)  0.21700000(0)  0.64230000(0)  0.29000
 H15_9  H 1.0  0.35770000(0)  0.60420000(0)  0.21700000(0)  0.29000
 H15_10  H 1.0  0.78300000(0)  0.64230000(0)  0.39580000(0)  0.29000
 H15_11  H 1.0  0.39580000(0)  0.21700000(0)  0.35770000(0)  0.29000
 H15_12  H 1.0  0.35770000(0)  0.60420000(0)  0.78300000(0)  0.29000
 H15_13  H 1.0  0.64230000(0)  0.21700000(0)  0.60420000(0)  0.29000
 H15_14  H 1.0  0.21700000(0)  0.60420000(0)  0.64230000(0)  0.29000
 H15_15  H 1.0  0.60420000(0)  0.64230000(0)  0.21700000(0)  0.29000
 H15_16  H 1.0  0.64230000(0)  0.21700000(0)  0.39580000(0)  0.29000
 H15_17  H 1.0  0.21700000(0)  0.60420000(0)  0.35770000(0)  0.29000
 H15_18  H 1.0  0.60420000(0)  0.64230000(0)  0.78300000(0)  0.29000
 H15_19  H 1.0  0.64230000(0)  0.78300000(0)  0.60420000(0)  0.29000
 H15_20  H 1.0  0.21700000(0)  0.39580000(0)  0.64230000(0)  0.29000
 H15_21  H 1.0  0.60420000(0)  0.35770000(0)  0.21700000(0)  0.29000
 H15_22  H 1.0  0.64230000(0)  0.78300000(0)  0.39580000(0)  0.29000
 H15_23  H 1.0  0.21700000(0)  0.39580000(0)  0.35770000(0)  0.29000
 H15_24  H 1.0  0.60420000(0)  0.35770000(0)  0.78300000(0)  0.29000
 H15_25  H 1.0  0.78300000(0)  0.35770000(0)  0.39580000(0)  0.29000
 H15_26  H 1.0  0.39580000(0)  0.78300000(0)  0.35770000(0)  0.29000
 H15_27  H 1.0  0.35770000(0)  0.39580000(0)  0.78300000(0)  0.29000
 H15_28  H 1.0  0.78300000(0)  0.35770000(0)  0.60420000(0)  0.29000
 H15_29  H 1.0  0.39580000(0)  0.78300000(0)  0.64230000(0)  0.29000
 H15_30  H 1.0  0.35770000(0)  0.39580000(0)  0.21700000(0)  0.29000
 H15_31  H 1.0  0.21700000(0)  0.35770000(0)  0.39580000(0)  0.29000
 H15_32  H 1.0  0.60420000(0)  0.78300000(0)  0.35770000(0)  0.29000
 H15_33  H 1.0  0.64230000(0)  0.39580000(0)  0.78300000(0)  0.29000
 H15_34  H 1.0  0.21700000(0)  0.35770000(0)  0.60420000(0)  0.29000
 H15_35  H 1.0  0.60420000(0)  0.78300000(0)  0.64230000(0)  0.29000
 H15_36  H 1.0  0.64230000(0)  0.39580000(0)  0.21700000(0)  0.29000
 H15_37  H 1.0  0.35770000(0)  0.78300000(0)  0.39580000(0)  0.29000
 H15_38  H 1.0  0.78300000(0)  0.39580000(0)  0.35770000(0)  0.29000
 H15_39  H 1.0  0.39580000(0)  0.35770000(0)  0.78300000(0)  0.29000
 H15_40  H 1.0  0.35770000(0)  0.78300000(0)  0.60420000(0)  0.29000
 H15_41  H 1.0  0.78300000(0)  0.39580000(0)  0.64230000(0)  0.29000
 H15_42  H 1.0  0.39580000(0)  0.35770000(0)  0.21700000(0)  0.29000
 H15_43  H 1.0  0.35770000(0)  0.21700000(0)  0.39580000(0)  0.29000
 H15_44  H 1.0  0.78300000(0)  0.60420000(0)  0.35770000(0)  0.29000
 H15_45  H 1.0  0.39580000(0)  0.64230000(0)  0.78300000(0)  0.29000
 H15_46  H 1.0  0.35770000(0)  0.21700000(0)  0.60420000(0)  0.29000
 H15_47  H 1.0  0.78300000(0)  0.60420000(0)  0.64230000(0)  0.29000
 H15_48  H 1.0  0.39580000(0)  0.64230000(0)  0.21700000(0)  0.29000
 H15_49  H 1.0  0.21700000(0)  0.14230000(0)  0.10420000(0)  0.29000
 H15_50  H 1.0  0.71700000(0)  0.14230000(0)  0.60420000(0)  0.29000
 H15_51  H 1.0  0.71700000(0)  0.64230000(0)  0.10420000(0)  0.29000
 H15_52  H 1.0  0.60420000(0)  0.71700000(0)  0.14230000(0)  0.29000
 H15_53  H 1.0  0.10420000(0)  0.71700000(0)  0.64230000(0)  0.29000
 H15_54  H 1.0  0.10420000(0)  0.21700000(0)  0.14230000(0)  0.29000
 H15_55  H 1.0  0.64230000(0)  0.10420000(0)  0.71700000(0)  0.29000
 H15_56  H 1.0  0.14230000(0)  0.10420000(0)  0.21700000(0)  0.29000
 H15_57  H 1.0  0.14230000(0)  0.60420000(0)  0.71700000(0)  0.29000
 H15_58  H 1.0  0.21700000(0)  0.14230000(0)  0.89580000(0)  0.29000
 H15_59  H 1.0  0.71700000(0)  0.14230000(0)  0.39580000(0)  0.29000
 H15_60  H 1.0  0.71700000(0)  0.64230000(0)  0.89580000(0)  0.29000
 H15_61  H 1.0  0.60420000(0)  0.71700000(0)  0.85770000(0)  0.29000
 H15_62  H 1.0  0.10420000(0)  0.71700000(0)  0.35770000(0)  0.29000
 H15_63  H 1.0  0.10420000(0)  0.21700000(0)  0.85770000(0)  0.29000
 H15_64  H 1.0  0.64230000(0)  0.10420000(0)  0.28300000(0)  0.29000
 H15_65  H 1.0  0.14230000(0)  0.10420000(0)  0.78300000(0)  0.29000
 H15_66  H 1.0  0.14230000(0)  0.60420000(0)  0.28300000(0)  0.29000
 H15_67  H 1.0  0.78300000(0)  0.14230000(0)  0.10420000(0)  0.29000
 H15_68  H 1.0  0.28300000(0)  0.14230000(0)  0.60420000(0)  0.29000
 H15_69  H 1.0  0.28300000(0)  0.64230000(0)  0.10420000(0)  0.29000
 H15_70  H 1.0  0.39580000(0)  0.71700000(0)  0.14230000(0)  0.29000
 H15_71  H 1.0  0.89580000(0)  0.71700000(0)  0.64230000(0)  0.29000
 H15_72  H 1.0  0.89580000(0)  0.21700000(0)  0.14230000(0)  0.29000
 H15_73  H 1.0  0.35770000(0)  0.10420000(0)  0.71700000(0)  0.29000
 H15_74  H 1.0  0.85770000(0)  0.10420000(0)  0.21700000(0)  0.29000
 H15_75  H 1.0  0.85770000(0)  0.60420000(0)  0.71700000(0)  0.29000
 H15_76  H 1.0  0.78300000(0)  0.14230000(0)  0.89580000(0)  0.29000
 H15_77  H 1.0  0.28300000(0)  0.14230000(0)  0.39580000(0)  0.29000
 H15_78  H 1.0  0.28300000(0)  0.64230000(0)  0.89580000(0)  0.29000
 H15_79  H 1.0  0.39580000(0)  0.71700000(0)  0.85770000(0)  0.29000
 H15_80  H 1.0  0.89580000(0)  0.71700000(0)  0.35770000(0)  0.29000
 H15_81  H 1.0  0.89580000(0)  0.21700000(0)  0.85770000(0)  0.29000
 H15_82  H 1.0  0.35770000(0)  0.10420000(0)  0.28300000(0)  0.29000
 H15_83  H 1.0  0.85770000(0)  0.10420000(0)  0.78300000(0)  0.29000
 H15_84  H 1.0  0.85770000(0)  0.60420000(0)  0.28300000(0)  0.29000
 H15_85  H 1.0  0.64230000(0)  0.71700000(0)  0.10420000(0)  0.29000
 H15_86  H 1.0  0.14230000(0)  0.71700000(0)  0.60420000(0)  0.29000
 H15_87  H 1.0  0.14230000(0)  0.21700000(0)  0.10420000(0)  0.29000
 H15_88  H 1.0  0.21700000(0)  0.10420000(0)  0.14230000(0)  0.29000
 H15_89  H 1.0  0.71700000(0)  0.10420000(0)  0.64230000(0)  0.29000
 H15_90  H 1.0  0.71700000(0)  0.60420000(0)  0.14230000(0)  0.29000
 H15_91  H 1.0  0.60420000(0)  0.14230000(0)  0.71700000(0)  0.29000
 H15_92  H 1.0  0.10420000(0)  0.14230000(0)  0.21700000(0)  0.29000
 H15_93  H 1.0  0.10420000(0)  0.64230000(0)  0.71700000(0)  0.29000
 H15_94  H 1.0  0.64230000(0)  0.71700000(0)  0.89580000(0)  0.29000
 H15_95  H 1.0  0.14230000(0)  0.71700000(0)  0.39580000(0)  0.29000
 H15_96  H 1.0  0.14230000(0)  0.21700000(0)  0.89580000(0)  0.29000
 H15_97  H 1.0  0.21700000(0)  0.10420000(0)  0.85770000(0)  0.29000
 H15_98  H 1.0  0.71700000(0)  0.10420000(0)  0.35770000(0)  0.29000
 H15_99  H 1.0  0.71700000(0)  0.60420000(0)  0.85770000(0)  0.29000
 H15_100  H 1.0  0.60420000(0)  0.14230000(0)  0.28300000(0)  0.29000
 H15_101  H 1.0  0.10420000(0)  0.14230000(0)  0.78300000(0)  0.29000
 H15_102  H 1.0  0.10420000(0)  0.64230000(0)  0.28300000(0)  0.29000
 H15_103  H 1.0  0.64230000(0)  0.28300000(0)  0.10420000(0)  0.29000
 H15_104  H 1.0  0.14230000(0)  0.28300000(0)  0.60420000(0)  0.29000
 H15_105  H 1.0  0.14230000(0)  0.78300000(0)  0.10420000(0)  0.29000
 H15_106  H 1.0  0.21700000(0)  0.89580000(0)  0.14230000(0)  0.29000
 H15_107  H 1.0  0.71700000(0)  0.89580000(0)  0.64230000(0)  0.29000
 H15_108  H 1.0  0.71700000(0)  0.39580000(0)  0.14230000(0)  0.29000
 H15_109  H 1.0  0.60420000(0)  0.85770000(0)  0.71700000(0)  0.29000
 H15_110  H 1.0  0.10420000(0)  0.85770000(0)  0.21700000(0)  0.29000
 H15_111  H 1.0  0.10420000(0)  0.35770000(0)  0.71700000(0)  0.29000
 H15_112  H 1.0  0.64230000(0)  0.28300000(0)  0.89580000(0)  0.29000
 H15_113  H 1.0  0.14230000(0)  0.28300000(0)  0.39580000(0)  0.29000
 H15_114  H 1.0  0.14230000(0)  0.78300000(0)  0.89580000(0)  0.29000
 H15_115  H 1.0  0.21700000(0)  0.89580000(0)  0.85770000(0)  0.29000
 H15_116  H 1.0  0.71700000(0)  0.89580000(0)  0.35770000(0)  0.29000
 H15_117  H 1.0  0.71700000(0)  0.39580000(0)  0.85770000(0)  0.29000
 H15_118  H 1.0  0.60420000(0)  0.85770000(0)  0.28300000(0)  0.29000
 H15_119  H 1.0  0.10420000(0)  0.85770000(0)  0.78300000(0)  0.29000
 H15_120  H 1.0  0.10420000(0)  0.35770000(0)  0.28300000(0)  0.29000
 H15_121  H 1.0  0.78300000(0)  0.85770000(0)  0.89580000(0)  0.29000
 H15_122  H 1.0  0.28300000(0)  0.85770000(0)  0.39580000(0)  0.29000
 H15_123  H 1.0  0.28300000(0)  0.35770000(0)  0.89580000(0)  0.29000
 H15_124  H 1.0  0.39580000(0)  0.28300000(0)  0.85770000(0)  0.29000
 H15_125  H 1.0  0.89580000(0)  0.28300000(0)  0.35770000(0)  0.29000
 H15_126  H 1.0  0.89580000(0)  0.78300000(0)  0.85770000(0)  0.29000
 H15_127  H 1.0  0.35770000(0)  0.89580000(0)  0.28300000(0)  0.29000
 H15_128  H 1.0  0.85770000(0)  0.89580000(0)  0.78300000(0)  0.29000
 H15_129  H 1.0  0.85770000(0)  0.39580000(0)  0.28300000(0)  0.29000
 H15_130  H 1.0  0.78300000(0)  0.85770000(0)  0.10420000(0)  0.29000
 H15_131  H 1.0  0.28300000(0)  0.85770000(0)  0.60420000(0)  0.29000
 H15_132  H 1.0  0.28300000(0)  0.35770000(0)  0.10420000(0)  0.29000
 H15_133  H 1.0  0.39580000(0)  0.28300000(0)  0.14230000(0)  0.29000
 H15_134  H 1.0  0.89580000(0)  0.28300000(0)  0.64230000(0)  0.29000
 H15_135  H 1.0  0.89580000(0)  0.78300000(0)  0.14230000(0)  0.29000
 H15_136  H 1.0  0.35770000(0)  0.89580000(0)  0.71700000(0)  0.29000
 H15_137  H 1.0  0.85770000(0)  0.89580000(0)  0.21700000(0)  0.29000
 H15_138  H 1.0  0.85770000(0)  0.39580000(0)  0.71700000(0)  0.29000
 H15_139  H 1.0  0.21700000(0)  0.85770000(0)  0.89580000(0)  0.29000
 H15_140  H 1.0  0.71700000(0)  0.85770000(0)  0.39580000(0)  0.29000
 H15_141  H 1.0  0.71700000(0)  0.35770000(0)  0.89580000(0)  0.29000
 H15_142  H 1.0  0.60420000(0)  0.28300000(0)  0.85770000(0)  0.29000
 H15_143  H 1.0  0.10420000(0)  0.28300000(0)  0.35770000(0)  0.29000
 H15_144  H 1.0  0.10420000(0)  0.78300000(0)  0.85770000(0)  0.29000
 H15_145  H 1.0  0.64230000(0)  0.89580000(0)  0.28300000(0)  0.29000
 H15_146  H 1.0  0.14230000(0)  0.89580000(0)  0.78300000(0)  0.29000
 H15_147  H 1.0  0.14230000(0)  0.39580000(0)  0.28300000(0)  0.29000
 H15_148  H 1.0  0.21700000(0)  0.85770000(0)  0.10420000(0)  0.29000
 H15_149  H 1.0  0.71700000(0)  0.85770000(0)  0.60420000(0)  0.29000
 H15_150  H 1.0  0.71700000(0)  0.35770000(0)  0.10420000(0)  0.29000
 H15_151  H 1.0  0.60420000(0)  0.28300000(0)  0.14230000(0)  0.29000
 H15_152  H 1.0  0.10420000(0)  0.28300000(0)  0.64230000(0)  0.29000
 H15_153  H 1.0  0.10420000(0)  0.78300000(0)  0.14230000(0)  0.29000
 H15_154  H 1.0  0.64230000(0)  0.89580000(0)  0.71700000(0)  0.29000
 H15_155  H 1.0  0.14230000(0)  0.89580000(0)  0.21700000(0)  0.29000
 H15_156  H 1.0  0.14230000(0)  0.39580000(0)  0.71700000(0)  0.29000
 H15_157  H 1.0  0.35770000(0)  0.28300000(0)  0.89580000(0)  0.29000
 H15_158  H 1.0  0.85770000(0)  0.28300000(0)  0.39580000(0)  0.29000
 H15_159  H 1.0  0.85770000(0)  0.78300000(0)  0.89580000(0)  0.29000
 H15_160  H 1.0  0.78300000(0)  0.89580000(0)  0.85770000(0)  0.29000
 H15_161  H 1.0  0.28300000(0)  0.89580000(0)  0.35770000(0)  0.29000
 H15_162  H 1.0  0.28300000(0)  0.39580000(0)  0.85770000(0)  0.29000
 H15_163  H 1.0  0.39580000(0)  0.85770000(0)  0.28300000(0)  0.29000
 H15_164  H 1.0  0.89580000(0)  0.85770000(0)  0.78300000(0)  0.29000
 H15_165  H 1.0  0.89580000(0)  0.35770000(0)  0.28300000(0)  0.29000
 H15_166  H 1.0  0.35770000(0)  0.28300000(0)  0.10420000(0)  0.29000
 H15_167  H 1.0  0.85770000(0)  0.28300000(0)  0.60420000(0)  0.29000
 H15_168  H 1.0  0.85770000(0)  0.78300000(0)  0.10420000(0)  0.29000
 H15_169  H 1.0  0.78300000(0)  0.89580000(0)  0.14230000(0)  0.29000
 H15_170  H 1.0  0.28300000(0)  0.89580000(0)  0.64230000(0)  0.29000
 H15_171  H 1.0  0.28300000(0)  0.39580000(0)  0.14230000(0)  0.29000
 H15_172  H 1.0  0.39580000(0)  0.85770000(0)  0.71700000(0)  0.29000
 H15_173  H 1.0  0.89580000(0)  0.85770000(0)  0.21700000(0)  0.29000
 H15_174  H 1.0  0.89580000(0)  0.35770000(0)  0.71700000(0)  0.29000
 H15_175  H 1.0  0.35770000(0)  0.71700000(0)  0.89580000(0)  0.29000
 H15_176  H 1.0  0.85770000(0)  0.71700000(0)  0.39580000(0)  0.29000
 H15_177  H 1.0  0.85770000(0)  0.21700000(0)  0.89580000(0)  0.29000
 H15_178  H 1.0  0.78300000(0)  0.10420000(0)  0.85770000(0)  0.29000
 H15_179  H 1.0  0.28300000(0)  0.10420000(0)  0.35770000(0)  0.29000
 H15_180  H 1.0  0.28300000(0)  0.60420000(0)  0.85770000(0)  0.29000
 H15_181  H 1.0  0.39580000(0)  0.14230000(0)  0.28300000(0)  0.29000
 H15_182  H 1.0  0.89580000(0)  0.14230000(0)  0.78300000(0)  0.29000
 H15_183  H 1.0  0.89580000(0)  0.64230000(0)  0.28300000(0)  0.29000
 H15_184  H 1.0  0.35770000(0)  0.71700000(0)  0.10420000(0)  0.29000
 H15_185  H 1.0  0.85770000(0)  0.71700000(0)  0.60420000(0)  0.29000
 H15_186  H 1.0  0.85770000(0)  0.21700000(0)  0.10420000(0)  0.29000
 H15_187  H 1.0  0.78300000(0)  0.10420000(0)  0.14230000(0)  0.29000
 H15_188  H 1.0  0.28300000(0)  0.10420000(0)  0.64230000(0)  0.29000
 H15_189  H 1.0  0.28300000(0)  0.60420000(0)  0.14230000(0)  0.29000
 H15_190  H 1.0  0.39580000(0)  0.14230000(0)  0.71700000(0)  0.29000
 H15_191  H 1.0  0.89580000(0)  0.14230000(0)  0.21700000(0)  0.29000
 H15_192  H 1.0  0.89580000(0)  0.64230000(0)  0.71700000(0)  0.29000
 H16  H 1.0  0.18740000(0)  0.65120000(0)  0.61180000(0)  0.28900
 H16_2  H 1.0  0.61180000(0)  0.18740000(0)  0.65120000(0)  0.28900
 H16_3  H 1.0  0.65120000(0)  0.61180000(0)  0.18740000(0)  0.28900
 H16_4  H 1.0  0.18740000(0)  0.65120000(0)  0.38820000(0)  0.28900
 H16_5  H 1.0  0.61180000(0)  0.18740000(0)  0.34880000(0)  0.28900
 H16_6  H 1.0  0.65120000(0)  0.61180000(0)  0.81260000(0)  0.28900
 H16_7  H 1.0  0.81260000(0)  0.65120000(0)  0.61180000(0)  0.28900
 H16_8  H 1.0  0.38820000(0)  0.18740000(0)  0.65120000(0)  0.28900
 H16_9  H 1.0  0.34880000(0)  0.61180000(0)  0.18740000(0)  0.28900
 H16_10  H 1.0  0.81260000(0)  0.65120000(0)  0.38820000(0)  0.28900
 H16_11  H 1.0  0.38820000(0)  0.18740000(0)  0.34880000(0)  0.28900
 H16_12  H 1.0  0.34880000(0)  0.61180000(0)  0.81260000(0)  0.28900
 H16_13  H 1.0  0.65120000(0)  0.18740000(0)  0.61180000(0)  0.28900
 H16_14  H 1.0  0.18740000(0)  0.61180000(0)  0.65120000(0)  0.28900
 H16_15  H 1.0  0.61180000(0)  0.65120000(0)  0.18740000(0)  0.28900
 H16_16  H 1.0  0.65120000(0)  0.18740000(0)  0.38820000(0)  0.28900
 H16_17  H 1.0  0.18740000(0)  0.61180000(0)  0.34880000(0)  0.28900
 H16_18  H 1.0  0.61180000(0)  0.65120000(0)  0.81260000(0)  0.28900
 H16_19  H 1.0  0.65120000(0)  0.81260000(0)  0.61180000(0)  0.28900
 H16_20  H 1.0  0.18740000(0)  0.38820000(0)  0.65120000(0)  0.28900
 H16_21  H 1.0  0.61180000(0)  0.34880000(0)  0.18740000(0)  0.28900
 H16_22  H 1.0  0.65120000(0)  0.81260000(0)  0.38820000(0)  0.28900
 H16_23  H 1.0  0.18740000(0)  0.38820000(0)  0.34880000(0)  0.28900
 H16_24  H 1.0  0.61180000(0)  0.34880000(0)  0.81260000(0)  0.28900
 H16_25  H 1.0  0.81260000(0)  0.34880000(0)  0.38820000(0)  0.28900
 H16_26  H 1.0  0.38820000(0)  0.81260000(0)  0.34880000(0)  0.28900
 H16_27  H 1.0  0.34880000(0)  0.38820000(0)  0.81260000(0)  0.28900
 H16_28  H 1.0  0.81260000(0)  0.34880000(0)  0.61180000(0)  0.28900
 H16_29  H 1.0  0.38820000(0)  0.81260000(0)  0.65120000(0)  0.28900
 H16_30  H 1.0  0.34880000(0)  0.38820000(0)  0.18740000(0)  0.28900
 H16_31  H 1.0  0.18740000(0)  0.34880000(0)  0.38820000(0)  0.28900
 H16_32  H 1.0  0.61180000(0)  0.81260000(0)  0.34880000(0)  0.28900
 H16_33  H 1.0  0.65120000(0)  0.38820000(0)  0.81260000(0)  0.28900
 H16_34  H 1.0  0.18740000(0)  0.34880000(0)  0.61180000(0)  0.28900
 H16_35  H 1.0  0.61180000(0)  0.81260000(0)  0.65120000(0)  0.28900
 H16_36  H 1.0  0.65120000(0)  0.38820000(0)  0.18740000(0)  0.28900
 H16_37  H 1.0  0.34880000(0)  0.81260000(0)  0.38820000(0)  0.28900
 H16_38  H 1.0  0.81260000(0)  0.38820000(0)  0.34880000(0)  0.28900
 H16_39  H 1.0  0.38820000(0)  0.34880000(0)  0.81260000(0)  0.28900
 H16_40  H 1.0  0.34880000(0)  0.81260000(0)  0.61180000(0)  0.28900
 H16_41  H 1.0  0.81260000(0)  0.38820000(0)  0.65120000(0)  0.28900
 H16_42  H 1.0  0.38820000(0)  0.34880000(0)  0.18740000(0)  0.28900
 H16_43  H 1.0  0.34880000(0)  0.18740000(0)  0.38820000(0)  0.28900
 H16_44  H 1.0  0.81260000(0)  0.61180000(0)  0.34880000(0)  0.28900
 H16_45  H 1.0  0.38820000(0)  0.65120000(0)  0.81260000(0)  0.28900
 H16_46  H 1.0  0.34880000(0)  0.18740000(0)  0.61180000(0)  0.28900
 H16_47  H 1.0  0.81260000(0)  0.61180000(0)  0.65120000(0)  0.28900
 H16_48  H 1.0  0.38820000(0)  0.65120000(0)  0.18740000(0)  0.28900
 H16_49  H 1.0  0.18740000(0)  0.15120000(0)  0.11180000(0)  0.28900
 H16_50  H 1.0  0.68740000(0)  0.15120000(0)  0.61180000(0)  0.28900
 H16_51  H 1.0  0.68740000(0)  0.65120000(0)  0.11180000(0)  0.28900
 H16_52  H 1.0  0.61180000(0)  0.68740000(0)  0.15120000(0)  0.28900
 H16_53  H 1.0  0.11180000(0)  0.68740000(0)  0.65120000(0)  0.28900
 H16_54  H 1.0  0.11180000(0)  0.18740000(0)  0.15120000(0)  0.28900
 H16_55  H 1.0  0.65120000(0)  0.11180000(0)  0.68740000(0)  0.28900
 H16_56  H 1.0  0.15120000(0)  0.11180000(0)  0.18740000(0)  0.28900
 H16_57  H 1.0  0.15120000(0)  0.61180000(0)  0.68740000(0)  0.28900
 H16_58  H 1.0  0.18740000(0)  0.15120000(0)  0.88820000(0)  0.28900
 H16_59  H 1.0  0.68740000(0)  0.15120000(0)  0.38820000(0)  0.28900
 H16_60  H 1.0  0.68740000(0)  0.65120000(0)  0.88820000(0)  0.28900
 H16_61  H 1.0  0.61180000(0)  0.68740000(0)  0.84880000(0)  0.28900
 H16_62  H 1.0  0.11180000(0)  0.68740000(0)  0.34880000(0)  0.28900
 H16_63  H 1.0  0.11180000(0)  0.18740000(0)  0.84880000(0)  0.28900
 H16_64  H 1.0  0.65120000(0)  0.11180000(0)  0.31260000(0)  0.28900
 H16_65  H 1.0  0.15120000(0)  0.11180000(0)  0.81260000(0)  0.28900
 H16_66  H 1.0  0.15120000(0)  0.61180000(0)  0.31260000(0)  0.28900
 H16_67  H 1.0  0.81260000(0)  0.15120000(0)  0.11180000(0)  0.28900
 H16_68  H 1.0  0.31260000(0)  0.15120000(0)  0.61180000(0)  0.28900
 H16_69  H 1.0  0.31260000(0)  0.65120000(0)  0.11180000(0)  0.28900
 H16_70  H 1.0  0.38820000(0)  0.68740000(0)  0.15120000(0)  0.28900
 H16_71  H 1.0  0.88820000(0)  0.68740000(0)  0.65120000(0)  0.28900
 H16_72  H 1.0  0.88820000(0)  0.18740000(0)  0.15120000(0)  0.28900
 H16_73  H 1.0  0.34880000(0)  0.11180000(0)  0.68740000(0)  0.28900
 H16_74  H 1.0  0.84880000(0)  0.11180000(0)  0.18740000(0)  0.28900
 H16_75  H 1.0  0.84880000(0)  0.61180000(0)  0.68740000(0)  0.28900
 H16_76  H 1.0  0.81260000(0)  0.15120000(0)  0.88820000(0)  0.28900
 H16_77  H 1.0  0.31260000(0)  0.15120000(0)  0.38820000(0)  0.28900
 H16_78  H 1.0  0.31260000(0)  0.65120000(0)  0.88820000(0)  0.28900
 H16_79  H 1.0  0.38820000(0)  0.68740000(0)  0.84880000(0)  0.28900
 H16_80  H 1.0  0.88820000(0)  0.68740000(0)  0.34880000(0)  0.28900
 H16_81  H 1.0  0.88820000(0)  0.18740000(0)  0.84880000(0)  0.28900
 H16_82  H 1.0  0.34880000(0)  0.11180000(0)  0.31260000(0)  0.28900
 H16_83  H 1.0  0.84880000(0)  0.11180000(0)  0.81260000(0)  0.28900
 H16_84  H 1.0  0.84880000(0)  0.61180000(0)  0.31260000(0)  0.28900
 H16_85  H 1.0  0.65120000(0)  0.68740000(0)  0.11180000(0)  0.28900
 H16_86  H 1.0  0.15120000(0)  0.68740000(0)  0.61180000(0)  0.28900
 H16_87  H 1.0  0.15120000(0)  0.18740000(0)  0.11180000(0)  0.28900
 H16_88  H 1.0  0.18740000(0)  0.11180000(0)  0.15120000(0)  0.28900
 H16_89  H 1.0  0.68740000(0)  0.11180000(0)  0.65120000(0)  0.28900
 H16_90  H 1.0  0.68740000(0)  0.61180000(0)  0.15120000(0)  0.28900
 H16_91  H 1.0  0.61180000(0)  0.15120000(0)  0.68740000(0)  0.28900
 H16_92  H 1.0  0.11180000(0)  0.15120000(0)  0.18740000(0)  0.28900
 H16_93  H 1.0  0.11180000(0)  0.65120000(0)  0.68740000(0)  0.28900
 H16_94  H 1.0  0.65120000(0)  0.68740000(0)  0.88820000(0)  0.28900
 H16_95  H 1.0  0.15120000(0)  0.68740000(0)  0.38820000(0)  0.28900
 H16_96  H 1.0  0.15120000(0)  0.18740000(0)  0.88820000(0)  0.28900
 H16_97  H 1.0  0.18740000(0)  0.11180000(0)  0.84880000(0)  0.28900
 H16_98  H 1.0  0.68740000(0)  0.11180000(0)  0.34880000(0)  0.28900
 H16_99  H 1.0  0.68740000(0)  0.61180000(0)  0.84880000(0)  0.28900
 H16_100  H 1.0  0.61180000(0)  0.15120000(0)  0.31260000(0)  0.28900
 H16_101  H 1.0  0.11180000(0)  0.15120000(0)  0.81260000(0)  0.28900
 H16_102  H 1.0  0.11180000(0)  0.65120000(0)  0.31260000(0)  0.28900
 H16_103  H 1.0  0.65120000(0)  0.31260000(0)  0.11180000(0)  0.28900
 H16_104  H 1.0  0.15120000(0)  0.31260000(0)  0.61180000(0)  0.28900
 H16_105  H 1.0  0.15120000(0)  0.81260000(0)  0.11180000(0)  0.28900
 H16_106  H 1.0  0.18740000(0)  0.88820000(0)  0.15120000(0)  0.28900
 H16_107  H 1.0  0.68740000(0)  0.88820000(0)  0.65120000(0)  0.28900
 H16_108  H 1.0  0.68740000(0)  0.38820000(0)  0.15120000(0)  0.28900
 H16_109  H 1.0  0.61180000(0)  0.84880000(0)  0.68740000(0)  0.28900
 H16_110  H 1.0  0.11180000(0)  0.84880000(0)  0.18740000(0)  0.28900
 H16_111  H 1.0  0.11180000(0)  0.34880000(0)  0.68740000(0)  0.28900
 H16_112  H 1.0  0.65120000(0)  0.31260000(0)  0.88820000(0)  0.28900
 H16_113  H 1.0  0.15120000(0)  0.31260000(0)  0.38820000(0)  0.28900
 H16_114  H 1.0  0.15120000(0)  0.81260000(0)  0.88820000(0)  0.28900
 H16_115  H 1.0  0.18740000(0)  0.88820000(0)  0.84880000(0)  0.28900
 H16_116  H 1.0  0.68740000(0)  0.88820000(0)  0.34880000(0)  0.28900
 H16_117  H 1.0  0.68740000(0)  0.38820000(0)  0.84880000(0)  0.28900
 H16_118  H 1.0  0.61180000(0)  0.84880000(0)  0.31260000(0)  0.28900
 H16_119  H 1.0  0.11180000(0)  0.84880000(0)  0.81260000(0)  0.28900
 H16_120  H 1.0  0.11180000(0)  0.34880000(0)  0.31260000(0)  0.28900
 H16_121  H 1.0  0.81260000(0)  0.84880000(0)  0.88820000(0)  0.28900
 H16_122  H 1.0  0.31260000(0)  0.84880000(0)  0.38820000(0)  0.28900
 H16_123  H 1.0  0.31260000(0)  0.34880000(0)  0.88820000(0)  0.28900
 H16_124  H 1.0  0.38820000(0)  0.31260000(0)  0.84880000(0)  0.28900
 H16_125  H 1.0  0.88820000(0)  0.31260000(0)  0.34880000(0)  0.28900
 H16_126  H 1.0  0.88820000(0)  0.81260000(0)  0.84880000(0)  0.28900
 H16_127  H 1.0  0.34880000(0)  0.88820000(0)  0.31260000(0)  0.28900
 H16_128  H 1.0  0.84880000(0)  0.88820000(0)  0.81260000(0)  0.28900
 H16_129  H 1.0  0.84880000(0)  0.38820000(0)  0.31260000(0)  0.28900
 H16_130  H 1.0  0.81260000(0)  0.84880000(0)  0.11180000(0)  0.28900
 H16_131  H 1.0  0.31260000(0)  0.84880000(0)  0.61180000(0)  0.28900
 H16_132  H 1.0  0.31260000(0)  0.34880000(0)  0.11180000(0)  0.28900
 H16_133  H 1.0  0.38820000(0)  0.31260000(0)  0.15120000(0)  0.28900
 H16_134  H 1.0  0.88820000(0)  0.31260000(0)  0.65120000(0)  0.28900
 H16_135  H 1.0  0.88820000(0)  0.81260000(0)  0.15120000(0)  0.28900
 H16_136  H 1.0  0.34880000(0)  0.88820000(0)  0.68740000(0)  0.28900
 H16_137  H 1.0  0.84880000(0)  0.88820000(0)  0.18740000(0)  0.28900
 H16_138  H 1.0  0.84880000(0)  0.38820000(0)  0.68740000(0)  0.28900
 H16_139  H 1.0  0.18740000(0)  0.84880000(0)  0.88820000(0)  0.28900
 H16_140  H 1.0  0.68740000(0)  0.84880000(0)  0.38820000(0)  0.28900
 H16_141  H 1.0  0.68740000(0)  0.34880000(0)  0.88820000(0)  0.28900
 H16_142  H 1.0  0.61180000(0)  0.31260000(0)  0.84880000(0)  0.28900
 H16_143  H 1.0  0.11180000(0)  0.31260000(0)  0.34880000(0)  0.28900
 H16_144  H 1.0  0.11180000(0)  0.81260000(0)  0.84880000(0)  0.28900
 H16_145  H 1.0  0.65120000(0)  0.88820000(0)  0.31260000(0)  0.28900
 H16_146  H 1.0  0.15120000(0)  0.88820000(0)  0.81260000(0)  0.28900
 H16_147  H 1.0  0.15120000(0)  0.38820000(0)  0.31260000(0)  0.28900
 H16_148  H 1.0  0.18740000(0)  0.84880000(0)  0.11180000(0)  0.28900
 H16_149  H 1.0  0.68740000(0)  0.84880000(0)  0.61180000(0)  0.28900
 H16_150  H 1.0  0.68740000(0)  0.34880000(0)  0.11180000(0)  0.28900
 H16_151  H 1.0  0.61180000(0)  0.31260000(0)  0.15120000(0)  0.28900
 H16_152  H 1.0  0.11180000(0)  0.31260000(0)  0.65120000(0)  0.28900
 H16_153  H 1.0  0.11180000(0)  0.81260000(0)  0.15120000(0)  0.28900
 H16_154  H 1.0  0.65120000(0)  0.88820000(0)  0.68740000(0)  0.28900
 H16_155  H 1.0  0.15120000(0)  0.88820000(0)  0.18740000(0)  0.28900
 H16_156  H 1.0  0.15120000(0)  0.38820000(0)  0.68740000(0)  0.28900
 H16_157  H 1.0  0.34880000(0)  0.31260000(0)  0.88820000(0)  0.28900
 H16_158  H 1.0  0.84880000(0)  0.31260000(0)  0.38820000(0)  0.28900
 H16_159  H 1.0  0.84880000(0)  0.81260000(0)  0.88820000(0)  0.28900
 H16_160  H 1.0  0.81260000(0)  0.88820000(0)  0.84880000(0)  0.28900
 H16_161  H 1.0  0.31260000(0)  0.88820000(0)  0.34880000(0)  0.28900
 H16_162  H 1.0  0.31260000(0)  0.38820000(0)  0.84880000(0)  0.28900
 H16_163  H 1.0  0.38820000(0)  0.84880000(0)  0.31260000(0)  0.28900
 H16_164  H 1.0  0.88820000(0)  0.84880000(0)  0.81260000(0)  0.28900
 H16_165  H 1.0  0.88820000(0)  0.34880000(0)  0.31260000(0)  0.28900
 H16_166  H 1.0  0.34880000(0)  0.31260000(0)  0.11180000(0)  0.28900
 H16_167  H 1.0  0.84880000(0)  0.31260000(0)  0.61180000(0)  0.28900
 H16_168  H 1.0  0.84880000(0)  0.81260000(0)  0.11180000(0)  0.28900
 H16_169  H 1.0  0.81260000(0)  0.88820000(0)  0.15120000(0)  0.28900
 H16_170  H 1.0  0.31260000(0)  0.88820000(0)  0.65120000(0)  0.28900
 H16_171  H 1.0  0.31260000(0)  0.38820000(0)  0.15120000(0)  0.28900
 H16_172  H 1.0  0.38820000(0)  0.84880000(0)  0.68740000(0)  0.28900
 H16_173  H 1.0  0.88820000(0)  0.84880000(0)  0.18740000(0)  0.28900
 H16_174  H 1.0  0.88820000(0)  0.34880000(0)  0.68740000(0)  0.28900
 H16_175  H 1.0  0.34880000(0)  0.68740000(0)  0.88820000(0)  0.28900
 H16_176  H 1.0  0.84880000(0)  0.68740000(0)  0.38820000(0)  0.28900
 H16_177  H 1.0  0.84880000(0)  0.18740000(0)  0.88820000(0)  0.28900
 H16_178  H 1.0  0.81260000(0)  0.11180000(0)  0.84880000(0)  0.28900
 H16_179  H 1.0  0.31260000(0)  0.11180000(0)  0.34880000(0)  0.28900
 H16_180  H 1.0  0.31260000(0)  0.61180000(0)  0.84880000(0)  0.28900
 H16_181  H 1.0  0.38820000(0)  0.15120000(0)  0.31260000(0)  0.28900
 H16_182  H 1.0  0.88820000(0)  0.15120000(0)  0.81260000(0)  0.28900
 H16_183  H 1.0  0.88820000(0)  0.65120000(0)  0.31260000(0)  0.28900
 H16_184  H 1.0  0.34880000(0)  0.68740000(0)  0.11180000(0)  0.28900
 H16_185  H 1.0  0.84880000(0)  0.68740000(0)  0.61180000(0)  0.28900
 H16_186  H 1.0  0.84880000(0)  0.18740000(0)  0.11180000(0)  0.28900
 H16_187  H 1.0  0.81260000(0)  0.11180000(0)  0.15120000(0)  0.28900
 H16_188  H 1.0  0.31260000(0)  0.11180000(0)  0.65120000(0)  0.28900
 H16_189  H 1.0  0.31260000(0)  0.61180000(0)  0.15120000(0)  0.28900
 H16_190  H 1.0  0.38820000(0)  0.15120000(0)  0.68740000(0)  0.28900
 H16_191  H 1.0  0.88820000(0)  0.15120000(0)  0.18740000(0)  0.28900
 H16_192  H 1.0  0.88820000(0)  0.65120000(0)  0.68740000(0)  0.28900
 H19  H 1.0  0.15860000(0)  0.61740000(0)  0.65860000(0)  0.28500
 H19_2  H 1.0  0.65860000(0)  0.15860000(0)  0.61740000(0)  0.28500
 H19_3  H 1.0  0.61740000(0)  0.65860000(0)  0.15860000(0)  0.28500
 H19_4  H 1.0  0.15860000(0)  0.61740000(0)  0.34140000(0)  0.28500
 H19_5  H 1.0  0.65860000(0)  0.15860000(0)  0.38260000(0)  0.28500
 H19_6  H 1.0  0.61740000(0)  0.65860000(0)  0.84140000(0)  0.28500
 H19_7  H 1.0  0.84140000(0)  0.61740000(0)  0.65860000(0)  0.28500
 H19_8  H 1.0  0.34140000(0)  0.15860000(0)  0.61740000(0)  0.28500
 H19_9  H 1.0  0.38260000(0)  0.65860000(0)  0.15860000(0)  0.28500
 H19_10  H 1.0  0.84140000(0)  0.61740000(0)  0.34140000(0)  0.28500
 H19_11  H 1.0  0.34140000(0)  0.15860000(0)  0.38260000(0)  0.28500
 H19_12  H 1.0  0.38260000(0)  0.65860000(0)  0.84140000(0)  0.28500
 H19_13  H 1.0  0.61740000(0)  0.15860000(0)  0.65860000(0)  0.28500
 H19_14  H 1.0  0.15860000(0)  0.65860000(0)  0.61740000(0)  0.28500
 H19_15  H 1.0  0.65860000(0)  0.61740000(0)  0.15860000(0)  0.28500
 H19_16  H 1.0  0.61740000(0)  0.15860000(0)  0.34140000(0)  0.28500
 H19_17  H 1.0  0.15860000(0)  0.65860000(0)  0.38260000(0)  0.28500
 H19_18  H 1.0  0.65860000(0)  0.61740000(0)  0.84140000(0)  0.28500
 H19_19  H 1.0  0.61740000(0)  0.84140000(0)  0.65860000(0)  0.28500
 H19_20  H 1.0  0.15860000(0)  0.34140000(0)  0.61740000(0)  0.28500
 H19_21  H 1.0  0.65860000(0)  0.38260000(0)  0.15860000(0)  0.28500
 H19_22  H 1.0  0.61740000(0)  0.84140000(0)  0.34140000(0)  0.28500
 H19_23  H 1.0  0.15860000(0)  0.34140000(0)  0.38260000(0)  0.28500
 H19_24  H 1.0  0.65860000(0)  0.38260000(0)  0.84140000(0)  0.28500
 H19_25  H 1.0  0.84140000(0)  0.38260000(0)  0.34140000(0)  0.28500
 H19_26  H 1.0  0.34140000(0)  0.84140000(0)  0.38260000(0)  0.28500
 H19_27  H 1.0  0.38260000(0)  0.34140000(0)  0.84140000(0)  0.28500
 H19_28  H 1.0  0.84140000(0)  0.38260000(0)  0.65860000(0)  0.28500
 H19_29  H 1.0  0.34140000(0)  0.84140000(0)  0.61740000(0)  0.28500
 H19_30  H 1.0  0.38260000(0)  0.34140000(0)  0.15860000(0)  0.28500
 H19_31  H 1.0  0.15860000(0)  0.38260000(0)  0.34140000(0)  0.28500
 H19_32  H 1.0  0.65860000(0)  0.84140000(0)  0.38260000(0)  0.28500
 H19_33  H 1.0  0.61740000(0)  0.34140000(0)  0.84140000(0)  0.28500
 H19_34  H 1.0  0.15860000(0)  0.38260000(0)  0.65860000(0)  0.28500
 H19_35  H 1.0  0.65860000(0)  0.84140000(0)  0.61740000(0)  0.28500
 H19_36  H 1.0  0.61740000(0)  0.34140000(0)  0.15860000(0)  0.28500
 H19_37  H 1.0  0.38260000(0)  0.84140000(0)  0.34140000(0)  0.28500
 H19_38  H 1.0  0.84140000(0)  0.34140000(0)  0.38260000(0)  0.28500
 H19_39  H 1.0  0.34140000(0)  0.38260000(0)  0.84140000(0)  0.28500
 H19_40  H 1.0  0.38260000(0)  0.84140000(0)  0.65860000(0)  0.28500
 H19_41  H 1.0  0.84140000(0)  0.34140000(0)  0.61740000(0)  0.28500
 H19_42  H 1.0  0.34140000(0)  0.38260000(0)  0.15860000(0)  0.28500
 H19_43  H 1.0  0.38260000(0)  0.15860000(0)  0.34140000(0)  0.28500
 H19_44  H 1.0  0.84140000(0)  0.65860000(0)  0.38260000(0)  0.28500
 H19_45  H 1.0  0.34140000(0)  0.61740000(0)  0.84140000(0)  0.28500
 H19_46  H 1.0  0.38260000(0)  0.15860000(0)  0.65860000(0)  0.28500
 H19_47  H 1.0  0.84140000(0)  0.65860000(0)  0.61740000(0)  0.28500
 H19_48  H 1.0  0.34140000(0)  0.61740000(0)  0.15860000(0)  0.28500
 H19_49  H 1.0  0.15860000(0)  0.11740000(0)  0.15860000(0)  0.28500
 H19_50  H 1.0  0.65860000(0)  0.11740000(0)  0.65860000(0)  0.28500
 H19_51  H 1.0  0.65860000(0)  0.65860000(0)  0.11740000(0)  0.28500
 H19_52  H 1.0  0.15860000(0)  0.15860000(0)  0.11740000(0)  0.28500
 H19_53  H 1.0  0.11740000(0)  0.15860000(0)  0.15860000(0)  0.28500
 H19_54  H 1.0  0.11740000(0)  0.65860000(0)  0.65860000(0)  0.28500
 H19_55  H 1.0  0.15860000(0)  0.11740000(0)  0.84140000(0)  0.28500
 H19_56  H 1.0  0.65860000(0)  0.11740000(0)  0.34140000(0)  0.28500
 H19_57  H 1.0  0.65860000(0)  0.65860000(0)  0.88260000(0)  0.28500
 H19_58  H 1.0  0.15860000(0)  0.15860000(0)  0.88260000(0)  0.28500
 H19_59  H 1.0  0.11740000(0)  0.15860000(0)  0.84140000(0)  0.28500
 H19_60  H 1.0  0.11740000(0)  0.65860000(0)  0.34140000(0)  0.28500
 H19_61  H 1.0  0.84140000(0)  0.11740000(0)  0.15860000(0)  0.28500
 H19_62  H 1.0  0.34140000(0)  0.11740000(0)  0.65860000(0)  0.28500
 H19_63  H 1.0  0.34140000(0)  0.65860000(0)  0.11740000(0)  0.28500
 H19_64  H 1.0  0.84140000(0)  0.15860000(0)  0.11740000(0)  0.28500
 H19_65  H 1.0  0.88260000(0)  0.15860000(0)  0.15860000(0)  0.28500
 H19_66  H 1.0  0.88260000(0)  0.65860000(0)  0.65860000(0)  0.28500
 H19_67  H 1.0  0.84140000(0)  0.11740000(0)  0.84140000(0)  0.28500
 H19_68  H 1.0  0.34140000(0)  0.11740000(0)  0.34140000(0)  0.28500
 H19_69  H 1.0  0.34140000(0)  0.65860000(0)  0.88260000(0)  0.28500
 H19_70  H 1.0  0.84140000(0)  0.15860000(0)  0.88260000(0)  0.28500
 H19_71  H 1.0  0.88260000(0)  0.15860000(0)  0.84140000(0)  0.28500
 H19_72  H 1.0  0.88260000(0)  0.65860000(0)  0.34140000(0)  0.28500
 H19_73  H 1.0  0.11740000(0)  0.34140000(0)  0.65860000(0)  0.28500
 H19_74  H 1.0  0.11740000(0)  0.84140000(0)  0.15860000(0)  0.28500
 H19_75  H 1.0  0.15860000(0)  0.84140000(0)  0.11740000(0)  0.28500
 H19_76  H 1.0  0.65860000(0)  0.34140000(0)  0.11740000(0)  0.28500
 H19_77  H 1.0  0.65860000(0)  0.88260000(0)  0.65860000(0)  0.28500
 H19_78  H 1.0  0.15860000(0)  0.88260000(0)  0.15860000(0)  0.28500
 H19_79  H 1.0  0.11740000(0)  0.34140000(0)  0.34140000(0)  0.28500
 H19_80  H 1.0  0.11740000(0)  0.84140000(0)  0.84140000(0)  0.28500
 H19_81  H 1.0  0.15860000(0)  0.84140000(0)  0.88260000(0)  0.28500
 H19_82  H 1.0  0.65860000(0)  0.34140000(0)  0.88260000(0)  0.28500
 H19_83  H 1.0  0.65860000(0)  0.88260000(0)  0.34140000(0)  0.28500
 H19_84  H 1.0  0.15860000(0)  0.88260000(0)  0.84140000(0)  0.28500
 H19_85  H 1.0  0.84140000(0)  0.88260000(0)  0.84140000(0)  0.28500
 H19_86  H 1.0  0.34140000(0)  0.88260000(0)  0.34140000(0)  0.28500
 H19_87  H 1.0  0.34140000(0)  0.34140000(0)  0.88260000(0)  0.28500
 H19_88  H 1.0  0.84140000(0)  0.84140000(0)  0.88260000(0)  0.28500
 H19_89  H 1.0  0.88260000(0)  0.84140000(0)  0.84140000(0)  0.28500
 H19_90  H 1.0  0.88260000(0)  0.34140000(0)  0.34140000(0)  0.28500
 H19_91  H 1.0  0.84140000(0)  0.88260000(0)  0.15860000(0)  0.28500
 H19_92  H 1.0  0.34140000(0)  0.88260000(0)  0.65860000(0)  0.28500
 H19_93  H 1.0  0.34140000(0)  0.34140000(0)  0.11740000(0)  0.28500
 H19_94  H 1.0  0.84140000(0)  0.84140000(0)  0.11740000(0)  0.28500
 H19_95  H 1.0  0.88260000(0)  0.84140000(0)  0.15860000(0)  0.28500
 H19_96  H 1.0  0.88260000(0)  0.34140000(0)  0.65860000(0)  0.28500
 O1  O 1.0  0.38180000(30000)  0.59310000(40000)  0.51740000(30000)  0.21100
 O1_2  O 1.0  0.51740000(30000)  0.38180000(40000)  0.59310000(30000)  0.21100
 O1_3  O 1.0  0.59310000(30000)  0.51740000(40000)  0.38180000(30000)  0.21100
 O1_4  O 1.0  0.38180000(30000)  0.59310000(40000)  0.48260000(30000)  0.21100
 O1_5  O 1.0  0.51740000(30000)  0.38180000(40000)  0.40690000(30000)  0.21100
 O1_6  O 1.0  0.59310000(30000)  0.51740000(40000)  0.61820000(30000)  0.21100
 O1_7  O 1.0  0.61820000(30000)  0.59310000(40000)  0.51740000(30000)  0.21100
 O1_8  O 1.0  0.48260000(30000)  0.38180000(40000)  0.59310000(30000)  0.21100
 O1_9  O 1.0  0.40690000(30000)  0.51740000(40000)  0.38180000(30000)  0.21100
 O1_10  O 1.0  0.61820000(30000)  0.59310000(40000)  0.48260000(30000)  0.21100
 O1_11  O 1.0  0.48260000(30000)  0.38180000(40000)  0.40690000(30000)  0.21100
 O1_12  O 1.0  0.40690000(30000)  0.51740000(40000)  0.61820000(30000)  0.21100
 O1_13  O 1.0  0.59310000(30000)  0.38180000(40000)  0.51740000(30000)  0.21100
 O1_14  O 1.0  0.38180000(30000)  0.51740000(40000)  0.59310000(30000)  0.21100
 O1_15  O 1.0  0.51740000(30000)  0.59310000(40000)  0.38180000(30000)  0.21100
 O1_16  O 1.0  0.59310000(30000)  0.38180000(40000)  0.48260000(30000)  0.21100
 O1_17  O 1.0  0.38180000(30000)  0.51740000(40000)  0.40690000(30000)  0.21100
 O1_18  O 1.0  0.51740000(30000)  0.59310000(40000)  0.61820000(30000)  0.21100
 O1_19  O 1.0  0.59310000(30000)  0.61820000(40000)  0.51740000(30000)  0.21100
 O1_20  O 1.0  0.38180000(30000)  0.48260000(40000)  0.59310000(30000)  0.21100
 O1_21  O 1.0  0.51740000(30000)  0.40690000(40000)  0.38180000(30000)  0.21100
 O1_22  O 1.0  0.59310000(30000)  0.61820000(40000)  0.48260000(30000)  0.21100
 O1_23  O 1.0  0.38180000(30000)  0.48260000(40000)  0.40690000(30000)  0.21100
 O1_24  O 1.0  0.51740000(30000)  0.40690000(40000)  0.61820000(30000)  0.21100
 O1_25  O 1.0  0.61820000(30000)  0.40690000(40000)  0.48260000(30000)  0.21100
 O1_26  O 1.0  0.48260000(30000)  0.61820000(40000)  0.40690000(30000)  0.21100
 O1_27  O 1.0  0.40690000(30000)  0.48260000(40000)  0.61820000(30000)  0.21100
 O1_28  O 1.0  0.61820000(30000)  0.40690000(40000)  0.51740000(30000)  0.21100
 O1_29  O 1.0  0.48260000(30000)  0.61820000(40000)  0.59310000(30000)  0.21100
 O1_30  O 1.0  0.40690000(30000)  0.48260000(40000)  0.38180000(30000)  0.21100
 O1_31  O 1.0  0.38180000(30000)  0.40690000(40000)  0.48260000(30000)  0.21100
 O1_32  O 1.0  0.51740000(30000)  0.61820000(40000)  0.40690000(30000)  0.21100
 O1_33  O 1.0  0.59310000(30000)  0.48260000(40000)  0.61820000(30000)  0.21100
 O1_34  O 1.0  0.38180000(30000)  0.40690000(40000)  0.51740000(30000)  0.21100
 O1_35  O 1.0  0.51740000(30000)  0.61820000(40000)  0.59310000(30000)  0.21100
 O1_36  O 1.0  0.59310000(30000)  0.48260000(40000)  0.38180000(30000)  0.21100
 O1_37  O 1.0  0.40690000(30000)  0.61820000(40000)  0.48260000(30000)  0.21100
 O1_38  O 1.0  0.61820000(30000)  0.48260000(40000)  0.40690000(30000)  0.21100
 O1_39  O 1.0  0.48260000(30000)  0.40690000(40000)  0.61820000(30000)  0.21100
 O1_40  O 1.0  0.40690000(30000)  0.61820000(40000)  0.51740000(30000)  0.21100
 O1_41  O 1.0  0.61820000(30000)  0.48260000(40000)  0.59310000(30000)  0.21100
 O1_42  O 1.0  0.48260000(30000)  0.40690000(40000)  0.38180000(30000)  0.21100
 O1_43  O 1.0  0.40690000(30000)  0.38180000(40000)  0.48260000(30000)  0.21100
 O1_44  O 1.0  0.61820000(30000)  0.51740000(40000)  0.40690000(30000)  0.21100
 O1_45  O 1.0  0.48260000(30000)  0.59310000(40000)  0.61820000(30000)  0.21100
 O1_46  O 1.0  0.40690000(30000)  0.38180000(40000)  0.51740000(30000)  0.21100
 O1_47  O 1.0  0.61820000(30000)  0.51740000(40000)  0.59310000(30000)  0.21100
 O1_48  O 1.0  0.48260000(30000)  0.59310000(40000)  0.38180000(30000)  0.21100
 O1_49  O 1.0  0.38180000(30000)  0.09310000(40000)  0.01740000(30000)  0.21100
 O1_50  O 1.0  0.88180000(30000)  0.09310000(40000)  0.51740000(30000)  0.21100
 O1_51  O 1.0  0.88180000(30000)  0.59310000(40000)  0.01740000(30000)  0.21100
 O1_52  O 1.0  0.51740000(30000)  0.88180000(40000)  0.09310000(30000)  0.21100
 O1_53  O 1.0  0.01740000(30000)  0.88180000(40000)  0.59310000(30000)  0.21100
 O1_54  O 1.0  0.01740000(30000)  0.38180000(40000)  0.09310000(30000)  0.21100
 O1_55  O 1.0  0.59310000(30000)  0.01740000(40000)  0.88180000(30000)  0.21100
 O1_56  O 1.0  0.09310000(30000)  0.01740000(40000)  0.38180000(30000)  0.21100
 O1_57  O 1.0  0.09310000(30000)  0.51740000(40000)  0.88180000(30000)  0.21100
 O1_58  O 1.0  0.38180000(30000)  0.09310000(40000)  0.98260000(30000)  0.21100
 O1_59  O 1.0  0.88180000(30000)  0.09310000(40000)  0.48260000(30000)  0.21100
 O1_60  O 1.0  0.88180000(30000)  0.59310000(40000)  0.98260000(30000)  0.21100
 O1_61  O 1.0  0.51740000(30000)  0.88180000(40000)  0.90690000(30000)  0.21100
 O1_62  O 1.0  0.01740000(30000)  0.88180000(40000)  0.40690000(30000)  0.21100
 O1_63  O 1.0  0.01740000(30000)  0.38180000(40000)  0.90690000(30000)  0.21100
 O1_64  O 1.0  0.59310000(30000)  0.01740000(40000)  0.11820000(30000)  0.21100
 O1_65  O 1.0  0.09310000(30000)  0.01740000(40000)  0.61820000(30000)  0.21100
 O1_66  O 1.0  0.09310000(30000)  0.51740000(40000)  0.11820000(30000)  0.21100
 O1_67  O 1.0  0.61820000(30000)  0.09310000(40000)  0.01740000(30000)  0.21100
 O1_68  O 1.0  0.11820000(30000)  0.09310000(40000)  0.51740000(30000)  0.21100
 O1_69  O 1.0  0.11820000(30000)  0.59310000(40000)  0.01740000(30000)  0.21100
 O1_70  O 1.0  0.48260000(30000)  0.88180000(40000)  0.09310000(30000)  0.21100
 O1_71  O 1.0  0.98260000(30000)  0.88180000(40000)  0.59310000(30000)  0.21100
 O1_72  O 1.0  0.98260000(30000)  0.38180000(40000)  0.09310000(30000)  0.21100
 O1_73  O 1.0  0.40690000(30000)  0.01740000(40000)  0.88180000(30000)  0.21100
 O1_74  O 1.0  0.90690000(30000)  0.01740000(40000)  0.38180000(30000)  0.21100
 O1_75  O 1.0  0.90690000(30000)  0.51740000(40000)  0.88180000(30000)  0.21100
 O1_76  O 1.0  0.61820000(30000)  0.09310000(40000)  0.98260000(30000)  0.21100
 O1_77  O 1.0  0.11820000(30000)  0.09310000(40000)  0.48260000(30000)  0.21100
 O1_78  O 1.0  0.11820000(30000)  0.59310000(40000)  0.98260000(30000)  0.21100
 O1_79  O 1.0  0.48260000(30000)  0.88180000(40000)  0.90690000(30000)  0.21100
 O1_80  O 1.0  0.98260000(30000)  0.88180000(40000)  0.40690000(30000)  0.21100
 O1_81  O 1.0  0.98260000(30000)  0.38180000(40000)  0.90690000(30000)  0.21100
 O1_82  O 1.0  0.40690000(30000)  0.01740000(40000)  0.11820000(30000)  0.21100
 O1_83  O 1.0  0.90690000(30000)  0.01740000(40000)  0.61820000(30000)  0.21100
 O1_84  O 1.0  0.90690000(30000)  0.51740000(40000)  0.11820000(30000)  0.21100
 O1_85  O 1.0  0.59310000(30000)  0.88180000(40000)  0.01740000(30000)  0.21100
 O1_86  O 1.0  0.09310000(30000)  0.88180000(40000)  0.51740000(30000)  0.21100
 O1_87  O 1.0  0.09310000(30000)  0.38180000(40000)  0.01740000(30000)  0.21100
 O1_88  O 1.0  0.38180000(30000)  0.01740000(40000)  0.09310000(30000)  0.21100
 O1_89  O 1.0  0.88180000(30000)  0.01740000(40000)  0.59310000(30000)  0.21100
 O1_90  O 1.0  0.88180000(30000)  0.51740000(40000)  0.09310000(30000)  0.21100
 O1_91  O 1.0  0.51740000(30000)  0.09310000(40000)  0.88180000(30000)  0.21100
 O1_92  O 1.0  0.01740000(30000)  0.09310000(40000)  0.38180000(30000)  0.21100
 O1_93  O 1.0  0.01740000(30000)  0.59310000(40000)  0.88180000(30000)  0.21100
 O1_94  O 1.0  0.59310000(30000)  0.88180000(40000)  0.98260000(30000)  0.21100
 O1_95  O 1.0  0.09310000(30000)  0.88180000(40000)  0.48260000(30000)  0.21100
 O1_96  O 1.0  0.09310000(30000)  0.38180000(40000)  0.98260000(30000)  0.21100
 O1_97  O 1.0  0.38180000(30000)  0.01740000(40000)  0.90690000(30000)  0.21100
 O1_98  O 1.0  0.88180000(30000)  0.01740000(40000)  0.40690000(30000)  0.21100
 O1_99  O 1.0  0.88180000(30000)  0.51740000(40000)  0.90690000(30000)  0.21100
 O1_100  O 1.0  0.51740000(30000)  0.09310000(40000)  0.11820000(30000)  0.21100
 O1_101  O 1.0  0.01740000(30000)  0.09310000(40000)  0.61820000(30000)  0.21100
 O1_102  O 1.0  0.01740000(30000)  0.59310000(40000)  0.11820000(30000)  0.21100
 O1_103  O 1.0  0.59310000(30000)  0.11820000(40000)  0.01740000(30000)  0.21100
 O1_104  O 1.0  0.09310000(30000)  0.11820000(40000)  0.51740000(30000)  0.21100
 O1_105  O 1.0  0.09310000(30000)  0.61820000(40000)  0.01740000(30000)  0.21100
 O1_106  O 1.0  0.38180000(30000)  0.98260000(40000)  0.09310000(30000)  0.21100
 O1_107  O 1.0  0.88180000(30000)  0.98260000(40000)  0.59310000(30000)  0.21100
 O1_108  O 1.0  0.88180000(30000)  0.48260000(40000)  0.09310000(30000)  0.21100
 O1_109  O 1.0  0.51740000(30000)  0.90690000(40000)  0.88180000(30000)  0.21100
 O1_110  O 1.0  0.01740000(30000)  0.90690000(40000)  0.38180000(30000)  0.21100
 O1_111  O 1.0  0.01740000(30000)  0.40690000(40000)  0.88180000(30000)  0.21100
 O1_112  O 1.0  0.59310000(30000)  0.11820000(40000)  0.98260000(30000)  0.21100
 O1_113  O 1.0  0.09310000(30000)  0.11820000(40000)  0.48260000(30000)  0.21100
 O1_114  O 1.0  0.09310000(30000)  0.61820000(40000)  0.98260000(30000)  0.21100
 O1_115  O 1.0  0.38180000(30000)  0.98260000(40000)  0.90690000(30000)  0.21100
 O1_116  O 1.0  0.88180000(30000)  0.98260000(40000)  0.40690000(30000)  0.21100
 O1_117  O 1.0  0.88180000(30000)  0.48260000(40000)  0.90690000(30000)  0.21100
 O1_118  O 1.0  0.51740000(30000)  0.90690000(40000)  0.11820000(30000)  0.21100
 O1_119  O 1.0  0.01740000(30000)  0.90690000(40000)  0.61820000(30000)  0.21100
 O1_120  O 1.0  0.01740000(30000)  0.40690000(40000)  0.11820000(30000)  0.21100
 O1_121  O 1.0  0.61820000(30000)  0.90690000(40000)  0.98260000(30000)  0.21100
 O1_122  O 1.0  0.11820000(30000)  0.90690000(40000)  0.48260000(30000)  0.21100
 O1_123  O 1.0  0.11820000(30000)  0.40690000(40000)  0.98260000(30000)  0.21100
 O1_124  O 1.0  0.48260000(30000)  0.11820000(40000)  0.90690000(30000)  0.21100
 O1_125  O 1.0  0.98260000(30000)  0.11820000(40000)  0.40690000(30000)  0.21100
 O1_126  O 1.0  0.98260000(30000)  0.61820000(40000)  0.90690000(30000)  0.21100
 O1_127  O 1.0  0.40690000(30000)  0.98260000(40000)  0.11820000(30000)  0.21100
 O1_128  O 1.0  0.90690000(30000)  0.98260000(40000)  0.61820000(30000)  0.21100
 O1_129  O 1.0  0.90690000(30000)  0.48260000(40000)  0.11820000(30000)  0.21100
 O1_130  O 1.0  0.61820000(30000)  0.90690000(40000)  0.01740000(30000)  0.21100
 O1_131  O 1.0  0.11820000(30000)  0.90690000(40000)  0.51740000(30000)  0.21100
 O1_132  O 1.0  0.11820000(30000)  0.40690000(40000)  0.01740000(30000)  0.21100
 O1_133  O 1.0  0.48260000(30000)  0.11820000(40000)  0.09310000(30000)  0.21100
 O1_134  O 1.0  0.98260000(30000)  0.11820000(40000)  0.59310000(30000)  0.21100
 O1_135  O 1.0  0.98260000(30000)  0.61820000(40000)  0.09310000(30000)  0.21100
 O1_136  O 1.0  0.40690000(30000)  0.98260000(40000)  0.88180000(30000)  0.21100
 O1_137  O 1.0  0.90690000(30000)  0.98260000(40000)  0.38180000(30000)  0.21100
 O1_138  O 1.0  0.90690000(30000)  0.48260000(40000)  0.88180000(30000)  0.21100
 O1_139  O 1.0  0.38180000(30000)  0.90690000(40000)  0.98260000(30000)  0.21100
 O1_140  O 1.0  0.88180000(30000)  0.90690000(40000)  0.48260000(30000)  0.21100
 O1_141  O 1.0  0.88180000(30000)  0.40690000(40000)  0.98260000(30000)  0.21100
 O1_142  O 1.0  0.51740000(30000)  0.11820000(40000)  0.90690000(30000)  0.21100
 O1_143  O 1.0  0.01740000(30000)  0.11820000(40000)  0.40690000(30000)  0.21100
 O1_144  O 1.0  0.01740000(30000)  0.61820000(40000)  0.90690000(30000)  0.21100
 O1_145  O 1.0  0.59310000(30000)  0.98260000(40000)  0.11820000(30000)  0.21100
 O1_146  O 1.0  0.09310000(30000)  0.98260000(40000)  0.61820000(30000)  0.21100
 O1_147  O 1.0  0.09310000(30000)  0.48260000(40000)  0.11820000(30000)  0.21100
 O1_148  O 1.0  0.38180000(30000)  0.90690000(40000)  0.01740000(30000)  0.21100
 O1_149  O 1.0  0.88180000(30000)  0.90690000(40000)  0.51740000(30000)  0.21100
 O1_150  O 1.0  0.88180000(30000)  0.40690000(40000)  0.01740000(30000)  0.21100
 O1_151  O 1.0  0.51740000(30000)  0.11820000(40000)  0.09310000(30000)  0.21100
 O1_152  O 1.0  0.01740000(30000)  0.11820000(40000)  0.59310000(30000)  0.21100
 O1_153  O 1.0  0.01740000(30000)  0.61820000(40000)  0.09310000(30000)  0.21100
 O1_154  O 1.0  0.59310000(30000)  0.98260000(40000)  0.88180000(30000)  0.21100
 O1_155  O 1.0  0.09310000(30000)  0.98260000(40000)  0.38180000(30000)  0.21100
 O1_156  O 1.0  0.09310000(30000)  0.48260000(40000)  0.88180000(30000)  0.21100
 O1_157  O 1.0  0.40690000(30000)  0.11820000(40000)  0.98260000(30000)  0.21100
 O1_158  O 1.0  0.90690000(30000)  0.11820000(40000)  0.48260000(30000)  0.21100
 O1_159  O 1.0  0.90690000(30000)  0.61820000(40000)  0.98260000(30000)  0.21100
 O1_160  O 1.0  0.61820000(30000)  0.98260000(40000)  0.90690000(30000)  0.21100
 O1_161  O 1.0  0.11820000(30000)  0.98260000(40000)  0.40690000(30000)  0.21100
 O1_162  O 1.0  0.11820000(30000)  0.48260000(40000)  0.90690000(30000)  0.21100
 O1_163  O 1.0  0.48260000(30000)  0.90690000(40000)  0.11820000(30000)  0.21100
 O1_164  O 1.0  0.98260000(30000)  0.90690000(40000)  0.61820000(30000)  0.21100
 O1_165  O 1.0  0.98260000(30000)  0.40690000(40000)  0.11820000(30000)  0.21100
 O1_166  O 1.0  0.40690000(30000)  0.11820000(40000)  0.01740000(30000)  0.21100
 O1_167  O 1.0  0.90690000(30000)  0.11820000(40000)  0.51740000(30000)  0.21100
 O1_168  O 1.0  0.90690000(30000)  0.61820000(40000)  0.01740000(30000)  0.21100
 O1_169  O 1.0  0.61820000(30000)  0.98260000(40000)  0.09310000(30000)  0.21100
 O1_170  O 1.0  0.11820000(30000)  0.98260000(40000)  0.59310000(30000)  0.21100
 O1_171  O 1.0  0.11820000(30000)  0.48260000(40000)  0.09310000(30000)  0.21100
 O1_172  O 1.0  0.48260000(30000)  0.90690000(40000)  0.88180000(30000)  0.21100
 O1_173  O 1.0  0.98260000(30000)  0.90690000(40000)  0.38180000(30000)  0.21100
 O1_174  O 1.0  0.98260000(30000)  0.40690000(40000)  0.88180000(30000)  0.21100
 O1_175  O 1.0  0.40690000(30000)  0.88180000(40000)  0.98260000(30000)  0.21100
 O1_176  O 1.0  0.90690000(30000)  0.88180000(40000)  0.48260000(30000)  0.21100
 O1_177  O 1.0  0.90690000(30000)  0.38180000(40000)  0.98260000(30000)  0.21100
 O1_178  O 1.0  0.61820000(30000)  0.01740000(40000)  0.90690000(30000)  0.21100
 O1_179  O 1.0  0.11820000(30000)  0.01740000(40000)  0.40690000(30000)  0.21100
 O1_180  O 1.0  0.11820000(30000)  0.51740000(40000)  0.90690000(30000)  0.21100
 O1_181  O 1.0  0.48260000(30000)  0.09310000(40000)  0.11820000(30000)  0.21100
 O1_182  O 1.0  0.98260000(30000)  0.09310000(40000)  0.61820000(30000)  0.21100
 O1_183  O 1.0  0.98260000(30000)  0.59310000(40000)  0.11820000(30000)  0.21100
 O1_184  O 1.0  0.40690000(30000)  0.88180000(40000)  0.01740000(30000)  0.21100
 O1_185  O 1.0  0.90690000(30000)  0.88180000(40000)  0.51740000(30000)  0.21100
 O1_186  O 1.0  0.90690000(30000)  0.38180000(40000)  0.01740000(30000)  0.21100
 O1_187  O 1.0  0.61820000(30000)  0.01740000(40000)  0.09310000(30000)  0.21100
 O1_188  O 1.0  0.11820000(30000)  0.01740000(40000)  0.59310000(30000)  0.21100
 O1_189  O 1.0  0.11820000(30000)  0.51740000(40000)  0.09310000(30000)  0.21100
 O1_190  O 1.0  0.48260000(30000)  0.09310000(40000)  0.88180000(30000)  0.21100
 O1_191  O 1.0  0.98260000(30000)  0.09310000(40000)  0.38180000(30000)  0.21100
 O1_192  O 1.0  0.98260000(30000)  0.59310000(40000)  0.88180000(30000)  0.21100
 O2  O 1.0  0.40510000(40000)  0.56950000(30000)  0.51740000(30000)  0.21133
 O2_2  O 1.0  0.51740000(40000)  0.40510000(30000)  0.56950000(30000)  0.21133
 O2_3  O 1.0  0.56950000(40000)  0.51740000(30000)  0.40510000(30000)  0.21133
 O2_4  O 1.0  0.40510000(40000)  0.56950000(30000)  0.48260000(30000)  0.21133
 O2_5  O 1.0  0.51740000(40000)  0.40510000(30000)  0.43050000(30000)  0.21133
 O2_6  O 1.0  0.56950000(40000)  0.51740000(30000)  0.59490000(30000)  0.21133
 O2_7  O 1.0  0.59490000(40000)  0.56950000(30000)  0.51740000(30000)  0.21133
 O2_8  O 1.0  0.48260000(40000)  0.40510000(30000)  0.56950000(30000)  0.21133
 O2_9  O 1.0  0.43050000(40000)  0.51740000(30000)  0.40510000(30000)  0.21133
 O2_10  O 1.0  0.59490000(40000)  0.56950000(30000)  0.48260000(30000)  0.21133
 O2_11  O 1.0  0.48260000(40000)  0.40510000(30000)  0.43050000(30000)  0.21133
 O2_12  O 1.0  0.43050000(40000)  0.51740000(30000)  0.59490000(30000)  0.21133
 O2_13  O 1.0  0.56950000(40000)  0.40510000(30000)  0.51740000(30000)  0.21133
 O2_14  O 1.0  0.40510000(40000)  0.51740000(30000)  0.56950000(30000)  0.21133
 O2_15  O 1.0  0.51740000(40000)  0.56950000(30000)  0.40510000(30000)  0.21133
 O2_16  O 1.0  0.56950000(40000)  0.40510000(30000)  0.48260000(30000)  0.21133
 O2_17  O 1.0  0.40510000(40000)  0.51740000(30000)  0.43050000(30000)  0.21133
 O2_18  O 1.0  0.51740000(40000)  0.56950000(30000)  0.59490000(30000)  0.21133
 O2_19  O 1.0  0.56950000(40000)  0.59490000(30000)  0.51740000(30000)  0.21133
 O2_20  O 1.0  0.40510000(40000)  0.48260000(30000)  0.56950000(30000)  0.21133
 O2_21  O 1.0  0.51740000(40000)  0.43050000(30000)  0.40510000(30000)  0.21133
 O2_22  O 1.0  0.56950000(40000)  0.59490000(30000)  0.48260000(30000)  0.21133
 O2_23  O 1.0  0.40510000(40000)  0.48260000(30000)  0.43050000(30000)  0.21133
 O2_24  O 1.0  0.51740000(40000)  0.43050000(30000)  0.59490000(30000)  0.21133
 O2_25  O 1.0  0.59490000(40000)  0.43050000(30000)  0.48260000(30000)  0.21133
 O2_26  O 1.0  0.48260000(40000)  0.59490000(30000)  0.43050000(30000)  0.21133
 O2_27  O 1.0  0.43050000(40000)  0.48260000(30000)  0.59490000(30000)  0.21133
 O2_28  O 1.0  0.59490000(40000)  0.43050000(30000)  0.51740000(30000)  0.21133
 O2_29  O 1.0  0.48260000(40000)  0.59490000(30000)  0.56950000(30000)  0.21133
 O2_30  O 1.0  0.43050000(40000)  0.48260000(30000)  0.40510000(30000)  0.21133
 O2_31  O 1.0  0.40510000(40000)  0.43050000(30000)  0.48260000(30000)  0.21133
 O2_32  O 1.0  0.51740000(40000)  0.59490000(30000)  0.43050000(30000)  0.21133
 O2_33  O 1.0  0.56950000(40000)  0.48260000(30000)  0.59490000(30000)  0.21133
 O2_34  O 1.0  0.40510000(40000)  0.43050000(30000)  0.51740000(30000)  0.21133
 O2_35  O 1.0  0.51740000(40000)  0.59490000(30000)  0.56950000(30000)  0.21133
 O2_36  O 1.0  0.56950000(40000)  0.48260000(30000)  0.40510000(30000)  0.21133
 O2_37  O 1.0  0.43050000(40000)  0.59490000(30000)  0.48260000(30000)  0.21133
 O2_38  O 1.0  0.59490000(40000)  0.48260000(30000)  0.43050000(30000)  0.21133
 O2_39  O 1.0  0.48260000(40000)  0.43050000(30000)  0.59490000(30000)  0.21133
 O2_40  O 1.0  0.43050000(40000)  0.59490000(30000)  0.51740000(30000)  0.21133
 O2_41  O 1.0  0.59490000(40000)  0.48260000(30000)  0.56950000(30000)  0.21133
 O2_42  O 1.0  0.48260000(40000)  0.43050000(30000)  0.40510000(30000)  0.21133
 O2_43  O 1.0  0.43050000(40000)  0.40510000(30000)  0.48260000(30000)  0.21133
 O2_44  O 1.0  0.59490000(40000)  0.51740000(30000)  0.43050000(30000)  0.21133
 O2_45  O 1.0  0.48260000(40000)  0.56950000(30000)  0.59490000(30000)  0.21133
 O2_46  O 1.0  0.43050000(40000)  0.40510000(30000)  0.51740000(30000)  0.21133
 O2_47  O 1.0  0.59490000(40000)  0.51740000(30000)  0.56950000(30000)  0.21133
 O2_48  O 1.0  0.48260000(40000)  0.56950000(30000)  0.40510000(30000)  0.21133
 O2_49  O 1.0  0.40510000(40000)  0.06950000(30000)  0.01740000(30000)  0.21133
 O2_50  O 1.0  0.90510000(40000)  0.06950000(30000)  0.51740000(30000)  0.21133
 O2_51  O 1.0  0.90510000(40000)  0.56950000(30000)  0.01740000(30000)  0.21133
 O2_52  O 1.0  0.51740000(40000)  0.90510000(30000)  0.06950000(30000)  0.21133
 O2_53  O 1.0  0.01740000(40000)  0.90510000(30000)  0.56950000(30000)  0.21133
 O2_54  O 1.0  0.01740000(40000)  0.40510000(30000)  0.06950000(30000)  0.21133
 O2_55  O 1.0  0.56950000(40000)  0.01740000(30000)  0.90510000(30000)  0.21133
 O2_56  O 1.0  0.06950000(40000)  0.01740000(30000)  0.40510000(30000)  0.21133
 O2_57  O 1.0  0.06950000(40000)  0.51740000(30000)  0.90510000(30000)  0.21133
 O2_58  O 1.0  0.40510000(40000)  0.06950000(30000)  0.98260000(30000)  0.21133
 O2_59  O 1.0  0.90510000(40000)  0.06950000(30000)  0.48260000(30000)  0.21133
 O2_60  O 1.0  0.90510000(40000)  0.56950000(30000)  0.98260000(30000)  0.21133
 O2_61  O 1.0  0.51740000(40000)  0.90510000(30000)  0.93050000(30000)  0.21133
 O2_62  O 1.0  0.01740000(40000)  0.90510000(30000)  0.43050000(30000)  0.21133
 O2_63  O 1.0  0.01740000(40000)  0.40510000(30000)  0.93050000(30000)  0.21133
 O2_64  O 1.0  0.56950000(40000)  0.01740000(30000)  0.09490000(30000)  0.21133
 O2_65  O 1.0  0.06950000(40000)  0.01740000(30000)  0.59490000(30000)  0.21133
 O2_66  O 1.0  0.06950000(40000)  0.51740000(30000)  0.09490000(30000)  0.21133
 O2_67  O 1.0  0.59490000(40000)  0.06950000(30000)  0.01740000(30000)  0.21133
 O2_68  O 1.0  0.09490000(40000)  0.06950000(30000)  0.51740000(30000)  0.21133
 O2_69  O 1.0  0.09490000(40000)  0.56950000(30000)  0.01740000(30000)  0.21133
 O2_70  O 1.0  0.48260000(40000)  0.90510000(30000)  0.06950000(30000)  0.21133
 O2_71  O 1.0  0.98260000(40000)  0.90510000(30000)  0.56950000(30000)  0.21133
 O2_72  O 1.0  0.98260000(40000)  0.40510000(30000)  0.06950000(30000)  0.21133
 O2_73  O 1.0  0.43050000(40000)  0.01740000(30000)  0.90510000(30000)  0.21133
 O2_74  O 1.0  0.93050000(40000)  0.01740000(30000)  0.40510000(30000)  0.21133
 O2_75  O 1.0  0.93050000(40000)  0.51740000(30000)  0.90510000(30000)  0.21133
 O2_76  O 1.0  0.59490000(40000)  0.06950000(30000)  0.98260000(30000)  0.21133
 O2_77  O 1.0  0.09490000(40000)  0.06950000(30000)  0.48260000(30000)  0.21133
 O2_78  O 1.0  0.09490000(40000)  0.56950000(30000)  0.98260000(30000)  0.21133
 O2_79  O 1.0  0.48260000(40000)  0.90510000(30000)  0.93050000(30000)  0.21133
 O2_80  O 1.0  0.98260000(40000)  0.90510000(30000)  0.43050000(30000)  0.21133
 O2_81  O 1.0  0.98260000(40000)  0.40510000(30000)  0.93050000(30000)  0.21133
 O2_82  O 1.0  0.43050000(40000)  0.01740000(30000)  0.09490000(30000)  0.21133
 O2_83  O 1.0  0.93050000(40000)  0.01740000(30000)  0.59490000(30000)  0.21133
 O2_84  O 1.0  0.93050000(40000)  0.51740000(30000)  0.09490000(30000)  0.21133
 O2_85  O 1.0  0.56950000(40000)  0.90510000(30000)  0.01740000(30000)  0.21133
 O2_86  O 1.0  0.06950000(40000)  0.90510000(30000)  0.51740000(30000)  0.21133
 O2_87  O 1.0  0.06950000(40000)  0.40510000(30000)  0.01740000(30000)  0.21133
 O2_88  O 1.0  0.40510000(40000)  0.01740000(30000)  0.06950000(30000)  0.21133
 O2_89  O 1.0  0.90510000(40000)  0.01740000(30000)  0.56950000(30000)  0.21133
 O2_90  O 1.0  0.90510000(40000)  0.51740000(30000)  0.06950000(30000)  0.21133
 O2_91  O 1.0  0.51740000(40000)  0.06950000(30000)  0.90510000(30000)  0.21133
 O2_92  O 1.0  0.01740000(40000)  0.06950000(30000)  0.40510000(30000)  0.21133
 O2_93  O 1.0  0.01740000(40000)  0.56950000(30000)  0.90510000(30000)  0.21133
 O2_94  O 1.0  0.56950000(40000)  0.90510000(30000)  0.98260000(30000)  0.21133
 O2_95  O 1.0  0.06950000(40000)  0.90510000(30000)  0.48260000(30000)  0.21133
 O2_96  O 1.0  0.06950000(40000)  0.40510000(30000)  0.98260000(30000)  0.21133
 O2_97  O 1.0  0.40510000(40000)  0.01740000(30000)  0.93050000(30000)  0.21133
 O2_98  O 1.0  0.90510000(40000)  0.01740000(30000)  0.43050000(30000)  0.21133
 O2_99  O 1.0  0.90510000(40000)  0.51740000(30000)  0.93050000(30000)  0.21133
 O2_100  O 1.0  0.51740000(40000)  0.06950000(30000)  0.09490000(30000)  0.21133
 O2_101  O 1.0  0.01740000(40000)  0.06950000(30000)  0.59490000(30000)  0.21133
 O2_102  O 1.0  0.01740000(40000)  0.56950000(30000)  0.09490000(30000)  0.21133
 O2_103  O 1.0  0.56950000(40000)  0.09490000(30000)  0.01740000(30000)  0.21133
 O2_104  O 1.0  0.06950000(40000)  0.09490000(30000)  0.51740000(30000)  0.21133
 O2_105  O 1.0  0.06950000(40000)  0.59490000(30000)  0.01740000(30000)  0.21133
 O2_106  O 1.0  0.40510000(40000)  0.98260000(30000)  0.06950000(30000)  0.21133
 O2_107  O 1.0  0.90510000(40000)  0.98260000(30000)  0.56950000(30000)  0.21133
 O2_108  O 1.0  0.90510000(40000)  0.48260000(30000)  0.06950000(30000)  0.21133
 O2_109  O 1.0  0.51740000(40000)  0.93050000(30000)  0.90510000(30000)  0.21133
 O2_110  O 1.0  0.01740000(40000)  0.93050000(30000)  0.40510000(30000)  0.21133
 O2_111  O 1.0  0.01740000(40000)  0.43050000(30000)  0.90510000(30000)  0.21133
 O2_112  O 1.0  0.56950000(40000)  0.09490000(30000)  0.98260000(30000)  0.21133
 O2_113  O 1.0  0.06950000(40000)  0.09490000(30000)  0.48260000(30000)  0.21133
 O2_114  O 1.0  0.06950000(40000)  0.59490000(30000)  0.98260000(30000)  0.21133
 O2_115  O 1.0  0.40510000(40000)  0.98260000(30000)  0.93050000(30000)  0.21133
 O2_116  O 1.0  0.90510000(40000)  0.98260000(30000)  0.43050000(30000)  0.21133
 O2_117  O 1.0  0.90510000(40000)  0.48260000(30000)  0.93050000(30000)  0.21133
 O2_118  O 1.0  0.51740000(40000)  0.93050000(30000)  0.09490000(30000)  0.21133
 O2_119  O 1.0  0.01740000(40000)  0.93050000(30000)  0.59490000(30000)  0.21133
 O2_120  O 1.0  0.01740000(40000)  0.43050000(30000)  0.09490000(30000)  0.21133
 O2_121  O 1.0  0.59490000(40000)  0.93050000(30000)  0.98260000(30000)  0.21133
 O2_122  O 1.0  0.09490000(40000)  0.93050000(30000)  0.48260000(30000)  0.21133
 O2_123  O 1.0  0.09490000(40000)  0.43050000(30000)  0.98260000(30000)  0.21133
 O2_124  O 1.0  0.48260000(40000)  0.09490000(30000)  0.93050000(30000)  0.21133
 O2_125  O 1.0  0.98260000(40000)  0.09490000(30000)  0.43050000(30000)  0.21133
 O2_126  O 1.0  0.98260000(40000)  0.59490000(30000)  0.93050000(30000)  0.21133
 O2_127  O 1.0  0.43050000(40000)  0.98260000(30000)  0.09490000(30000)  0.21133
 O2_128  O 1.0  0.93050000(40000)  0.98260000(30000)  0.59490000(30000)  0.21133
 O2_129  O 1.0  0.93050000(40000)  0.48260000(30000)  0.09490000(30000)  0.21133
 O2_130  O 1.0  0.59490000(40000)  0.93050000(30000)  0.01740000(30000)  0.21133
 O2_131  O 1.0  0.09490000(40000)  0.93050000(30000)  0.51740000(30000)  0.21133
 O2_132  O 1.0  0.09490000(40000)  0.43050000(30000)  0.01740000(30000)  0.21133
 O2_133  O 1.0  0.48260000(40000)  0.09490000(30000)  0.06950000(30000)  0.21133
 O2_134  O 1.0  0.98260000(40000)  0.09490000(30000)  0.56950000(30000)  0.21133
 O2_135  O 1.0  0.98260000(40000)  0.59490000(30000)  0.06950000(30000)  0.21133
 O2_136  O 1.0  0.43050000(40000)  0.98260000(30000)  0.90510000(30000)  0.21133
 O2_137  O 1.0  0.93050000(40000)  0.98260000(30000)  0.40510000(30000)  0.21133
 O2_138  O 1.0  0.93050000(40000)  0.48260000(30000)  0.90510000(30000)  0.21133
 O2_139  O 1.0  0.40510000(40000)  0.93050000(30000)  0.98260000(30000)  0.21133
 O2_140  O 1.0  0.90510000(40000)  0.93050000(30000)  0.48260000(30000)  0.21133
 O2_141  O 1.0  0.90510000(40000)  0.43050000(30000)  0.98260000(30000)  0.21133
 O2_142  O 1.0  0.51740000(40000)  0.09490000(30000)  0.93050000(30000)  0.21133
 O2_143  O 1.0  0.01740000(40000)  0.09490000(30000)  0.43050000(30000)  0.21133
 O2_144  O 1.0  0.01740000(40000)  0.59490000(30000)  0.93050000(30000)  0.21133
 O2_145  O 1.0  0.56950000(40000)  0.98260000(30000)  0.09490000(30000)  0.21133
 O2_146  O 1.0  0.06950000(40000)  0.98260000(30000)  0.59490000(30000)  0.21133
 O2_147  O 1.0  0.06950000(40000)  0.48260000(30000)  0.09490000(30000)  0.21133
 O2_148  O 1.0  0.40510000(40000)  0.93050000(30000)  0.01740000(30000)  0.21133
 O2_149  O 1.0  0.90510000(40000)  0.93050000(30000)  0.51740000(30000)  0.21133
 O2_150  O 1.0  0.90510000(40000)  0.43050000(30000)  0.01740000(30000)  0.21133
 O2_151  O 1.0  0.51740000(40000)  0.09490000(30000)  0.06950000(30000)  0.21133
 O2_152  O 1.0  0.01740000(40000)  0.09490000(30000)  0.56950000(30000)  0.21133
 O2_153  O 1.0  0.01740000(40000)  0.59490000(30000)  0.06950000(30000)  0.21133
 O2_154  O 1.0  0.56950000(40000)  0.98260000(30000)  0.90510000(30000)  0.21133
 O2_155  O 1.0  0.06950000(40000)  0.98260000(30000)  0.40510000(30000)  0.21133
 O2_156  O 1.0  0.06950000(40000)  0.48260000(30000)  0.90510000(30000)  0.21133
 O2_157  O 1.0  0.43050000(40000)  0.09490000(30000)  0.98260000(30000)  0.21133
 O2_158  O 1.0  0.93050000(40000)  0.09490000(30000)  0.48260000(30000)  0.21133
 O2_159  O 1.0  0.93050000(40000)  0.59490000(30000)  0.98260000(30000)  0.21133
 O2_160  O 1.0  0.59490000(40000)  0.98260000(30000)  0.93050000(30000)  0.21133
 O2_161  O 1.0  0.09490000(40000)  0.98260000(30000)  0.43050000(30000)  0.21133
 O2_162  O 1.0  0.09490000(40000)  0.48260000(30000)  0.93050000(30000)  0.21133
 O2_163  O 1.0  0.48260000(40000)  0.93050000(30000)  0.09490000(30000)  0.21133
 O2_164  O 1.0  0.98260000(40000)  0.93050000(30000)  0.59490000(30000)  0.21133
 O2_165  O 1.0  0.98260000(40000)  0.43050000(30000)  0.09490000(30000)  0.21133
 O2_166  O 1.0  0.43050000(40000)  0.09490000(30000)  0.01740000(30000)  0.21133
 O2_167  O 1.0  0.93050000(40000)  0.09490000(30000)  0.51740000(30000)  0.21133
 O2_168  O 1.0  0.93050000(40000)  0.59490000(30000)  0.01740000(30000)  0.21133
 O2_169  O 1.0  0.59490000(40000)  0.98260000(30000)  0.06950000(30000)  0.21133
 O2_170  O 1.0  0.09490000(40000)  0.98260000(30000)  0.56950000(30000)  0.21133
 O2_171  O 1.0  0.09490000(40000)  0.48260000(30000)  0.06950000(30000)  0.21133
 O2_172  O 1.0  0.48260000(40000)  0.93050000(30000)  0.90510000(30000)  0.21133
 O2_173  O 1.0  0.98260000(40000)  0.93050000(30000)  0.40510000(30000)  0.21133
 O2_174  O 1.0  0.98260000(40000)  0.43050000(30000)  0.90510000(30000)  0.21133
 O2_175  O 1.0  0.43050000(40000)  0.90510000(30000)  0.98260000(30000)  0.21133
 O2_176  O 1.0  0.93050000(40000)  0.90510000(30000)  0.48260000(30000)  0.21133
 O2_177  O 1.0  0.93050000(40000)  0.40510000(30000)  0.98260000(30000)  0.21133
 O2_178  O 1.0  0.59490000(40000)  0.01740000(30000)  0.93050000(30000)  0.21133
 O2_179  O 1.0  0.09490000(40000)  0.01740000(30000)  0.43050000(30000)  0.21133
 O2_180  O 1.0  0.09490000(40000)  0.51740000(30000)  0.93050000(30000)  0.21133
 O2_181  O 1.0  0.48260000(40000)  0.06950000(30000)  0.09490000(30000)  0.21133
 O2_182  O 1.0  0.98260000(40000)  0.06950000(30000)  0.59490000(30000)  0.21133
 O2_183  O 1.0  0.98260000(40000)  0.56950000(30000)  0.09490000(30000)  0.21133
 O2_184  O 1.0  0.43050000(40000)  0.90510000(30000)  0.01740000(30000)  0.21133
 O2_185  O 1.0  0.93050000(40000)  0.90510000(30000)  0.51740000(30000)  0.21133
 O2_186  O 1.0  0.93050000(40000)  0.40510000(30000)  0.01740000(30000)  0.21133
 O2_187  O 1.0  0.59490000(40000)  0.01740000(30000)  0.06950000(30000)  0.21133
 O2_188  O 1.0  0.09490000(40000)  0.01740000(30000)  0.56950000(30000)  0.21133
 O2_189  O 1.0  0.09490000(40000)  0.51740000(30000)  0.06950000(30000)  0.21133
 O2_190  O 1.0  0.48260000(40000)  0.06950000(30000)  0.90510000(30000)  0.21133
 O2_191  O 1.0  0.98260000(40000)  0.06950000(30000)  0.40510000(30000)  0.21133
 O2_192  O 1.0  0.98260000(40000)  0.56950000(30000)  0.90510000(30000)  0.21133

loop_
_atom_site_aniso_label
_atom_site_aniso_U_11
_atom_site_aniso_U_22
_atom_site_aniso_U_33
_atom_site_aniso_U_23
_atom_site_aniso_U_13
_atom_site_aniso_U_12
C1   0.25500 0.19200 0.18200 0.00300 0.03800 0.01000
C1_2   0.25500 0.19200 0.18200 0.00300 0.03800 0.01000
C1_3   0.25500 0.19200 0.18200 0.00300 0.03800 0.01000
C1_4   0.25500 0.19200 0.18200 0.00300 0.03800 0.01000
C1_5   0.25500 0.19200 0.18200 0.00300 0.03800 0.01000
C1_6   0.25500 0.19200 0.18200 0.00300 0.03800 0.01000
C1_7   0.25500 0.19200 0.18200 0.00300 0.03800 0.01000
C1_8   0.25500 0.19200 0.18200 0.00300 0.03800 0.01000
C1_9   0.25500 0.19200 0.18200 0.00300 0.03800 0.01000
C1_10   0.25500 0.19200 0.18200 0.00300 0.03800 0.01000
C1_11   0.25500 0.19200 0.18200 0.00300 0.03800 0.01000
C1_12   0.25500 0.19200 0.18200 0.00300 0.03800 0.01000
C1_13   0.25500 0.19200 0.18200 0.00300 0.03800 0.01000
C1_14   0.25500 0.19200 0.18200 0.00300 0.03800 0.01000
C1_15   0.25500 0.19200 0.18200 0.00300 0.03800 0.01000
C1_16   0.25500 0.19200 0.18200 0.00300 0.03800 0.01000
C1_17   0.25500 0.19200 0.18200 0.00300 0.03800 0.01000
C1_18   0.25500 0.19200 0.18200 0.00300 0.03800 0.01000
C1_19   0.25500 0.19200 0.18200 0.00300 0.03800 0.01000
C1_20   0.25500 0.19200 0.18200 0.00300 0.03800 0.01000
C1_21   0.25500 0.19200 0.18200 0.00300 0.03800 0.01000
C1_22   0.25500 0.19200 0.18200 0.00300 0.03800 0.01000
C1_23   0.25500 0.19200 0.18200 0.00300 0.03800 0.01000
C1_24   0.25500 0.19200 0.18200 0.00300 0.03800 0.01000
C1_25   0.25500 0.19200 0.18200 0.00300 0.03800 0.01000
C1_26   0.25500 0.19200 0.18200 0.00300 0.03800 0.01000
C1_27   0.25500 0.19200 0.18200 0.00300 0.03800 0.01000
C1_28   0.25500 0.19200 0.18200 0.00300 0.03800 0.01000
C1_29   0.25500 0.19200 0.18200 0.00300 0.03800 0.01000
C1_30   0.25500 0.19200 0.18200 0.00300 0.03800 0.01000
C1_31   0.25500 0.19200 0.18200 0.00300 0.03800 0.01000
C1_32   0.25500 0.19200 0.18200 0.00300 0.03800 0.01000
C1_33   0.25500 0.19200 0.18200 0.00300 0.03800 0.01000
C1_34   0.25500 0.19200 0.18200 0.00300 0.03800 0.01000
C1_35   0.25500 0.19200 0.18200 0.00300 0.03800 0.01000
C1_36   0.25500 0.19200 0.18200 0.00300 0.03800 0.01000
C1_37   0.25500 0.19200 0.18200 0.00300 0.03800 0.01000
C1_38   0.25500 0.19200 0.18200 0.00300 0.03800 0.01000
C1_39   0.25500 0.19200 0.18200 0.00300 0.03800 0.01000
C1_40   0.25500 0.19200 0.18200 0.00300 0.03800 0.01000
C1_41   0.25500 0.19200 0.18200 0.00300 0.03800 0.01000
C1_42   0.25500 0.19200 0.18200 0.00300 0.03800 0.01000
C1_43   0.25500 0.19200 0.18200 0.00300 0.03800 0.01000
C1_44   0.25500 0.19200 0.18200 0.00300 0.03800 0.01000
C1_45   0.25500 0.19200 0.18200 0.00300 0.03800 0.01000
C1_46   0.25500 0.19200 0.18200 0.00300 0.03800 0.01000
C1_47   0.25500 0.19200 0.18200 0.00300 0.03800 0.01000
C1_48   0.25500 0.19200 0.18200 0.00300 0.03800 0.01000
C1_49   0.25500 0.19200 0.18200 0.00300 0.03800 0.01000
C1_50   0.25500 0.19200 0.18200 0.00300 0.03800 0.01000
C1_51   0.25500 0.19200 0.18200 0.00300 0.03800 0.01000
C1_52   0.25500 0.19200 0.18200 0.00300 0.03800 0.01000
C1_53   0.25500 0.19200 0.18200 0.00300 0.03800 0.01000
C1_54   0.25500 0.19200 0.18200 0.00300 0.03800 0.01000
C1_55   0.25500 0.19200 0.18200 0.00300 0.03800 0.01000
C1_56   0.25500 0.19200 0.18200 0.00300 0.03800 0.01000
C1_57   0.25500 0.19200 0.18200 0.00300 0.03800 0.01000
C1_58   0.25500 0.19200 0.18200 0.00300 0.03800 0.01000
C1_59   0.25500 0.19200 0.18200 0.00300 0.03800 0.01000
C1_60   0.25500 0.19200 0.18200 0.00300 0.03800 0.01000
C1_61   0.25500 0.19200 0.18200 0.00300 0.03800 0.01000
C1_62   0.25500 0.19200 0.18200 0.00300 0.03800 0.01000
C1_63   0.25500 0.19200 0.18200 0.00300 0.03800 0.01000
C1_64   0.25500 0.19200 0.18200 0.00300 0.03800 0.01000
C1_65   0.25500 0.19200 0.18200 0.00300 0.03800 0.01000
C1_66   0.25500 0.19200 0.18200 0.00300 0.03800 0.01000
C1_67   0.25500 0.19200 0.18200 0.00300 0.03800 0.01000
C1_68   0.25500 0.19200 0.18200 0.00300 0.03800 0.01000
C1_69   0.25500 0.19200 0.18200 0.00300 0.03800 0.01000
C1_70   0.25500 0.19200 0.18200 0.00300 0.03800 0.01000
C1_71   0.25500 0.19200 0.18200 0.00300 0.03800 0.01000
C1_72   0.25500 0.19200 0.18200 0.00300 0.03800 0.01000
C1_73   0.25500 0.19200 0.18200 0.00300 0.03800 0.01000
C1_74   0.25500 0.19200 0.18200 0.00300 0.03800 0.01000
C1_75   0.25500 0.19200 0.18200 0.00300 0.03800 0.01000
C1_76   0.25500 0.19200 0.18200 0.00300 0.03800 0.01000
C1_77   0.25500 0.19200 0.18200 0.00300 0.03800 0.01000
C1_78   0.25500 0.19200 0.18200 0.00300 0.03800 0.01000
C1_79   0.25500 0.19200 0.18200 0.00300 0.03800 0.01000
C1_80   0.25500 0.19200 0.18200 0.00300 0.03800 0.01000
C1_81   0.25500 0.19200 0.18200 0.00300 0.03800 0.01000
C1_82   0.25500 0.19200 0.18200 0.00300 0.03800 0.01000
C1_83   0.25500 0.19200 0.18200 0.00300 0.03800 0.01000
C1_84   0.25500 0.19200 0.18200 0.00300 0.03800 0.01000
C1_85   0.25500 0.19200 0.18200 0.00300 0.03800 0.01000
C1_86   0.25500 0.19200 0.18200 0.00300 0.03800 0.01000
C1_87   0.25500 0.19200 0.18200 0.00300 0.03800 0.01000
C1_88   0.25500 0.19200 0.18200 0.00300 0.03800 0.01000
C1_89   0.25500 0.19200 0.18200 0.00300 0.03800 0.01000
C1_90   0.25500 0.19200 0.18200 0.00300 0.03800 0.01000
C1_91   0.25500 0.19200 0.18200 0.00300 0.03800 0.01000
C1_92   0.25500 0.19200 0.18200 0.00300 0.03800 0.01000
C1_93   0.25500 0.19200 0.18200 0.00300 0.03800 0.01000
C1_94   0.25500 0.19200 0.18200 0.00300 0.03800 0.01000
C1_95   0.25500 0.19200 0.18200 0.00300 0.03800 0.01000
C1_96   0.25500 0.19200 0.18200 0.00300 0.03800 0.01000
C1_97   0.25500 0.19200 0.18200 0.00300 0.03800 0.01000
C1_98   0.25500 0.19200 0.18200 0.00300 0.03800 0.01000
C1_99   0.25500 0.19200 0.18200 0.00300 0.03800 0.01000
C1_100   0.25500 0.19200 0.18200 0.00300 0.03800 0.01000
C1_101   0.25500 0.19200 0.18200 0.00300 0.03800 0.01000
C1_102   0.25500 0.19200 0.18200 0.00300 0.03800 0.01000
C1_103   0.25500 0.19200 0.18200 0.00300 0.03800 0.01000
C1_104   0.25500 0.19200 0.18200 0.00300 0.03800 0.01000
C1_105   0.25500 0.19200 0.18200 0.00300 0.03800 0.01000
C1_106   0.25500 0.19200 0.18200 0.00300 0.03800 0.01000
C1_107   0.25500 0.19200 0.18200 0.00300 0.03800 0.01000
C1_108   0.25500 0.19200 0.18200 0.00300 0.03800 0.01000
C1_109   0.25500 0.19200 0.18200 0.00300 0.03800 0.01000
C1_110   0.25500 0.19200 0.18200 0.00300 0.03800 0.01000
C1_111   0.25500 0.19200 0.18200 0.00300 0.03800 0.01000
C1_112   0.25500 0.19200 0.18200 0.00300 0.03800 0.01000
C1_113   0.25500 0.19200 0.18200 0.00300 0.03800 0.01000
C1_114   0.25500 0.19200 0.18200 0.00300 0.03800 0.01000
C1_115   0.25500 0.19200 0.18200 0.00300 0.03800 0.01000
C1_116   0.25500 0.19200 0.18200 0.00300 0.03800 0.01000
C1_117   0.25500 0.19200 0.18200 0.00300 0.03800 0.01000
C1_118   0.25500 0.19200 0.18200 0.00300 0.03800 0.01000
C1_119   0.25500 0.19200 0.18200 0.00300 0.03800 0.01000
C1_120   0.25500 0.19200 0.18200 0.00300 0.03800 0.01000
C1_121   0.25500 0.19200 0.18200 0.00300 0.03800 0.01000
C1_122   0.25500 0.19200 0.18200 0.00300 0.03800 0.01000
C1_123   0.25500 0.19200 0.18200 0.00300 0.03800 0.01000
C1_124   0.25500 0.19200 0.18200 0.00300 0.03800 0.01000
C1_125   0.25500 0.19200 0.18200 0.00300 0.03800 0.01000
C1_126   0.25500 0.19200 0.18200 0.00300 0.03800 0.01000
C1_127   0.25500 0.19200 0.18200 0.00300 0.03800 0.01000
C1_128   0.25500 0.19200 0.18200 0.00300 0.03800 0.01000
C1_129   0.25500 0.19200 0.18200 0.00300 0.03800 0.01000
C1_130   0.25500 0.19200 0.18200 0.00300 0.03800 0.01000
C1_131   0.25500 0.19200 0.18200 0.00300 0.03800 0.01000
C1_132   0.25500 0.19200 0.18200 0.00300 0.03800 0.01000
C1_133   0.25500 0.19200 0.18200 0.00300 0.03800 0.01000
C1_134   0.25500 0.19200 0.18200 0.00300 0.03800 0.01000
C1_135   0.25500 0.19200 0.18200 0.00300 0.03800 0.01000
C1_136   0.25500 0.19200 0.18200 0.00300 0.03800 0.01000
C1_137   0.25500 0.19200 0.18200 0.00300 0.03800 0.01000
C1_138   0.25500 0.19200 0.18200 0.00300 0.03800 0.01000
C1_139   0.25500 0.19200 0.18200 0.00300 0.03800 0.01000
C1_140   0.25500 0.19200 0.18200 0.00300 0.03800 0.01000
C1_141   0.25500 0.19200 0.18200 0.00300 0.03800 0.01000
C1_142   0.25500 0.19200 0.18200 0.00300 0.03800 0.01000
C1_143   0.25500 0.19200 0.18200 0.00300 0.03800 0.01000
C1_144   0.25500 0.19200 0.18200 0.00300 0.03800 0.01000
C1_145   0.25500 0.19200 0.18200 0.00300 0.03800 0.01000
C1_146   0.25500 0.19200 0.18200 0.00300 0.03800 0.01000
C1_147   0.25500 0.19200 0.18200 0.00300 0.03800 0.01000
C1_148   0.25500 0.19200 0.18200 0.00300 0.03800 0.01000
C1_149   0.25500 0.19200 0.18200 0.00300 0.03800 0.01000
C1_150   0.25500 0.19200 0.18200 0.00300 0.03800 0.01000
C1_151   0.25500 0.19200 0.18200 0.00300 0.03800 0.01000
C1_152   0.25500 0.19200 0.18200 0.00300 0.03800 0.01000
C1_153   0.25500 0.19200 0.18200 0.00300 0.03800 0.01000
C1_154   0.25500 0.19200 0.18200 0.00300 0.03800 0.01000
C1_155   0.25500 0.19200 0.18200 0.00300 0.03800 0.01000
C1_156   0.25500 0.19200 0.18200 0.00300 0.03800 0.01000
C1_157   0.25500 0.19200 0.18200 0.00300 0.03800 0.01000
C1_158   0.25500 0.19200 0.18200 0.00300 0.03800 0.01000
C1_159   0.25500 0.19200 0.18200 0.00300 0.03800 0.01000
C1_160   0.25500 0.19200 0.18200 0.00300 0.03800 0.01000
C1_161   0.25500 0.19200 0.18200 0.00300 0.03800 0.01000
C1_162   0.25500 0.19200 0.18200 0.00300 0.03800 0.01000
C1_163   0.25500 0.19200 0.18200 0.00300 0.03800 0.01000
C1_164   0.25500 0.19200 0.18200 0.00300 0.03800 0.01000
C1_165   0.25500 0.19200 0.18200 0.00300 0.03800 0.01000
C1_166   0.25500 0.19200 0.18200 0.00300 0.03800 0.01000
C1_167   0.25500 0.19200 0.18200 0.00300 0.03800 0.01000
C1_168   0.25500 0.19200 0.18200 0.00300 0.03800 0.01000
C1_169   0.25500 0.19200 0.18200 0.00300 0.03800 0.01000
C1_170   0.25500 0.19200 0.18200 0.00300 0.03800 0.01000
C1_171   0.25500 0.19200 0.18200 0.00300 0.03800 0.01000
C1_172   0.25500 0.19200 0.18200 0.00300 0.03800 0.01000
C1_173   0.25500 0.19200 0.18200 0.00300 0.03800 0.01000
C1_174   0.25500 0.19200 0.18200 0.00300 0.03800 0.01000
C1_175   0.25500 0.19200 0.18200 0.00300 0.03800 0.01000
C1_176   0.25500 0.19200 0.18200 0.00300 0.03800 0.01000
C1_177   0.25500 0.19200 0.18200 0.00300 0.03800 0.01000
C1_178   0.25500 0.19200 0.18200 0.00300 0.03800 0.01000
C1_179   0.25500 0.19200 0.18200 0.00300 0.03800 0.01000
C1_180   0.25500 0.19200 0.18200 0.00300 0.03800 0.01000
C1_181   0.25500 0.19200 0.18200 0.00300 0.03800 0.01000
C1_182   0.25500 0.19200 0.18200 0.00300 0.03800 0.01000
C1_183   0.25500 0.19200 0.18200 0.00300 0.03800 0.01000
C1_184   0.25500 0.19200 0.18200 0.00300 0.03800 0.01000
C1_185   0.25500 0.19200 0.18200 0.00300 0.03800 0.01000
C1_186   0.25500 0.19200 0.18200 0.00300 0.03800 0.01000
C1_187   0.25500 0.19200 0.18200 0.00300 0.03800 0.01000
C1_188   0.25500 0.19200 0.18200 0.00300 0.03800 0.01000
C1_189   0.25500 0.19200 0.18200 0.00300 0.03800 0.01000
C1_190   0.25500 0.19200 0.18200 0.00300 0.03800 0.01000
C1_191   0.25500 0.19200 0.18200 0.00300 0.03800 0.01000
C1_192   0.25500 0.19200 0.18200 0.00300 0.03800 0.01000
C2   0.24100 0.18200 0.18200 0.00500 0.03800 0.02500
C2_2   0.24100 0.18200 0.18200 0.00500 0.03800 0.02500
C2_3   0.24100 0.18200 0.18200 0.00500 0.03800 0.02500
C2_4   0.24100 0.18200 0.18200 0.00500 0.03800 0.02500
C2_5   0.24100 0.18200 0.18200 0.00500 0.03800 0.02500
C2_6   0.24100 0.18200 0.18200 0.00500 0.03800 0.02500
C2_7   0.24100 0.18200 0.18200 0.00500 0.03800 0.02500
C2_8   0.24100 0.18200 0.18200 0.00500 0.03800 0.02500
C2_9   0.24100 0.18200 0.18200 0.00500 0.03800 0.02500
C2_10   0.24100 0.18200 0.18200 0.00500 0.03800 0.02500
C2_11   0.24100 0.18200 0.18200 0.00500 0.03800 0.02500
C2_12   0.24100 0.18200 0.18200 0.00500 0.03800 0.02500
C2_13   0.24100 0.18200 0.18200 0.00500 0.03800 0.02500
C2_14   0.24100 0.18200 0.18200 0.00500 0.03800 0.02500
C2_15   0.24100 0.18200 0.18200 0.00500 0.03800 0.02500
C2_16   0.24100 0.18200 0.18200 0.00500 0.03800 0.02500
C2_17   0.24100 0.18200 0.18200 0.00500 0.03800 0.02500
C2_18   0.24100 0.18200 0.18200 0.00500 0.03800 0.02500
C2_19   0.24100 0.18200 0.18200 0.00500 0.03800 0.02500
C2_20   0.24100 0.18200 0.18200 0.00500 0.03800 0.02500
C2_21   0.24100 0.18200 0.18200 0.00500 0.03800 0.02500
C2_22   0.24100 0.18200 0.18200 0.00500 0.03800 0.02500
C2_23   0.24100 0.18200 0.18200 0.00500 0.03800 0.02500
C2_24   0.24100 0.18200 0.18200 0.00500 0.03800 0.02500
C2_25   0.24100 0.18200 0.18200 0.00500 0.03800 0.02500
C2_26   0.24100 0.18200 0.18200 0.00500 0.03800 0.02500
C2_27   0.24100 0.18200 0.18200 0.00500 0.03800 0.02500
C2_28   0.24100 0.18200 0.18200 0.00500 0.03800 0.02500
C2_29   0.24100 0.18200 0.18200 0.00500 0.03800 0.02500
C2_30   0.24100 0.18200 0.18200 0.00500 0.03800 0.02500
C2_31   0.24100 0.18200 0.18200 0.00500 0.03800 0.02500
C2_32   0.24100 0.18200 0.18200 0.00500 0.03800 0.02500
C2_33   0.24100 0.18200 0.18200 0.00500 0.03800 0.02500
C2_34   0.24100 0.18200 0.18200 0.00500 0.03800 0.02500
C2_35   0.24100 0.18200 0.18200 0.00500 0.03800 0.02500
C2_36   0.24100 0.18200 0.18200 0.00500 0.03800 0.02500
C2_37   0.24100 0.18200 0.18200 0.00500 0.03800 0.02500
C2_38   0.24100 0.18200 0.18200 0.00500 0.03800 0.02500
C2_39   0.24100 0.18200 0.18200 0.00500 0.03800 0.02500
C2_40   0.24100 0.18200 0.18200 0.00500 0.03800 0.02500
C2_41   0.24100 0.18200 0.18200 0.00500 0.03800 0.02500
C2_42   0.24100 0.18200 0.18200 0.00500 0.03800 0.02500
C2_43   0.24100 0.18200 0.18200 0.00500 0.03800 0.02500
C2_44   0.24100 0.18200 0.18200 0.00500 0.03800 0.02500
C2_45   0.24100 0.18200 0.18200 0.00500 0.03800 0.02500
C2_46   0.24100 0.18200 0.18200 0.00500 0.03800 0.02500
C2_47   0.24100 0.18200 0.18200 0.00500 0.03800 0.02500
C2_48   0.24100 0.18200 0.18200 0.00500 0.03800 0.02500
C2_49   0.24100 0.18200 0.18200 0.00500 0.03800 0.02500
C2_50   0.24100 0.18200 0.18200 0.00500 0.03800 0.02500
C2_51   0.24100 0.18200 0.18200 0.00500 0.03800 0.02500
C2_52   0.24100 0.18200 0.18200 0.00500 0.03800 0.02500
C2_53   0.24100 0.18200 0.18200 0.00500 0.03800 0.02500
C2_54   0.24100 0.18200 0.18200 0.00500 0.03800 0.02500
C2_55   0.24100 0.18200 0.18200 0.00500 0.03800 0.02500
C2_56   0.24100 0.18200 0.18200 0.00500 0.03800 0.02500
C2_57   0.24100 0.18200 0.18200 0.00500 0.03800 0.02500
C2_58   0.24100 0.18200 0.18200 0.00500 0.03800 0.02500
C2_59   0.24100 0.18200 0.18200 0.00500 0.03800 0.02500
C2_60   0.24100 0.18200 0.18200 0.00500 0.03800 0.02500
C2_61   0.24100 0.18200 0.18200 0.00500 0.03800 0.02500
C2_62   0.24100 0.18200 0.18200 0.00500 0.03800 0.02500
C2_63   0.24100 0.18200 0.18200 0.00500 0.03800 0.02500
C2_64   0.24100 0.18200 0.18200 0.00500 0.03800 0.02500
C2_65   0.24100 0.18200 0.18200 0.00500 0.03800 0.02500
C2_66   0.24100 0.18200 0.18200 0.00500 0.03800 0.02500
C2_67   0.24100 0.18200 0.18200 0.00500 0.03800 0.02500
C2_68   0.24100 0.18200 0.18200 0.00500 0.03800 0.02500
C2_69   0.24100 0.18200 0.18200 0.00500 0.03800 0.02500
C2_70   0.24100 0.18200 0.18200 0.00500 0.03800 0.02500
C2_71   0.24100 0.18200 0.18200 0.00500 0.03800 0.02500
C2_72   0.24100 0.18200 0.18200 0.00500 0.03800 0.02500
C2_73   0.24100 0.18200 0.18200 0.00500 0.03800 0.02500
C2_74   0.24100 0.18200 0.18200 0.00500 0.03800 0.02500
C2_75   0.24100 0.18200 0.18200 0.00500 0.03800 0.02500
C2_76   0.24100 0.18200 0.18200 0.00500 0.03800 0.02500
C2_77   0.24100 0.18200 0.18200 0.00500 0.03800 0.02500
C2_78   0.24100 0.18200 0.18200 0.00500 0.03800 0.02500
C2_79   0.24100 0.18200 0.18200 0.00500 0.03800 0.02500
C2_80   0.24100 0.18200 0.18200 0.00500 0.03800 0.02500
C2_81   0.24100 0.18200 0.18200 0.00500 0.03800 0.02500
C2_82   0.24100 0.18200 0.18200 0.00500 0.03800 0.02500
C2_83   0.24100 0.18200 0.18200 0.00500 0.03800 0.02500
C2_84   0.24100 0.18200 0.18200 0.00500 0.03800 0.02500
C2_85   0.24100 0.18200 0.18200 0.00500 0.03800 0.02500
C2_86   0.24100 0.18200 0.18200 0.00500 0.03800 0.02500
C2_87   0.24100 0.18200 0.18200 0.00500 0.03800 0.02500
C2_88   0.24100 0.18200 0.18200 0.00500 0.03800 0.02500
C2_89   0.24100 0.18200 0.18200 0.00500 0.03800 0.02500
C2_90   0.24100 0.18200 0.18200 0.00500 0.03800 0.02500
C2_91   0.24100 0.18200 0.18200 0.00500 0.03800 0.02500
C2_92   0.24100 0.18200 0.18200 0.00500 0.03800 0.02500
C2_93   0.24100 0.18200 0.18200 0.00500 0.03800 0.02500
C2_94   0.24100 0.18200 0.18200 0.00500 0.03800 0.02500
C2_95   0.24100 0.18200 0.18200 0.00500 0.03800 0.02500
C2_96   0.24100 0.18200 0.18200 0.00500 0.03800 0.02500
C2_97   0.24100 0.18200 0.18200 0.00500 0.03800 0.02500
C2_98   0.24100 0.18200 0.18200 0.00500 0.03800 0.02500
C2_99   0.24100 0.18200 0.18200 0.00500 0.03800 0.02500
C2_100   0.24100 0.18200 0.18200 0.00500 0.03800 0.02500
C2_101   0.24100 0.18200 0.18200 0.00500 0.03800 0.02500
C2_102   0.24100 0.18200 0.18200 0.00500 0.03800 0.02500
C2_103   0.24100 0.18200 0.18200 0.00500 0.03800 0.02500
C2_104   0.24100 0.18200 0.18200 0.00500 0.03800 0.02500
C2_105   0.24100 0.18200 0.18200 0.00500 0.03800 0.02500
C2_106   0.24100 0.18200 0.18200 0.00500 0.03800 0.02500
C2_107   0.24100 0.18200 0.18200 0.00500 0.03800 0.02500
C2_108   0.24100 0.18200 0.18200 0.00500 0.03800 0.02500
C2_109   0.24100 0.18200 0.18200 0.00500 0.03800 0.02500
C2_110   0.24100 0.18200 0.18200 0.00500 0.03800 0.02500
C2_111   0.24100 0.18200 0.18200 0.00500 0.03800 0.02500
C2_112   0.24100 0.18200 0.18200 0.00500 0.03800 0.02500
C2_113   0.24100 0.18200 0.18200 0.00500 0.03800 0.02500
C2_114   0.24100 0.18200 0.18200 0.00500 0.03800 0.02500
C2_115   0.24100 0.18200 0.18200 0.00500 0.03800 0.02500
C2_116   0.24100 0.18200 0.18200 0.00500 0.03800 0.02500
C2_117   0.24100 0.18200 0.18200 0.00500 0.03800 0.02500
C2_118   0.24100 0.18200 0.18200 0.00500 0.03800 0.02500
C2_119   0.24100 0.18200 0.18200 0.00500 0.03800 0.02500
C2_120   0.24100 0.18200 0.18200 0.00500 0.03800 0.02500
C2_121   0.24100 0.18200 0.18200 0.00500 0.03800 0.02500
C2_122   0.24100 0.18200 0.18200 0.00500 0.03800 0.02500
C2_123   0.24100 0.18200 0.18200 0.00500 0.03800 0.02500
C2_124   0.24100 0.18200 0.18200 0.00500 0.03800 0.02500
C2_125   0.24100 0.18200 0.18200 0.00500 0.03800 0.02500
C2_126   0.24100 0.18200 0.18200 0.00500 0.03800 0.02500
C2_127   0.24100 0.18200 0.18200 0.00500 0.03800 0.02500
C2_128   0.24100 0.18200 0.18200 0.00500 0.03800 0.02500
C2_129   0.24100 0.18200 0.18200 0.00500 0.03800 0.02500
C2_130   0.24100 0.18200 0.18200 0.00500 0.03800 0.02500
C2_131   0.24100 0.18200 0.18200 0.00500 0.03800 0.02500
C2_132   0.24100 0.18200 0.18200 0.00500 0.03800 0.02500
C2_133   0.24100 0.18200 0.18200 0.00500 0.03800 0.02500
C2_134   0.24100 0.18200 0.18200 0.00500 0.03800 0.02500
C2_135   0.24100 0.18200 0.18200 0.00500 0.03800 0.02500
C2_136   0.24100 0.18200 0.18200 0.00500 0.03800 0.02500
C2_137   0.24100 0.18200 0.18200 0.00500 0.03800 0.02500
C2_138   0.24100 0.18200 0.18200 0.00500 0.03800 0.02500
C2_139   0.24100 0.18200 0.18200 0.00500 0.03800 0.02500
C2_140   0.24100 0.18200 0.18200 0.00500 0.03800 0.02500
C2_141   0.24100 0.18200 0.18200 0.00500 0.03800 0.02500
C2_142   0.24100 0.18200 0.18200 0.00500 0.03800 0.02500
C2_143   0.24100 0.18200 0.18200 0.00500 0.03800 0.02500
C2_144   0.24100 0.18200 0.18200 0.00500 0.03800 0.02500
C2_145   0.24100 0.18200 0.18200 0.00500 0.03800 0.02500
C2_146   0.24100 0.18200 0.18200 0.00500 0.03800 0.02500
C2_147   0.24100 0.18200 0.18200 0.00500 0.03800 0.02500
C2_148   0.24100 0.18200 0.18200 0.00500 0.03800 0.02500
C2_149   0.24100 0.18200 0.18200 0.00500 0.03800 0.02500
C2_150   0.24100 0.18200 0.18200 0.00500 0.03800 0.02500
C2_151   0.24100 0.18200 0.18200 0.00500 0.03800 0.02500
C2_152   0.24100 0.18200 0.18200 0.00500 0.03800 0.02500
C2_153   0.24100 0.18200 0.18200 0.00500 0.03800 0.02500
C2_154   0.24100 0.18200 0.18200 0.00500 0.03800 0.02500
C2_155   0.24100 0.18200 0.18200 0.00500 0.03800 0.02500
C2_156   0.24100 0.18200 0.18200 0.00500 0.03800 0.02500
C2_157   0.24100 0.18200 0.18200 0.00500 0.03800 0.02500
C2_158   0.24100 0.18200 0.18200 0.00500 0.03800 0.02500
C2_159   0.24100 0.18200 0.18200 0.00500 0.03800 0.02500
C2_160   0.24100 0.18200 0.18200 0.00500 0.03800 0.02500
C2_161   0.24100 0.18200 0.18200 0.00500 0.03800 0.02500
C2_162   0.24100 0.18200 0.18200 0.00500 0.03800 0.02500
C2_163   0.24100 0.18200 0.18200 0.00500 0.03800 0.02500
C2_164   0.24100 0.18200 0.18200 0.00500 0.03800 0.02500
C2_165   0.24100 0.18200 0.18200 0.00500 0.03800 0.02500
C2_166   0.24100 0.18200 0.18200 0.00500 0.03800 0.02500
C2_167   0.24100 0.18200 0.18200 0.00500 0.03800 0.02500
C2_168   0.24100 0.18200 0.18200 0.00500 0.03800 0.02500
C2_169   0.24100 0.18200 0.18200 0.00500 0.03800 0.02500
C2_170   0.24100 0.18200 0.18200 0.00500 0.03800 0.02500
C2_171   0.24100 0.18200 0.18200 0.00500 0.03800 0.02500
C2_172   0.24100 0.18200 0.18200 0.00500 0.03800 0.02500
C2_173   0.24100 0.18200 0.18200 0.00500 0.03800 0.02500
C2_174   0.24100 0.18200 0.18200 0.00500 0.03800 0.02500
C2_175   0.24100 0.18200 0.18200 0.00500 0.03800 0.02500
C2_176   0.24100 0.18200 0.18200 0.00500 0.03800 0.02500
C2_177   0.24100 0.18200 0.18200 0.00500 0.03800 0.02500
C2_178   0.24100 0.18200 0.18200 0.00500 0.03800 0.02500
C2_179   0.24100 0.18200 0.18200 0.00500 0.03800 0.02500
C2_180   0.24100 0.18200 0.18200 0.00500 0.03800 0.02500
C2_181   0.24100 0.18200 0.18200 0.00500 0.03800 0.02500
C2_182   0.24100 0.18200 0.18200 0.00500 0.03800 0.02500
C2_183   0.24100 0.18200 0.18200 0.00500 0.03800 0.02500
C2_184   0.24100 0.18200 0.18200 0.00500 0.03800 0.02500
C2_185   0.24100 0.18200 0.18200 0.00500 0.03800 0.02500
C2_186   0.24100 0.18200 0.18200 0.00500 0.03800 0.02500
C2_187   0.24100 0.18200 0.18200 0.00500 0.03800 0.02500
C2_188   0.24100 0.18200 0.18200 0.00500 0.03800 0.02500
C2_189   0.24100 0.18200 0.18200 0.00500 0.03800 0.02500
C2_190   0.24100 0.18200 0.18200 0.00500 0.03800 0.02500
C2_191   0.24100 0.18200 0.18200 0.00500 0.03800 0.02500
C2_192   0.24100 0.18200 0.18200 0.00500 0.03800 0.02500
C3   0.23700 0.18300 0.18300 0.00100 0.03000 0.03000
C3_2   0.23700 0.18300 0.18300 0.00100 0.03000 0.03000
C3_3   0.23700 0.18300 0.18300 0.00100 0.03000 0.03000
C3_4   0.23700 0.18300 0.18300 0.00100 0.03000 0.03000
C3_5   0.23700 0.18300 0.18300 0.00100 0.03000 0.03000
C3_6   0.23700 0.18300 0.18300 0.00100 0.03000 0.03000
C3_7   0.23700 0.18300 0.18300 0.00100 0.03000 0.03000
C3_8   0.23700 0.18300 0.18300 0.00100 0.03000 0.03000
C3_9   0.23700 0.18300 0.18300 0.00100 0.03000 0.03000
C3_10   0.23700 0.18300 0.18300 0.00100 0.03000 0.03000
C3_11   0.23700 0.18300 0.18300 0.00100 0.03000 0.03000
C3_12   0.23700 0.18300 0.18300 0.00100 0.03000 0.03000
C3_13   0.23700 0.18300 0.18300 0.00100 0.03000 0.03000
C3_14   0.23700 0.18300 0.18300 0.00100 0.03000 0.03000
C3_15   0.23700 0.18300 0.18300 0.00100 0.03000 0.03000
C3_16   0.23700 0.18300 0.18300 0.00100 0.03000 0.03000
C3_17   0.23700 0.18300 0.18300 0.00100 0.03000 0.03000
C3_18   0.23700 0.18300 0.18300 0.00100 0.03000 0.03000
C3_19   0.23700 0.18300 0.18300 0.00100 0.03000 0.03000
C3_20   0.23700 0.18300 0.18300 0.00100 0.03000 0.03000
C3_21   0.23700 0.18300 0.18300 0.00100 0.03000 0.03000
C3_22   0.23700 0.18300 0.18300 0.00100 0.03000 0.03000
C3_23   0.23700 0.18300 0.18300 0.00100 0.03000 0.03000
C3_24   0.23700 0.18300 0.18300 0.00100 0.03000 0.03000
C3_25   0.23700 0.18300 0.18300 0.00100 0.03000 0.03000
C3_26   0.23700 0.18300 0.18300 0.00100 0.03000 0.03000
C3_27   0.23700 0.18300 0.18300 0.00100 0.03000 0.03000
C3_28   0.23700 0.18300 0.18300 0.00100 0.03000 0.03000
C3_29   0.23700 0.18300 0.18300 0.00100 0.03000 0.03000
C3_30   0.23700 0.18300 0.18300 0.00100 0.03000 0.03000
C3_31   0.23700 0.18300 0.18300 0.00100 0.03000 0.03000
C3_32   0.23700 0.18300 0.18300 0.00100 0.03000 0.03000
C3_33   0.23700 0.18300 0.18300 0.00100 0.03000 0.03000
C3_34   0.23700 0.18300 0.18300 0.00100 0.03000 0.03000
C3_35   0.23700 0.18300 0.18300 0.00100 0.03000 0.03000
C3_36   0.23700 0.18300 0.18300 0.00100 0.03000 0.03000
C3_37   0.23700 0.18300 0.18300 0.00100 0.03000 0.03000
C3_38   0.23700 0.18300 0.18300 0.00100 0.03000 0.03000
C3_39   0.23700 0.18300 0.18300 0.00100 0.03000 0.03000
C3_40   0.23700 0.18300 0.18300 0.00100 0.03000 0.03000
C3_41   0.23700 0.18300 0.18300 0.00100 0.03000 0.03000
C3_42   0.23700 0.18300 0.18300 0.00100 0.03000 0.03000
C3_43   0.23700 0.18300 0.18300 0.00100 0.03000 0.03000
C3_44   0.23700 0.18300 0.18300 0.00100 0.03000 0.03000
C3_45   0.23700 0.18300 0.18300 0.00100 0.03000 0.03000
C3_46   0.23700 0.18300 0.18300 0.00100 0.03000 0.03000
C3_47   0.23700 0.18300 0.18300 0.00100 0.03000 0.03000
C3_48   0.23700 0.18300 0.18300 0.00100 0.03000 0.03000
C3_49   0.23700 0.18300 0.18300 0.00100 0.03000 0.03000
C3_50   0.23700 0.18300 0.18300 0.00100 0.03000 0.03000
C3_51   0.23700 0.18300 0.18300 0.00100 0.03000 0.03000
C3_52   0.23700 0.18300 0.18300 0.00100 0.03000 0.03000
C3_53   0.23700 0.18300 0.18300 0.00100 0.03000 0.03000
C3_54   0.23700 0.18300 0.18300 0.00100 0.03000 0.03000
C3_55   0.23700 0.18300 0.18300 0.00100 0.03000 0.03000
C3_56   0.23700 0.18300 0.18300 0.00100 0.03000 0.03000
C3_57   0.23700 0.18300 0.18300 0.00100 0.03000 0.03000
C3_58   0.23700 0.18300 0.18300 0.00100 0.03000 0.03000
C3_59   0.23700 0.18300 0.18300 0.00100 0.03000 0.03000
C3_60   0.23700 0.18300 0.18300 0.00100 0.03000 0.03000
C3_61   0.23700 0.18300 0.18300 0.00100 0.03000 0.03000
C3_62   0.23700 0.18300 0.18300 0.00100 0.03000 0.03000
C3_63   0.23700 0.18300 0.18300 0.00100 0.03000 0.03000
C3_64   0.23700 0.18300 0.18300 0.00100 0.03000 0.03000
C3_65   0.23700 0.18300 0.18300 0.00100 0.03000 0.03000
C3_66   0.23700 0.18300 0.18300 0.00100 0.03000 0.03000
C3_67   0.23700 0.18300 0.18300 0.00100 0.03000 0.03000
C3_68   0.23700 0.18300 0.18300 0.00100 0.03000 0.03000
C3_69   0.23700 0.18300 0.18300 0.00100 0.03000 0.03000
C3_70   0.23700 0.18300 0.18300 0.00100 0.03000 0.03000
C3_71   0.23700 0.18300 0.18300 0.00100 0.03000 0.03000
C3_72   0.23700 0.18300 0.18300 0.00100 0.03000 0.03000
C3_73   0.23700 0.18300 0.18300 0.00100 0.03000 0.03000
C3_74   0.23700 0.18300 0.18300 0.00100 0.03000 0.03000
C3_75   0.23700 0.18300 0.18300 0.00100 0.03000 0.03000
C3_76   0.23700 0.18300 0.18300 0.00100 0.03000 0.03000
C3_77   0.23700 0.18300 0.18300 0.00100 0.03000 0.03000
C3_78   0.23700 0.18300 0.18300 0.00100 0.03000 0.03000
C3_79   0.23700 0.18300 0.18300 0.00100 0.03000 0.03000
C3_80   0.23700 0.18300 0.18300 0.00100 0.03000 0.03000
C3_81   0.23700 0.18300 0.18300 0.00100 0.03000 0.03000
C3_82   0.23700 0.18300 0.18300 0.00100 0.03000 0.03000
C3_83   0.23700 0.18300 0.18300 0.00100 0.03000 0.03000
C3_84   0.23700 0.18300 0.18300 0.00100 0.03000 0.03000
C3_85   0.23700 0.18300 0.18300 0.00100 0.03000 0.03000
C3_86   0.23700 0.18300 0.18300 0.00100 0.03000 0.03000
C3_87   0.23700 0.18300 0.18300 0.00100 0.03000 0.03000
C3_88   0.23700 0.18300 0.18300 0.00100 0.03000 0.03000
C3_89   0.23700 0.18300 0.18300 0.00100 0.03000 0.03000
C3_90   0.23700 0.18300 0.18300 0.00100 0.03000 0.03000
C3_91   0.23700 0.18300 0.18300 0.00100 0.03000 0.03000
C3_92   0.23700 0.18300 0.18300 0.00100 0.03000 0.03000
C3_93   0.23700 0.18300 0.18300 0.00100 0.03000 0.03000
C3_94   0.23700 0.18300 0.18300 0.00100 0.03000 0.03000
C3_95   0.23700 0.18300 0.18300 0.00100 0.03000 0.03000
C3_96   0.23700 0.18300 0.18300 0.00100 0.03000 0.03000
C4   0.24300 0.17900 0.18300 0.00700 0.03800 0.03100
C4_2   0.24300 0.17900 0.18300 0.00700 0.03800 0.03100
C4_3   0.24300 0.17900 0.18300 0.00700 0.03800 0.03100
C4_4   0.24300 0.17900 0.18300 0.00700 0.03800 0.03100
C4_5   0.24300 0.17900 0.18300 0.00700 0.03800 0.03100
C4_6   0.24300 0.17900 0.18300 0.00700 0.03800 0.03100
C4_7   0.24300 0.17900 0.18300 0.00700 0.03800 0.03100
C4_8   0.24300 0.17900 0.18300 0.00700 0.03800 0.03100
C4_9   0.24300 0.17900 0.18300 0.00700 0.03800 0.03100
C4_10   0.24300 0.17900 0.18300 0.00700 0.03800 0.03100
C4_11   0.24300 0.17900 0.18300 0.00700 0.03800 0.03100
C4_12   0.24300 0.17900 0.18300 0.00700 0.03800 0.03100
C4_13   0.24300 0.17900 0.18300 0.00700 0.03800 0.03100
C4_14   0.24300 0.17900 0.18300 0.00700 0.03800 0.03100
C4_15   0.24300 0.17900 0.18300 0.00700 0.03800 0.03100
C4_16   0.24300 0.17900 0.18300 0.00700 0.03800 0.03100
C4_17   0.24300 0.17900 0.18300 0.00700 0.03800 0.03100
C4_18   0.24300 0.17900 0.18300 0.00700 0.03800 0.03100
C4_19   0.24300 0.17900 0.18300 0.00700 0.03800 0.03100
C4_20   0.24300 0.17900 0.18300 0.00700 0.03800 0.03100
C4_21   0.24300 0.17900 0.18300 0.00700 0.03800 0.03100
C4_22   0.24300 0.17900 0.18300 0.00700 0.03800 0.03100
C4_23   0.24300 0.17900 0.18300 0.00700 0.03800 0.03100
C4_24   0.24300 0.17900 0.18300 0.00700 0.03800 0.03100
C4_25   0.24300 0.17900 0.18300 0.00700 0.03800 0.03100
C4_26   0.24300 0.17900 0.18300 0.00700 0.03800 0.03100
C4_27   0.24300 0.17900 0.18300 0.00700 0.03800 0.03100
C4_28   0.24300 0.17900 0.18300 0.00700 0.03800 0.03100
C4_29   0.24300 0.17900 0.18300 0.00700 0.03800 0.03100
C4_30   0.24300 0.17900 0.18300 0.00700 0.03800 0.03100
C4_31   0.24300 0.17900 0.18300 0.00700 0.03800 0.03100
C4_32   0.24300 0.17900 0.18300 0.00700 0.03800 0.03100
C4_33   0.24300 0.17900 0.18300 0.00700 0.03800 0.03100
C4_34   0.24300 0.17900 0.18300 0.00700 0.03800 0.03100
C4_35   0.24300 0.17900 0.18300 0.00700 0.03800 0.03100
C4_36   0.24300 0.17900 0.18300 0.00700 0.03800 0.03100
C4_37   0.24300 0.17900 0.18300 0.00700 0.03800 0.03100
C4_38   0.24300 0.17900 0.18300 0.00700 0.03800 0.03100
C4_39   0.24300 0.17900 0.18300 0.00700 0.03800 0.03100
C4_40   0.24300 0.17900 0.18300 0.00700 0.03800 0.03100
C4_41   0.24300 0.17900 0.18300 0.00700 0.03800 0.03100
C4_42   0.24300 0.17900 0.18300 0.00700 0.03800 0.03100
C4_43   0.24300 0.17900 0.18300 0.00700 0.03800 0.03100
C4_44   0.24300 0.17900 0.18300 0.00700 0.03800 0.03100
C4_45   0.24300 0.17900 0.18300 0.00700 0.03800 0.03100
C4_46   0.24300 0.17900 0.18300 0.00700 0.03800 0.03100
C4_47   0.24300 0.17900 0.18300 0.00700 0.03800 0.03100
C4_48   0.24300 0.17900 0.18300 0.00700 0.03800 0.03100
C4_49   0.24300 0.17900 0.18300 0.00700 0.03800 0.03100
C4_50   0.24300 0.17900 0.18300 0.00700 0.03800 0.03100
C4_51   0.24300 0.17900 0.18300 0.00700 0.03800 0.03100
C4_52   0.24300 0.17900 0.18300 0.00700 0.03800 0.03100
C4_53   0.24300 0.17900 0.18300 0.00700 0.03800 0.03100
C4_54   0.24300 0.17900 0.18300 0.00700 0.03800 0.03100
C4_55   0.24300 0.17900 0.18300 0.00700 0.03800 0.03100
C4_56   0.24300 0.17900 0.18300 0.00700 0.03800 0.03100
C4_57   0.24300 0.17900 0.18300 0.00700 0.03800 0.03100
C4_58   0.24300 0.17900 0.18300 0.00700 0.03800 0.03100
C4_59   0.24300 0.17900 0.18300 0.00700 0.03800 0.03100
C4_60   0.24300 0.17900 0.18300 0.00700 0.03800 0.03100
C4_61   0.24300 0.17900 0.18300 0.00700 0.03800 0.03100
C4_62   0.24300 0.17900 0.18300 0.00700 0.03800 0.03100
C4_63   0.24300 0.17900 0.18300 0.00700 0.03800 0.03100
C4_64   0.24300 0.17900 0.18300 0.00700 0.03800 0.03100
C4_65   0.24300 0.17900 0.18300 0.00700 0.03800 0.03100
C4_66   0.24300 0.17900 0.18300 0.00700 0.03800 0.03100
C4_67   0.24300 0.17900 0.18300 0.00700 0.03800 0.03100
C4_68   0.24300 0.17900 0.18300 0.00700 0.03800 0.03100
C4_69   0.24300 0.17900 0.18300 0.00700 0.03800 0.03100
C4_70   0.24300 0.17900 0.18300 0.00700 0.03800 0.03100
C4_71   0.24300 0.17900 0.18300 0.00700 0.03800 0.03100
C4_72   0.24300 0.17900 0.18300 0.00700 0.03800 0.03100
C4_73   0.24300 0.17900 0.18300 0.00700 0.03800 0.03100
C4_74   0.24300 0.17900 0.18300 0.00700 0.03800 0.03100
C4_75   0.24300 0.17900 0.18300 0.00700 0.03800 0.03100
C4_76   0.24300 0.17900 0.18300 0.00700 0.03800 0.03100
C4_77   0.24300 0.17900 0.18300 0.00700 0.03800 0.03100
C4_78   0.24300 0.17900 0.18300 0.00700 0.03800 0.03100
C4_79   0.24300 0.17900 0.18300 0.00700 0.03800 0.03100
C4_80   0.24300 0.17900 0.18300 0.00700 0.03800 0.03100
C4_81   0.24300 0.17900 0.18300 0.00700 0.03800 0.03100
C4_82   0.24300 0.17900 0.18300 0.00700 0.03800 0.03100
C4_83   0.24300 0.17900 0.18300 0.00700 0.03800 0.03100
C4_84   0.24300 0.17900 0.18300 0.00700 0.03800 0.03100
C4_85   0.24300 0.17900 0.18300 0.00700 0.03800 0.03100
C4_86   0.24300 0.17900 0.18300 0.00700 0.03800 0.03100
C4_87   0.24300 0.17900 0.18300 0.00700 0.03800 0.03100
C4_88   0.24300 0.17900 0.18300 0.00700 0.03800 0.03100
C4_89   0.24300 0.17900 0.18300 0.00700 0.03800 0.03100
C4_90   0.24300 0.17900 0.18300 0.00700 0.03800 0.03100
C4_91   0.24300 0.17900 0.18300 0.00700 0.03800 0.03100
C4_92   0.24300 0.17900 0.18300 0.00700 0.03800 0.03100
C4_93   0.24300 0.17900 0.18300 0.00700 0.03800 0.03100
C4_94   0.24300 0.17900 0.18300 0.00700 0.03800 0.03100
C4_95   0.24300 0.17900 0.18300 0.00700 0.03800 0.03100
C4_96   0.24300 0.17900 0.18300 0.00700 0.03800 0.03100
C4_97   0.24300 0.17900 0.18300 0.00700 0.03800 0.03100
C4_98   0.24300 0.17900 0.18300 0.00700 0.03800 0.03100
C4_99   0.24300 0.17900 0.18300 0.00700 0.03800 0.03100
C4_100   0.24300 0.17900 0.18300 0.00700 0.03800 0.03100
C4_101   0.24300 0.17900 0.18300 0.00700 0.03800 0.03100
C4_102   0.24300 0.17900 0.18300 0.00700 0.03800 0.03100
C4_103   0.24300 0.17900 0.18300 0.00700 0.03800 0.03100
C4_104   0.24300 0.17900 0.18300 0.00700 0.03800 0.03100
C4_105   0.24300 0.17900 0.18300 0.00700 0.03800 0.03100
C4_106   0.24300 0.17900 0.18300 0.00700 0.03800 0.03100
C4_107   0.24300 0.17900 0.18300 0.00700 0.03800 0.03100
C4_108   0.24300 0.17900 0.18300 0.00700 0.03800 0.03100
C4_109   0.24300 0.17900 0.18300 0.00700 0.03800 0.03100
C4_110   0.24300 0.17900 0.18300 0.00700 0.03800 0.03100
C4_111   0.24300 0.17900 0.18300 0.00700 0.03800 0.03100
C4_112   0.24300 0.17900 0.18300 0.00700 0.03800 0.03100
C4_113   0.24300 0.17900 0.18300 0.00700 0.03800 0.03100
C4_114   0.24300 0.17900 0.18300 0.00700 0.03800 0.03100
C4_115   0.24300 0.17900 0.18300 0.00700 0.03800 0.03100
C4_116   0.24300 0.17900 0.18300 0.00700 0.03800 0.03100
C4_117   0.24300 0.17900 0.18300 0.00700 0.03800 0.03100
C4_118   0.24300 0.17900 0.18300 0.00700 0.03800 0.03100
C4_119   0.24300 0.17900 0.18300 0.00700 0.03800 0.03100
C4_120   0.24300 0.17900 0.18300 0.00700 0.03800 0.03100
C4_121   0.24300 0.17900 0.18300 0.00700 0.03800 0.03100
C4_122   0.24300 0.17900 0.18300 0.00700 0.03800 0.03100
C4_123   0.24300 0.17900 0.18300 0.00700 0.03800 0.03100
C4_124   0.24300 0.17900 0.18300 0.00700 0.03800 0.03100
C4_125   0.24300 0.17900 0.18300 0.00700 0.03800 0.03100
C4_126   0.24300 0.17900 0.18300 0.00700 0.03800 0.03100
C4_127   0.24300 0.17900 0.18300 0.00700 0.03800 0.03100
C4_128   0.24300 0.17900 0.18300 0.00700 0.03800 0.03100
C4_129   0.24300 0.17900 0.18300 0.00700 0.03800 0.03100
C4_130   0.24300 0.17900 0.18300 0.00700 0.03800 0.03100
C4_131   0.24300 0.17900 0.18300 0.00700 0.03800 0.03100
C4_132   0.24300 0.17900 0.18300 0.00700 0.03800 0.03100
C4_133   0.24300 0.17900 0.18300 0.00700 0.03800 0.03100
C4_134   0.24300 0.17900 0.18300 0.00700 0.03800 0.03100
C4_135   0.24300 0.17900 0.18300 0.00700 0.03800 0.03100
C4_136   0.24300 0.17900 0.18300 0.00700 0.03800 0.03100
C4_137   0.24300 0.17900 0.18300 0.00700 0.03800 0.03100
C4_138   0.24300 0.17900 0.18300 0.00700 0.03800 0.03100
C4_139   0.24300 0.17900 0.18300 0.00700 0.03800 0.03100
C4_140   0.24300 0.17900 0.18300 0.00700 0.03800 0.03100
C4_141   0.24300 0.17900 0.18300 0.00700 0.03800 0.03100
C4_142   0.24300 0.17900 0.18300 0.00700 0.03800 0.03100
C4_143   0.24300 0.17900 0.18300 0.00700 0.03800 0.03100
C4_144   0.24300 0.17900 0.18300 0.00700 0.03800 0.03100
C4_145   0.24300 0.17900 0.18300 0.00700 0.03800 0.03100
C4_146   0.24300 0.17900 0.18300 0.00700 0.03800 0.03100
C4_147   0.24300 0.17900 0.18300 0.00700 0.03800 0.03100
C4_148   0.24300 0.17900 0.18300 0.00700 0.03800 0.03100
C4_149   0.24300 0.17900 0.18300 0.00700 0.03800 0.03100
C4_150   0.24300 0.17900 0.18300 0.00700 0.03800 0.03100
C4_151   0.24300 0.17900 0.18300 0.00700 0.03800 0.03100
C4_152   0.24300 0.17900 0.18300 0.00700 0.03800 0.03100
C4_153   0.24300 0.17900 0.18300 0.00700 0.03800 0.03100
C4_154   0.24300 0.17900 0.18300 0.00700 0.03800 0.03100
C4_155   0.24300 0.17900 0.18300 0.00700 0.03800 0.03100
C4_156   0.24300 0.17900 0.18300 0.00700 0.03800 0.03100
C4_157   0.24300 0.17900 0.18300 0.00700 0.03800 0.03100
C4_158   0.24300 0.17900 0.18300 0.00700 0.03800 0.03100
C4_159   0.24300 0.17900 0.18300 0.00700 0.03800 0.03100
C4_160   0.24300 0.17900 0.18300 0.00700 0.03800 0.03100
C4_161   0.24300 0.17900 0.18300 0.00700 0.03800 0.03100
C4_162   0.24300 0.17900 0.18300 0.00700 0.03800 0.03100
C4_163   0.24300 0.17900 0.18300 0.00700 0.03800 0.03100
C4_164   0.24300 0.17900 0.18300 0.00700 0.03800 0.03100
C4_165   0.24300 0.17900 0.18300 0.00700 0.03800 0.03100
C4_166   0.24300 0.17900 0.18300 0.00700 0.03800 0.03100
C4_167   0.24300 0.17900 0.18300 0.00700 0.03800 0.03100
C4_168   0.24300 0.17900 0.18300 0.00700 0.03800 0.03100
C4_169   0.24300 0.17900 0.18300 0.00700 0.03800 0.03100
C4_170   0.24300 0.17900 0.18300 0.00700 0.03800 0.03100
C4_171   0.24300 0.17900 0.18300 0.00700 0.03800 0.03100
C4_172   0.24300 0.17900 0.18300 0.00700 0.03800 0.03100
C4_173   0.24300 0.17900 0.18300 0.00700 0.03800 0.03100
C4_174   0.24300 0.17900 0.18300 0.00700 0.03800 0.03100
C4_175   0.24300 0.17900 0.18300 0.00700 0.03800 0.03100
C4_176   0.24300 0.17900 0.18300 0.00700 0.03800 0.03100
C4_177   0.24300 0.17900 0.18300 0.00700 0.03800 0.03100
C4_178   0.24300 0.17900 0.18300 0.00700 0.03800 0.03100
C4_179   0.24300 0.17900 0.18300 0.00700 0.03800 0.03100
C4_180   0.24300 0.17900 0.18300 0.00700 0.03800 0.03100
C4_181   0.24300 0.17900 0.18300 0.00700 0.03800 0.03100
C4_182   0.24300 0.17900 0.18300 0.00700 0.03800 0.03100
C4_183   0.24300 0.17900 0.18300 0.00700 0.03800 0.03100
C4_184   0.24300 0.17900 0.18300 0.00700 0.03800 0.03100
C4_185   0.24300 0.17900 0.18300 0.00700 0.03800 0.03100
C4_186   0.24300 0.17900 0.18300 0.00700 0.03800 0.03100
C4_187   0.24300 0.17900 0.18300 0.00700 0.03800 0.03100
C4_188   0.24300 0.17900 0.18300 0.00700 0.03800 0.03100
C4_189   0.24300 0.17900 0.18300 0.00700 0.03800 0.03100
C4_190   0.24300 0.17900 0.18300 0.00700 0.03800 0.03100
C4_191   0.24300 0.17900 0.18300 0.00700 0.03800 0.03100
C4_192   0.24300 0.17900 0.18300 0.00700 0.03800 0.03100
C5   0.24100 0.18300 0.18300 0.00900 0.03900 0.03900
C5_2   0.24100 0.18300 0.18300 0.00900 0.03900 0.03900
C5_3   0.24100 0.18300 0.18300 0.00900 0.03900 0.03900
C5_4   0.24100 0.18300 0.18300 0.00900 0.03900 0.03900
C5_5   0.24100 0.18300 0.18300 0.00900 0.03900 0.03900
C5_6   0.24100 0.18300 0.18300 0.00900 0.03900 0.03900
C5_7   0.24100 0.18300 0.18300 0.00900 0.03900 0.03900
C5_8   0.24100 0.18300 0.18300 0.00900 0.03900 0.03900
C5_9   0.24100 0.18300 0.18300 0.00900 0.03900 0.03900
C5_10   0.24100 0.18300 0.18300 0.00900 0.03900 0.03900
C5_11   0.24100 0.18300 0.18300 0.00900 0.03900 0.03900
C5_12   0.24100 0.18300 0.18300 0.00900 0.03900 0.03900
C5_13   0.24100 0.18300 0.18300 0.00900 0.03900 0.03900
C5_14   0.24100 0.18300 0.18300 0.00900 0.03900 0.03900
C5_15   0.24100 0.18300 0.18300 0.00900 0.03900 0.03900
C5_16   0.24100 0.18300 0.18300 0.00900 0.03900 0.03900
C5_17   0.24100 0.18300 0.18300 0.00900 0.03900 0.03900
C5_18   0.24100 0.18300 0.18300 0.00900 0.03900 0.03900
C5_19   0.24100 0.18300 0.18300 0.00900 0.03900 0.03900
C5_20   0.24100 0.18300 0.18300 0.00900 0.03900 0.03900
C5_21   0.24100 0.18300 0.18300 0.00900 0.03900 0.03900
C5_22   0.24100 0.18300 0.18300 0.00900 0.03900 0.03900
C5_23   0.24100 0.18300 0.18300 0.00900 0.03900 0.03900
C5_24   0.24100 0.18300 0.18300 0.00900 0.03900 0.03900
C5_25   0.24100 0.18300 0.18300 0.00900 0.03900 0.03900
C5_26   0.24100 0.18300 0.18300 0.00900 0.03900 0.03900
C5_27   0.24100 0.18300 0.18300 0.00900 0.03900 0.03900
C5_28   0.24100 0.18300 0.18300 0.00900 0.03900 0.03900
C5_29   0.24100 0.18300 0.18300 0.00900 0.03900 0.03900
C5_30   0.24100 0.18300 0.18300 0.00900 0.03900 0.03900
C5_31   0.24100 0.18300 0.18300 0.00900 0.03900 0.03900
C5_32   0.24100 0.18300 0.18300 0.00900 0.03900 0.03900
C5_33   0.24100 0.18300 0.18300 0.00900 0.03900 0.03900
C5_34   0.24100 0.18300 0.18300 0.00900 0.03900 0.03900
C5_35   0.24100 0.18300 0.18300 0.00900 0.03900 0.03900
C5_36   0.24100 0.18300 0.18300 0.00900 0.03900 0.03900
C5_37   0.24100 0.18300 0.18300 0.00900 0.03900 0.03900
C5_38   0.24100 0.18300 0.18300 0.00900 0.03900 0.03900
C5_39   0.24100 0.18300 0.18300 0.00900 0.03900 0.03900
C5_40   0.24100 0.18300 0.18300 0.00900 0.03900 0.03900
C5_41   0.24100 0.18300 0.18300 0.00900 0.03900 0.03900
C5_42   0.24100 0.18300 0.18300 0.00900 0.03900 0.03900
C5_43   0.24100 0.18300 0.18300 0.00900 0.03900 0.03900
C5_44   0.24100 0.18300 0.18300 0.00900 0.03900 0.03900
C5_45   0.24100 0.18300 0.18300 0.00900 0.03900 0.03900
C5_46   0.24100 0.18300 0.18300 0.00900 0.03900 0.03900
C5_47   0.24100 0.18300 0.18300 0.00900 0.03900 0.03900
C5_48   0.24100 0.18300 0.18300 0.00900 0.03900 0.03900
C5_49   0.24100 0.18300 0.18300 0.00900 0.03900 0.03900
C5_50   0.24100 0.18300 0.18300 0.00900 0.03900 0.03900
C5_51   0.24100 0.18300 0.18300 0.00900 0.03900 0.03900
C5_52   0.24100 0.18300 0.18300 0.00900 0.03900 0.03900
C5_53   0.24100 0.18300 0.18300 0.00900 0.03900 0.03900
C5_54   0.24100 0.18300 0.18300 0.00900 0.03900 0.03900
C5_55   0.24100 0.18300 0.18300 0.00900 0.03900 0.03900
C5_56   0.24100 0.18300 0.18300 0.00900 0.03900 0.03900
C5_57   0.24100 0.18300 0.18300 0.00900 0.03900 0.03900
C5_58   0.24100 0.18300 0.18300 0.00900 0.03900 0.03900
C5_59   0.24100 0.18300 0.18300 0.00900 0.03900 0.03900
C5_60   0.24100 0.18300 0.18300 0.00900 0.03900 0.03900
C5_61   0.24100 0.18300 0.18300 0.00900 0.03900 0.03900
C5_62   0.24100 0.18300 0.18300 0.00900 0.03900 0.03900
C5_63   0.24100 0.18300 0.18300 0.00900 0.03900 0.03900
C5_64   0.24100 0.18300 0.18300 0.00900 0.03900 0.03900
C5_65   0.24100 0.18300 0.18300 0.00900 0.03900 0.03900
C5_66   0.24100 0.18300 0.18300 0.00900 0.03900 0.03900
C5_67   0.24100 0.18300 0.18300 0.00900 0.03900 0.03900
C5_68   0.24100 0.18300 0.18300 0.00900 0.03900 0.03900
C5_69   0.24100 0.18300 0.18300 0.00900 0.03900 0.03900
C5_70   0.24100 0.18300 0.18300 0.00900 0.03900 0.03900
C5_71   0.24100 0.18300 0.18300 0.00900 0.03900 0.03900
C5_72   0.24100 0.18300 0.18300 0.00900 0.03900 0.03900
C5_73   0.24100 0.18300 0.18300 0.00900 0.03900 0.03900
C5_74   0.24100 0.18300 0.18300 0.00900 0.03900 0.03900
C5_75   0.24100 0.18300 0.18300 0.00900 0.03900 0.03900
C5_76   0.24100 0.18300 0.18300 0.00900 0.03900 0.03900
C5_77   0.24100 0.18300 0.18300 0.00900 0.03900 0.03900
C5_78   0.24100 0.18300 0.18300 0.00900 0.03900 0.03900
C5_79   0.24100 0.18300 0.18300 0.00900 0.03900 0.03900
C5_80   0.24100 0.18300 0.18300 0.00900 0.03900 0.03900
C5_81   0.24100 0.18300 0.18300 0.00900 0.03900 0.03900
C5_82   0.24100 0.18300 0.18300 0.00900 0.03900 0.03900
C5_83   0.24100 0.18300 0.18300 0.00900 0.03900 0.03900
C5_84   0.24100 0.18300 0.18300 0.00900 0.03900 0.03900
C5_85   0.24100 0.18300 0.18300 0.00900 0.03900 0.03900
C5_86   0.24100 0.18300 0.18300 0.00900 0.03900 0.03900
C5_87   0.24100 0.18300 0.18300 0.00900 0.03900 0.03900
C5_88   0.24100 0.18300 0.18300 0.00900 0.03900 0.03900
C5_89   0.24100 0.18300 0.18300 0.00900 0.03900 0.03900
C5_90   0.24100 0.18300 0.18300 0.00900 0.03900 0.03900
C5_91   0.24100 0.18300 0.18300 0.00900 0.03900 0.03900
C5_92   0.24100 0.18300 0.18300 0.00900 0.03900 0.03900
C5_93   0.24100 0.18300 0.18300 0.00900 0.03900 0.03900
C5_94   0.24100 0.18300 0.18300 0.00900 0.03900 0.03900
C5_95   0.24100 0.18300 0.18300 0.00900 0.03900 0.03900
C5_96   0.24100 0.18300 0.18300 0.00900 0.03900 0.03900
C6   0.24100 0.18600 0.18600 0.01100 0.04000 0.04000
C6_2   0.24100 0.18600 0.18600 0.01100 0.04000 0.04000
C6_3   0.24100 0.18600 0.18600 0.01100 0.04000 0.04000
C6_4   0.24100 0.18600 0.18600 0.01100 0.04000 0.04000
C6_5   0.24100 0.18600 0.18600 0.01100 0.04000 0.04000
C6_6   0.24100 0.18600 0.18600 0.01100 0.04000 0.04000
C6_7   0.24100 0.18600 0.18600 0.01100 0.04000 0.04000
C6_8   0.24100 0.18600 0.18600 0.01100 0.04000 0.04000
C6_9   0.24100 0.18600 0.18600 0.01100 0.04000 0.04000
C6_10   0.24100 0.18600 0.18600 0.01100 0.04000 0.04000
C6_11   0.24100 0.18600 0.18600 0.01100 0.04000 0.04000
C6_12   0.24100 0.18600 0.18600 0.01100 0.04000 0.04000
C6_13   0.24100 0.18600 0.18600 0.01100 0.04000 0.04000
C6_14   0.24100 0.18600 0.18600 0.01100 0.04000 0.04000
C6_15   0.24100 0.18600 0.18600 0.01100 0.04000 0.04000
C6_16   0.24100 0.18600 0.18600 0.01100 0.04000 0.04000
C6_17   0.24100 0.18600 0.18600 0.01100 0.04000 0.04000
C6_18   0.24100 0.18600 0.18600 0.01100 0.04000 0.04000
C6_19   0.24100 0.18600 0.18600 0.01100 0.04000 0.04000
C6_20   0.24100 0.18600 0.18600 0.01100 0.04000 0.04000
C6_21   0.24100 0.18600 0.18600 0.01100 0.04000 0.04000
C6_22   0.24100 0.18600 0.18600 0.01100 0.04000 0.04000
C6_23   0.24100 0.18600 0.18600 0.01100 0.04000 0.04000
C6_24   0.24100 0.18600 0.18600 0.01100 0.04000 0.04000
C6_25   0.24100 0.18600 0.18600 0.01100 0.04000 0.04000
C6_26   0.24100 0.18600 0.18600 0.01100 0.04000 0.04000
C6_27   0.24100 0.18600 0.18600 0.01100 0.04000 0.04000
C6_28   0.24100 0.18600 0.18600 0.01100 0.04000 0.04000
C6_29   0.24100 0.18600 0.18600 0.01100 0.04000 0.04000
C6_30   0.24100 0.18600 0.18600 0.01100 0.04000 0.04000
C6_31   0.24100 0.18600 0.18600 0.01100 0.04000 0.04000
C6_32   0.24100 0.18600 0.18600 0.01100 0.04000 0.04000
C6_33   0.24100 0.18600 0.18600 0.01100 0.04000 0.04000
C6_34   0.24100 0.18600 0.18600 0.01100 0.04000 0.04000
C6_35   0.24100 0.18600 0.18600 0.01100 0.04000 0.04000
C6_36   0.24100 0.18600 0.18600 0.01100 0.04000 0.04000
C6_37   0.24100 0.18600 0.18600 0.01100 0.04000 0.04000
C6_38   0.24100 0.18600 0.18600 0.01100 0.04000 0.04000
C6_39   0.24100 0.18600 0.18600 0.01100 0.04000 0.04000
C6_40   0.24100 0.18600 0.18600 0.01100 0.04000 0.04000
C6_41   0.24100 0.18600 0.18600 0.01100 0.04000 0.04000
C6_42   0.24100 0.18600 0.18600 0.01100 0.04000 0.04000
C6_43   0.24100 0.18600 0.18600 0.01100 0.04000 0.04000
C6_44   0.24100 0.18600 0.18600 0.01100 0.04000 0.04000
C6_45   0.24100 0.18600 0.18600 0.01100 0.04000 0.04000
C6_46   0.24100 0.18600 0.18600 0.01100 0.04000 0.04000
C6_47   0.24100 0.18600 0.18600 0.01100 0.04000 0.04000
C6_48   0.24100 0.18600 0.18600 0.01100 0.04000 0.04000
C6_49   0.24100 0.18600 0.18600 0.01100 0.04000 0.04000
C6_50   0.24100 0.18600 0.18600 0.01100 0.04000 0.04000
C6_51   0.24100 0.18600 0.18600 0.01100 0.04000 0.04000
C6_52   0.24100 0.18600 0.18600 0.01100 0.04000 0.04000
C6_53   0.24100 0.18600 0.18600 0.01100 0.04000 0.04000
C6_54   0.24100 0.18600 0.18600 0.01100 0.04000 0.04000
C6_55   0.24100 0.18600 0.18600 0.01100 0.04000 0.04000
C6_56   0.24100 0.18600 0.18600 0.01100 0.04000 0.04000
C6_57   0.24100 0.18600 0.18600 0.01100 0.04000 0.04000
C6_58   0.24100 0.18600 0.18600 0.01100 0.04000 0.04000
C6_59   0.24100 0.18600 0.18600 0.01100 0.04000 0.04000
C6_60   0.24100 0.18600 0.18600 0.01100 0.04000 0.04000
C6_61   0.24100 0.18600 0.18600 0.01100 0.04000 0.04000
C6_62   0.24100 0.18600 0.18600 0.01100 0.04000 0.04000
C6_63   0.24100 0.18600 0.18600 0.01100 0.04000 0.04000
C6_64   0.24100 0.18600 0.18600 0.01100 0.04000 0.04000
C6_65   0.24100 0.18600 0.18600 0.01100 0.04000 0.04000
C6_66   0.24100 0.18600 0.18600 0.01100 0.04000 0.04000
C6_67   0.24100 0.18600 0.18600 0.01100 0.04000 0.04000
C6_68   0.24100 0.18600 0.18600 0.01100 0.04000 0.04000
C6_69   0.24100 0.18600 0.18600 0.01100 0.04000 0.04000
C6_70   0.24100 0.18600 0.18600 0.01100 0.04000 0.04000
C6_71   0.24100 0.18600 0.18600 0.01100 0.04000 0.04000
C6_72   0.24100 0.18600 0.18600 0.01100 0.04000 0.04000
C6_73   0.24100 0.18600 0.18600 0.01100 0.04000 0.04000
C6_74   0.24100 0.18600 0.18600 0.01100 0.04000 0.04000
C6_75   0.24100 0.18600 0.18600 0.01100 0.04000 0.04000
C6_76   0.24100 0.18600 0.18600 0.01100 0.04000 0.04000
C6_77   0.24100 0.18600 0.18600 0.01100 0.04000 0.04000
C6_78   0.24100 0.18600 0.18600 0.01100 0.04000 0.04000
C6_79   0.24100 0.18600 0.18600 0.01100 0.04000 0.04000
C6_80   0.24100 0.18600 0.18600 0.01100 0.04000 0.04000
C6_81   0.24100 0.18600 0.18600 0.01100 0.04000 0.04000
C6_82   0.24100 0.18600 0.18600 0.01100 0.04000 0.04000
C6_83   0.24100 0.18600 0.18600 0.01100 0.04000 0.04000
C6_84   0.24100 0.18600 0.18600 0.01100 0.04000 0.04000
C6_85   0.24100 0.18600 0.18600 0.01100 0.04000 0.04000
C6_86   0.24100 0.18600 0.18600 0.01100 0.04000 0.04000
C6_87   0.24100 0.18600 0.18600 0.01100 0.04000 0.04000
C6_88   0.24100 0.18600 0.18600 0.01100 0.04000 0.04000
C6_89   0.24100 0.18600 0.18600 0.01100 0.04000 0.04000
C6_90   0.24100 0.18600 0.18600 0.01100 0.04000 0.04000
C6_91   0.24100 0.18600 0.18600 0.01100 0.04000 0.04000
C6_92   0.24100 0.18600 0.18600 0.01100 0.04000 0.04000
C6_93   0.24100 0.18600 0.18600 0.01100 0.04000 0.04000
C6_94   0.24100 0.18600 0.18600 0.01100 0.04000 0.04000
C6_95   0.24100 0.18600 0.18600 0.01100 0.04000 0.04000
C6_96   0.24100 0.18600 0.18600 0.01100 0.04000 0.04000
C7   0.24200 0.18900 0.18900 0.01500 0.04200 0.04200
C7_2   0.24200 0.18900 0.18900 0.01500 0.04200 0.04200
C7_3   0.24200 0.18900 0.18900 0.01500 0.04200 0.04200
C7_4   0.24200 0.18900 0.18900 0.01500 0.04200 0.04200
C7_5   0.24200 0.18900 0.18900 0.01500 0.04200 0.04200
C7_6   0.24200 0.18900 0.18900 0.01500 0.04200 0.04200
C7_7   0.24200 0.18900 0.18900 0.01500 0.04200 0.04200
C7_8   0.24200 0.18900 0.18900 0.01500 0.04200 0.04200
C7_9   0.24200 0.18900 0.18900 0.01500 0.04200 0.04200
C7_10   0.24200 0.18900 0.18900 0.01500 0.04200 0.04200
C7_11   0.24200 0.18900 0.18900 0.01500 0.04200 0.04200
C7_12   0.24200 0.18900 0.18900 0.01500 0.04200 0.04200
C7_13   0.24200 0.18900 0.18900 0.01500 0.04200 0.04200
C7_14   0.24200 0.18900 0.18900 0.01500 0.04200 0.04200
C7_15   0.24200 0.18900 0.18900 0.01500 0.04200 0.04200
C7_16   0.24200 0.18900 0.18900 0.01500 0.04200 0.04200
C7_17   0.24200 0.18900 0.18900 0.01500 0.04200 0.04200
C7_18   0.24200 0.18900 0.18900 0.01500 0.04200 0.04200
C7_19   0.24200 0.18900 0.18900 0.01500 0.04200 0.04200
C7_20   0.24200 0.18900 0.18900 0.01500 0.04200 0.04200
C7_21   0.24200 0.18900 0.18900 0.01500 0.04200 0.04200
C7_22   0.24200 0.18900 0.18900 0.01500 0.04200 0.04200
C7_23   0.24200 0.18900 0.18900 0.01500 0.04200 0.04200
C7_24   0.24200 0.18900 0.18900 0.01500 0.04200 0.04200
C7_25   0.24200 0.18900 0.18900 0.01500 0.04200 0.04200
C7_26   0.24200 0.18900 0.18900 0.01500 0.04200 0.04200
C7_27   0.24200 0.18900 0.18900 0.01500 0.04200 0.04200
C7_28   0.24200 0.18900 0.18900 0.01500 0.04200 0.04200
C7_29   0.24200 0.18900 0.18900 0.01500 0.04200 0.04200
C7_30   0.24200 0.18900 0.18900 0.01500 0.04200 0.04200
C7_31   0.24200 0.18900 0.18900 0.01500 0.04200 0.04200
C7_32   0.24200 0.18900 0.18900 0.01500 0.04200 0.04200
C7_33   0.24200 0.18900 0.18900 0.01500 0.04200 0.04200
C7_34   0.24200 0.18900 0.18900 0.01500 0.04200 0.04200
C7_35   0.24200 0.18900 0.18900 0.01500 0.04200 0.04200
C7_36   0.24200 0.18900 0.18900 0.01500 0.04200 0.04200
C7_37   0.24200 0.18900 0.18900 0.01500 0.04200 0.04200
C7_38   0.24200 0.18900 0.18900 0.01500 0.04200 0.04200
C7_39   0.24200 0.18900 0.18900 0.01500 0.04200 0.04200
C7_40   0.24200 0.18900 0.18900 0.01500 0.04200 0.04200
C7_41   0.24200 0.18900 0.18900 0.01500 0.04200 0.04200
C7_42   0.24200 0.18900 0.18900 0.01500 0.04200 0.04200
C7_43   0.24200 0.18900 0.18900 0.01500 0.04200 0.04200
C7_44   0.24200 0.18900 0.18900 0.01500 0.04200 0.04200
C7_45   0.24200 0.18900 0.18900 0.01500 0.04200 0.04200
C7_46   0.24200 0.18900 0.18900 0.01500 0.04200 0.04200
C7_47   0.24200 0.18900 0.18900 0.01500 0.04200 0.04200
C7_48   0.24200 0.18900 0.18900 0.01500 0.04200 0.04200
C7_49   0.24200 0.18900 0.18900 0.01500 0.04200 0.04200
C7_50   0.24200 0.18900 0.18900 0.01500 0.04200 0.04200
C7_51   0.24200 0.18900 0.18900 0.01500 0.04200 0.04200
C7_52   0.24200 0.18900 0.18900 0.01500 0.04200 0.04200
C7_53   0.24200 0.18900 0.18900 0.01500 0.04200 0.04200
C7_54   0.24200 0.18900 0.18900 0.01500 0.04200 0.04200
C7_55   0.24200 0.18900 0.18900 0.01500 0.04200 0.04200
C7_56   0.24200 0.18900 0.18900 0.01500 0.04200 0.04200
C7_57   0.24200 0.18900 0.18900 0.01500 0.04200 0.04200
C7_58   0.24200 0.18900 0.18900 0.01500 0.04200 0.04200
C7_59   0.24200 0.18900 0.18900 0.01500 0.04200 0.04200
C7_60   0.24200 0.18900 0.18900 0.01500 0.04200 0.04200
C7_61   0.24200 0.18900 0.18900 0.01500 0.04200 0.04200
C7_62   0.24200 0.18900 0.18900 0.01500 0.04200 0.04200
C7_63   0.24200 0.18900 0.18900 0.01500 0.04200 0.04200
C7_64   0.24200 0.18900 0.18900 0.01500 0.04200 0.04200
C7_65   0.24200 0.18900 0.18900 0.01500 0.04200 0.04200
C7_66   0.24200 0.18900 0.18900 0.01500 0.04200 0.04200
C7_67   0.24200 0.18900 0.18900 0.01500 0.04200 0.04200
C7_68   0.24200 0.18900 0.18900 0.01500 0.04200 0.04200
C7_69   0.24200 0.18900 0.18900 0.01500 0.04200 0.04200
C7_70   0.24200 0.18900 0.18900 0.01500 0.04200 0.04200
C7_71   0.24200 0.18900 0.18900 0.01500 0.04200 0.04200
C7_72   0.24200 0.18900 0.18900 0.01500 0.04200 0.04200
C7_73   0.24200 0.18900 0.18900 0.01500 0.04200 0.04200
C7_74   0.24200 0.18900 0.18900 0.01500 0.04200 0.04200
C7_75   0.24200 0.18900 0.18900 0.01500 0.04200 0.04200
C7_76   0.24200 0.18900 0.18900 0.01500 0.04200 0.04200
C7_77   0.24200 0.18900 0.18900 0.01500 0.04200 0.04200
C7_78   0.24200 0.18900 0.18900 0.01500 0.04200 0.04200
C7_79   0.24200 0.18900 0.18900 0.01500 0.04200 0.04200
C7_80   0.24200 0.18900 0.18900 0.01500 0.04200 0.04200
C7_81   0.24200 0.18900 0.18900 0.01500 0.04200 0.04200
C7_82   0.24200 0.18900 0.18900 0.01500 0.04200 0.04200
C7_83   0.24200 0.18900 0.18900 0.01500 0.04200 0.04200
C7_84   0.24200 0.18900 0.18900 0.01500 0.04200 0.04200
C7_85   0.24200 0.18900 0.18900 0.01500 0.04200 0.04200
C7_86   0.24200 0.18900 0.18900 0.01500 0.04200 0.04200
C7_87   0.24200 0.18900 0.18900 0.01500 0.04200 0.04200
C7_88   0.24200 0.18900 0.18900 0.01500 0.04200 0.04200
C7_89   0.24200 0.18900 0.18900 0.01500 0.04200 0.04200
C7_90   0.24200 0.18900 0.18900 0.01500 0.04200 0.04200
C7_91   0.24200 0.18900 0.18900 0.01500 0.04200 0.04200
C7_92   0.24200 0.18900 0.18900 0.01500 0.04200 0.04200
C7_93   0.24200 0.18900 0.18900 0.01500 0.04200 0.04200
C7_94   0.24200 0.18900 0.18900 0.01500 0.04200 0.04200
C7_95   0.24200 0.18900 0.18900 0.01500 0.04200 0.04200
C7_96   0.24200 0.18900 0.18900 0.01500 0.04200 0.04200
C8   0.24200 0.19500 0.19500 0.01800 0.04400 0.04400
C8_2   0.24200 0.19500 0.19500 0.01800 0.04400 0.04400
C8_3   0.24200 0.19500 0.19500 0.01800 0.04400 0.04400
C8_4   0.24200 0.19500 0.19500 0.01800 0.04400 0.04400
C8_5   0.24200 0.19500 0.19500 0.01800 0.04400 0.04400
C8_6   0.24200 0.19500 0.19500 0.01800 0.04400 0.04400
C8_7   0.24200 0.19500 0.19500 0.01800 0.04400 0.04400
C8_8   0.24200 0.19500 0.19500 0.01800 0.04400 0.04400
C8_9   0.24200 0.19500 0.19500 0.01800 0.04400 0.04400
C8_10   0.24200 0.19500 0.19500 0.01800 0.04400 0.04400
C8_11   0.24200 0.19500 0.19500 0.01800 0.04400 0.04400
C8_12   0.24200 0.19500 0.19500 0.01800 0.04400 0.04400
C8_13   0.24200 0.19500 0.19500 0.01800 0.04400 0.04400
C8_14   0.24200 0.19500 0.19500 0.01800 0.04400 0.04400
C8_15   0.24200 0.19500 0.19500 0.01800 0.04400 0.04400
C8_16   0.24200 0.19500 0.19500 0.01800 0.04400 0.04400
C8_17   0.24200 0.19500 0.19500 0.01800 0.04400 0.04400
C8_18   0.24200 0.19500 0.19500 0.01800 0.04400 0.04400
C8_19   0.24200 0.19500 0.19500 0.01800 0.04400 0.04400
C8_20   0.24200 0.19500 0.19500 0.01800 0.04400 0.04400
C8_21   0.24200 0.19500 0.19500 0.01800 0.04400 0.04400
C8_22   0.24200 0.19500 0.19500 0.01800 0.04400 0.04400
C8_23   0.24200 0.19500 0.19500 0.01800 0.04400 0.04400
C8_24   0.24200 0.19500 0.19500 0.01800 0.04400 0.04400
C8_25   0.24200 0.19500 0.19500 0.01800 0.04400 0.04400
C8_26   0.24200 0.19500 0.19500 0.01800 0.04400 0.04400
C8_27   0.24200 0.19500 0.19500 0.01800 0.04400 0.04400
C8_28   0.24200 0.19500 0.19500 0.01800 0.04400 0.04400
C8_29   0.24200 0.19500 0.19500 0.01800 0.04400 0.04400
C8_30   0.24200 0.19500 0.19500 0.01800 0.04400 0.04400
C8_31   0.24200 0.19500 0.19500 0.01800 0.04400 0.04400
C8_32   0.24200 0.19500 0.19500 0.01800 0.04400 0.04400
C8_33   0.24200 0.19500 0.19500 0.01800 0.04400 0.04400
C8_34   0.24200 0.19500 0.19500 0.01800 0.04400 0.04400
C8_35   0.24200 0.19500 0.19500 0.01800 0.04400 0.04400
C8_36   0.24200 0.19500 0.19500 0.01800 0.04400 0.04400
C8_37   0.24200 0.19500 0.19500 0.01800 0.04400 0.04400
C8_38   0.24200 0.19500 0.19500 0.01800 0.04400 0.04400
C8_39   0.24200 0.19500 0.19500 0.01800 0.04400 0.04400
C8_40   0.24200 0.19500 0.19500 0.01800 0.04400 0.04400
C8_41   0.24200 0.19500 0.19500 0.01800 0.04400 0.04400
C8_42   0.24200 0.19500 0.19500 0.01800 0.04400 0.04400
C8_43   0.24200 0.19500 0.19500 0.01800 0.04400 0.04400
C8_44   0.24200 0.19500 0.19500 0.01800 0.04400 0.04400
C8_45   0.24200 0.19500 0.19500 0.01800 0.04400 0.04400
C8_46   0.24200 0.19500 0.19500 0.01800 0.04400 0.04400
C8_47   0.24200 0.19500 0.19500 0.01800 0.04400 0.04400
C8_48   0.24200 0.19500 0.19500 0.01800 0.04400 0.04400
C8_49   0.24200 0.19500 0.19500 0.01800 0.04400 0.04400
C8_50   0.24200 0.19500 0.19500 0.01800 0.04400 0.04400
C8_51   0.24200 0.19500 0.19500 0.01800 0.04400 0.04400
C8_52   0.24200 0.19500 0.19500 0.01800 0.04400 0.04400
C8_53   0.24200 0.19500 0.19500 0.01800 0.04400 0.04400
C8_54   0.24200 0.19500 0.19500 0.01800 0.04400 0.04400
C8_55   0.24200 0.19500 0.19500 0.01800 0.04400 0.04400
C8_56   0.24200 0.19500 0.19500 0.01800 0.04400 0.04400
C8_57   0.24200 0.19500 0.19500 0.01800 0.04400 0.04400
C8_58   0.24200 0.19500 0.19500 0.01800 0.04400 0.04400
C8_59   0.24200 0.19500 0.19500 0.01800 0.04400 0.04400
C8_60   0.24200 0.19500 0.19500 0.01800 0.04400 0.04400
C8_61   0.24200 0.19500 0.19500 0.01800 0.04400 0.04400
C8_62   0.24200 0.19500 0.19500 0.01800 0.04400 0.04400
C8_63   0.24200 0.19500 0.19500 0.01800 0.04400 0.04400
C8_64   0.24200 0.19500 0.19500 0.01800 0.04400 0.04400
C8_65   0.24200 0.19500 0.19500 0.01800 0.04400 0.04400
C8_66   0.24200 0.19500 0.19500 0.01800 0.04400 0.04400
C8_67   0.24200 0.19500 0.19500 0.01800 0.04400 0.04400
C8_68   0.24200 0.19500 0.19500 0.01800 0.04400 0.04400
C8_69   0.24200 0.19500 0.19500 0.01800 0.04400 0.04400
C8_70   0.24200 0.19500 0.19500 0.01800 0.04400 0.04400
C8_71   0.24200 0.19500 0.19500 0.01800 0.04400 0.04400
C8_72   0.24200 0.19500 0.19500 0.01800 0.04400 0.04400
C8_73   0.24200 0.19500 0.19500 0.01800 0.04400 0.04400
C8_74   0.24200 0.19500 0.19500 0.01800 0.04400 0.04400
C8_75   0.24200 0.19500 0.19500 0.01800 0.04400 0.04400
C8_76   0.24200 0.19500 0.19500 0.01800 0.04400 0.04400
C8_77   0.24200 0.19500 0.19500 0.01800 0.04400 0.04400
C8_78   0.24200 0.19500 0.19500 0.01800 0.04400 0.04400
C8_79   0.24200 0.19500 0.19500 0.01800 0.04400 0.04400
C8_80   0.24200 0.19500 0.19500 0.01800 0.04400 0.04400
C8_81   0.24200 0.19500 0.19500 0.01800 0.04400 0.04400
C8_82   0.24200 0.19500 0.19500 0.01800 0.04400 0.04400
C8_83   0.24200 0.19500 0.19500 0.01800 0.04400 0.04400
C8_84   0.24200 0.19500 0.19500 0.01800 0.04400 0.04400
C8_85   0.24200 0.19500 0.19500 0.01800 0.04400 0.04400
C8_86   0.24200 0.19500 0.19500 0.01800 0.04400 0.04400
C8_87   0.24200 0.19500 0.19500 0.01800 0.04400 0.04400
C8_88   0.24200 0.19500 0.19500 0.01800 0.04400 0.04400
C8_89   0.24200 0.19500 0.19500 0.01800 0.04400 0.04400
C8_90   0.24200 0.19500 0.19500 0.01800 0.04400 0.04400
C8_91   0.24200 0.19500 0.19500 0.01800 0.04400 0.04400
C8_92   0.24200 0.19500 0.19500 0.01800 0.04400 0.04400
C8_93   0.24200 0.19500 0.19500 0.01800 0.04400 0.04400
C8_94   0.24200 0.19500 0.19500 0.01800 0.04400 0.04400
C8_95   0.24200 0.19500 0.19500 0.01800 0.04400 0.04400
C8_96   0.24200 0.19500 0.19500 0.01800 0.04400 0.04400
C9   0.24200 0.20000 0.20000 0.02200 0.04500 0.05000
C9_2   0.24200 0.20000 0.20000 0.02200 0.04500 0.05000
C9_3   0.24200 0.20000 0.20000 0.02200 0.04500 0.05000
C9_4   0.24200 0.20000 0.20000 0.02200 0.04500 0.05000
C9_5   0.24200 0.20000 0.20000 0.02200 0.04500 0.05000
C9_6   0.24200 0.20000 0.20000 0.02200 0.04500 0.05000
C9_7   0.24200 0.20000 0.20000 0.02200 0.04500 0.05000
C9_8   0.24200 0.20000 0.20000 0.02200 0.04500 0.05000
C9_9   0.24200 0.20000 0.20000 0.02200 0.04500 0.05000
C9_10   0.24200 0.20000 0.20000 0.02200 0.04500 0.05000
C9_11   0.24200 0.20000 0.20000 0.02200 0.04500 0.05000
C9_12   0.24200 0.20000 0.20000 0.02200 0.04500 0.05000
C9_13   0.24200 0.20000 0.20000 0.02200 0.04500 0.05000
C9_14   0.24200 0.20000 0.20000 0.02200 0.04500 0.05000
C9_15   0.24200 0.20000 0.20000 0.02200 0.04500 0.05000
C9_16   0.24200 0.20000 0.20000 0.02200 0.04500 0.05000
C9_17   0.24200 0.20000 0.20000 0.02200 0.04500 0.05000
C9_18   0.24200 0.20000 0.20000 0.02200 0.04500 0.05000
C9_19   0.24200 0.20000 0.20000 0.02200 0.04500 0.05000
C9_20   0.24200 0.20000 0.20000 0.02200 0.04500 0.05000
C9_21   0.24200 0.20000 0.20000 0.02200 0.04500 0.05000
C9_22   0.24200 0.20000 0.20000 0.02200 0.04500 0.05000
C9_23   0.24200 0.20000 0.20000 0.02200 0.04500 0.05000
C9_24   0.24200 0.20000 0.20000 0.02200 0.04500 0.05000
C9_25   0.24200 0.20000 0.20000 0.02200 0.04500 0.05000
C9_26   0.24200 0.20000 0.20000 0.02200 0.04500 0.05000
C9_27   0.24200 0.20000 0.20000 0.02200 0.04500 0.05000
C9_28   0.24200 0.20000 0.20000 0.02200 0.04500 0.05000
C9_29   0.24200 0.20000 0.20000 0.02200 0.04500 0.05000
C9_30   0.24200 0.20000 0.20000 0.02200 0.04500 0.05000
C9_31   0.24200 0.20000 0.20000 0.02200 0.04500 0.05000
C9_32   0.24200 0.20000 0.20000 0.02200 0.04500 0.05000
C9_33   0.24200 0.20000 0.20000 0.02200 0.04500 0.05000
C9_34   0.24200 0.20000 0.20000 0.02200 0.04500 0.05000
C9_35   0.24200 0.20000 0.20000 0.02200 0.04500 0.05000
C9_36   0.24200 0.20000 0.20000 0.02200 0.04500 0.05000
C9_37   0.24200 0.20000 0.20000 0.02200 0.04500 0.05000
C9_38   0.24200 0.20000 0.20000 0.02200 0.04500 0.05000
C9_39   0.24200 0.20000 0.20000 0.02200 0.04500 0.05000
C9_40   0.24200 0.20000 0.20000 0.02200 0.04500 0.05000
C9_41   0.24200 0.20000 0.20000 0.02200 0.04500 0.05000
C9_42   0.24200 0.20000 0.20000 0.02200 0.04500 0.05000
C9_43   0.24200 0.20000 0.20000 0.02200 0.04500 0.05000
C9_44   0.24200 0.20000 0.20000 0.02200 0.04500 0.05000
C9_45   0.24200 0.20000 0.20000 0.02200 0.04500 0.05000
C9_46   0.24200 0.20000 0.20000 0.02200 0.04500 0.05000
C9_47   0.24200 0.20000 0.20000 0.02200 0.04500 0.05000
C9_48   0.24200 0.20000 0.20000 0.02200 0.04500 0.05000
C9_49   0.24200 0.20000 0.20000 0.02200 0.04500 0.05000
C9_50   0.24200 0.20000 0.20000 0.02200 0.04500 0.05000
C9_51   0.24200 0.20000 0.20000 0.02200 0.04500 0.05000
C9_52   0.24200 0.20000 0.20000 0.02200 0.04500 0.05000
C9_53   0.24200 0.20000 0.20000 0.02200 0.04500 0.05000
C9_54   0.24200 0.20000 0.20000 0.02200 0.04500 0.05000
C9_55   0.24200 0.20000 0.20000 0.02200 0.04500 0.05000
C9_56   0.24200 0.20000 0.20000 0.02200 0.04500 0.05000
C9_57   0.24200 0.20000 0.20000 0.02200 0.04500 0.05000
C9_58   0.24200 0.20000 0.20000 0.02200 0.04500 0.05000
C9_59   0.24200 0.20000 0.20000 0.02200 0.04500 0.05000
C9_60   0.24200 0.20000 0.20000 0.02200 0.04500 0.05000
C9_61   0.24200 0.20000 0.20000 0.02200 0.04500 0.05000
C9_62   0.24200 0.20000 0.20000 0.02200 0.04500 0.05000
C9_63   0.24200 0.20000 0.20000 0.02200 0.04500 0.05000
C9_64   0.24200 0.20000 0.20000 0.02200 0.04500 0.05000
C9_65   0.24200 0.20000 0.20000 0.02200 0.04500 0.05000
C9_66   0.24200 0.20000 0.20000 0.02200 0.04500 0.05000
C9_67   0.24200 0.20000 0.20000 0.02200 0.04500 0.05000
C9_68   0.24200 0.20000 0.20000 0.02200 0.04500 0.05000
C9_69   0.24200 0.20000 0.20000 0.02200 0.04500 0.05000
C9_70   0.24200 0.20000 0.20000 0.02200 0.04500 0.05000
C9_71   0.24200 0.20000 0.20000 0.02200 0.04500 0.05000
C9_72   0.24200 0.20000 0.20000 0.02200 0.04500 0.05000
C9_73   0.24200 0.20000 0.20000 0.02200 0.04500 0.05000
C9_74   0.24200 0.20000 0.20000 0.02200 0.04500 0.05000
C9_75   0.24200 0.20000 0.20000 0.02200 0.04500 0.05000
C9_76   0.24200 0.20000 0.20000 0.02200 0.04500 0.05000
C9_77   0.24200 0.20000 0.20000 0.02200 0.04500 0.05000
C9_78   0.24200 0.20000 0.20000 0.02200 0.04500 0.05000
C9_79   0.24200 0.20000 0.20000 0.02200 0.04500 0.05000
C9_80   0.24200 0.20000 0.20000 0.02200 0.04500 0.05000
C9_81   0.24200 0.20000 0.20000 0.02200 0.04500 0.05000
C9_82   0.24200 0.20000 0.20000 0.02200 0.04500 0.05000
C9_83   0.24200 0.20000 0.20000 0.02200 0.04500 0.05000
C9_84   0.24200 0.20000 0.20000 0.02200 0.04500 0.05000
C9_85   0.24200 0.20000 0.20000 0.02200 0.04500 0.05000
C9_86   0.24200 0.20000 0.20000 0.02200 0.04500 0.05000
C9_87   0.24200 0.20000 0.20000 0.02200 0.04500 0.05000
C9_88   0.24200 0.20000 0.20000 0.02200 0.04500 0.05000
C9_89   0.24200 0.20000 0.20000 0.02200 0.04500 0.05000
C9_90   0.24200 0.20000 0.20000 0.02200 0.04500 0.05000
C9_91   0.24200 0.20000 0.20000 0.02200 0.04500 0.05000
C9_92   0.24200 0.20000 0.20000 0.02200 0.04500 0.05000
C9_93   0.24200 0.20000 0.20000 0.02200 0.04500 0.05000
C9_94   0.24200 0.20000 0.20000 0.02200 0.04500 0.05000
C9_95   0.24200 0.20000 0.20000 0.02200 0.04500 0.05000
C9_96   0.24200 0.20000 0.20000 0.02200 0.04500 0.05000
C9_97   0.24200 0.20000 0.20000 0.02200 0.04500 0.05000
C9_98   0.24200 0.20000 0.20000 0.02200 0.04500 0.05000
C9_99   0.24200 0.20000 0.20000 0.02200 0.04500 0.05000
C9_100   0.24200 0.20000 0.20000 0.02200 0.04500 0.05000
C9_101   0.24200 0.20000 0.20000 0.02200 0.04500 0.05000
C9_102   0.24200 0.20000 0.20000 0.02200 0.04500 0.05000
C9_103   0.24200 0.20000 0.20000 0.02200 0.04500 0.05000
C9_104   0.24200 0.20000 0.20000 0.02200 0.04500 0.05000
C9_105   0.24200 0.20000 0.20000 0.02200 0.04500 0.05000
C9_106   0.24200 0.20000 0.20000 0.02200 0.04500 0.05000
C9_107   0.24200 0.20000 0.20000 0.02200 0.04500 0.05000
C9_108   0.24200 0.20000 0.20000 0.02200 0.04500 0.05000
C9_109   0.24200 0.20000 0.20000 0.02200 0.04500 0.05000
C9_110   0.24200 0.20000 0.20000 0.02200 0.04500 0.05000
C9_111   0.24200 0.20000 0.20000 0.02200 0.04500 0.05000
C9_112   0.24200 0.20000 0.20000 0.02200 0.04500 0.05000
C9_113   0.24200 0.20000 0.20000 0.02200 0.04500 0.05000
C9_114   0.24200 0.20000 0.20000 0.02200 0.04500 0.05000
C9_115   0.24200 0.20000 0.20000 0.02200 0.04500 0.05000
C9_116   0.24200 0.20000 0.20000 0.02200 0.04500 0.05000
C9_117   0.24200 0.20000 0.20000 0.02200 0.04500 0.05000
C9_118   0.24200 0.20000 0.20000 0.02200 0.04500 0.05000
C9_119   0.24200 0.20000 0.20000 0.02200 0.04500 0.05000
C9_120   0.24200 0.20000 0.20000 0.02200 0.04500 0.05000
C9_121   0.24200 0.20000 0.20000 0.02200 0.04500 0.05000
C9_122   0.24200 0.20000 0.20000 0.02200 0.04500 0.05000
C9_123   0.24200 0.20000 0.20000 0.02200 0.04500 0.05000
C9_124   0.24200 0.20000 0.20000 0.02200 0.04500 0.05000
C9_125   0.24200 0.20000 0.20000 0.02200 0.04500 0.05000
C9_126   0.24200 0.20000 0.20000 0.02200 0.04500 0.05000
C9_127   0.24200 0.20000 0.20000 0.02200 0.04500 0.05000
C9_128   0.24200 0.20000 0.20000 0.02200 0.04500 0.05000
C9_129   0.24200 0.20000 0.20000 0.02200 0.04500 0.05000
C9_130   0.24200 0.20000 0.20000 0.02200 0.04500 0.05000
C9_131   0.24200 0.20000 0.20000 0.02200 0.04500 0.05000
C9_132   0.24200 0.20000 0.20000 0.02200 0.04500 0.05000
C9_133   0.24200 0.20000 0.20000 0.02200 0.04500 0.05000
C9_134   0.24200 0.20000 0.20000 0.02200 0.04500 0.05000
C9_135   0.24200 0.20000 0.20000 0.02200 0.04500 0.05000
C9_136   0.24200 0.20000 0.20000 0.02200 0.04500 0.05000
C9_137   0.24200 0.20000 0.20000 0.02200 0.04500 0.05000
C9_138   0.24200 0.20000 0.20000 0.02200 0.04500 0.05000
C9_139   0.24200 0.20000 0.20000 0.02200 0.04500 0.05000
C9_140   0.24200 0.20000 0.20000 0.02200 0.04500 0.05000
C9_141   0.24200 0.20000 0.20000 0.02200 0.04500 0.05000
C9_142   0.24200 0.20000 0.20000 0.02200 0.04500 0.05000
C9_143   0.24200 0.20000 0.20000 0.02200 0.04500 0.05000
C9_144   0.24200 0.20000 0.20000 0.02200 0.04500 0.05000
C9_145   0.24200 0.20000 0.20000 0.02200 0.04500 0.05000
C9_146   0.24200 0.20000 0.20000 0.02200 0.04500 0.05000
C9_147   0.24200 0.20000 0.20000 0.02200 0.04500 0.05000
C9_148   0.24200 0.20000 0.20000 0.02200 0.04500 0.05000
C9_149   0.24200 0.20000 0.20000 0.02200 0.04500 0.05000
C9_150   0.24200 0.20000 0.20000 0.02200 0.04500 0.05000
C9_151   0.24200 0.20000 0.20000 0.02200 0.04500 0.05000
C9_152   0.24200 0.20000 0.20000 0.02200 0.04500 0.05000
C9_153   0.24200 0.20000 0.20000 0.02200 0.04500 0.05000
C9_154   0.24200 0.20000 0.20000 0.02200 0.04500 0.05000
C9_155   0.24200 0.20000 0.20000 0.02200 0.04500 0.05000
C9_156   0.24200 0.20000 0.20000 0.02200 0.04500 0.05000
C9_157   0.24200 0.20000 0.20000 0.02200 0.04500 0.05000
C9_158   0.24200 0.20000 0.20000 0.02200 0.04500 0.05000
C9_159   0.24200 0.20000 0.20000 0.02200 0.04500 0.05000
C9_160   0.24200 0.20000 0.20000 0.02200 0.04500 0.05000
C9_161   0.24200 0.20000 0.20000 0.02200 0.04500 0.05000
C9_162   0.24200 0.20000 0.20000 0.02200 0.04500 0.05000
C9_163   0.24200 0.20000 0.20000 0.02200 0.04500 0.05000
C9_164   0.24200 0.20000 0.20000 0.02200 0.04500 0.05000
C9_165   0.24200 0.20000 0.20000 0.02200 0.04500 0.05000
C9_166   0.24200 0.20000 0.20000 0.02200 0.04500 0.05000
C9_167   0.24200 0.20000 0.20000 0.02200 0.04500 0.05000
C9_168   0.24200 0.20000 0.20000 0.02200 0.04500 0.05000
C9_169   0.24200 0.20000 0.20000 0.02200 0.04500 0.05000
C9_170   0.24200 0.20000 0.20000 0.02200 0.04500 0.05000
C9_171   0.24200 0.20000 0.20000 0.02200 0.04500 0.05000
C9_172   0.24200 0.20000 0.20000 0.02200 0.04500 0.05000
C9_173   0.24200 0.20000 0.20000 0.02200 0.04500 0.05000
C9_174   0.24200 0.20000 0.20000 0.02200 0.04500 0.05000
C9_175   0.24200 0.20000 0.20000 0.02200 0.04500 0.05000
C9_176   0.24200 0.20000 0.20000 0.02200 0.04500 0.05000
C9_177   0.24200 0.20000 0.20000 0.02200 0.04500 0.05000
C9_178   0.24200 0.20000 0.20000 0.02200 0.04500 0.05000
C9_179   0.24200 0.20000 0.20000 0.02200 0.04500 0.05000
C9_180   0.24200 0.20000 0.20000 0.02200 0.04500 0.05000
C9_181   0.24200 0.20000 0.20000 0.02200 0.04500 0.05000
C9_182   0.24200 0.20000 0.20000 0.02200 0.04500 0.05000
C9_183   0.24200 0.20000 0.20000 0.02200 0.04500 0.05000
C9_184   0.24200 0.20000 0.20000 0.02200 0.04500 0.05000
C9_185   0.24200 0.20000 0.20000 0.02200 0.04500 0.05000
C9_186   0.24200 0.20000 0.20000 0.02200 0.04500 0.05000
C9_187   0.24200 0.20000 0.20000 0.02200 0.04500 0.05000
C9_188   0.24200 0.20000 0.20000 0.02200 0.04500 0.05000
C9_189   0.24200 0.20000 0.20000 0.02200 0.04500 0.05000
C9_190   0.24200 0.20000 0.20000 0.02200 0.04500 0.05000
C9_191   0.24200 0.20000 0.20000 0.02200 0.04500 0.05000
C9_192   0.24200 0.20000 0.20000 0.02200 0.04500 0.05000
C10   0.24700 0.20800 0.20800 0.02500 0.05100 0.05400
C10_2   0.24700 0.20800 0.20800 0.02500 0.05100 0.05400
C10_3   0.24700 0.20800 0.20800 0.02500 0.05100 0.05400
C10_4   0.24700 0.20800 0.20800 0.02500 0.05100 0.05400
C10_5   0.24700 0.20800 0.20800 0.02500 0.05100 0.05400
C10_6   0.24700 0.20800 0.20800 0.02500 0.05100 0.05400
C10_7   0.24700 0.20800 0.20800 0.02500 0.05100 0.05400
C10_8   0.24700 0.20800 0.20800 0.02500 0.05100 0.05400
C10_9   0.24700 0.20800 0.20800 0.02500 0.05100 0.05400
C10_10   0.24700 0.20800 0.20800 0.02500 0.05100 0.05400
C10_11   0.24700 0.20800 0.20800 0.02500 0.05100 0.05400
C10_12   0.24700 0.20800 0.20800 0.02500 0.05100 0.05400
C10_13   0.24700 0.20800 0.20800 0.02500 0.05100 0.05400
C10_14   0.24700 0.20800 0.20800 0.02500 0.05100 0.05400
C10_15   0.24700 0.20800 0.20800 0.02500 0.05100 0.05400
C10_16   0.24700 0.20800 0.20800 0.02500 0.05100 0.05400
C10_17   0.24700 0.20800 0.20800 0.02500 0.05100 0.05400
C10_18   0.24700 0.20800 0.20800 0.02500 0.05100 0.05400
C10_19   0.24700 0.20800 0.20800 0.02500 0.05100 0.05400
C10_20   0.24700 0.20800 0.20800 0.02500 0.05100 0.05400
C10_21   0.24700 0.20800 0.20800 0.02500 0.05100 0.05400
C10_22   0.24700 0.20800 0.20800 0.02500 0.05100 0.05400
C10_23   0.24700 0.20800 0.20800 0.02500 0.05100 0.05400
C10_24   0.24700 0.20800 0.20800 0.02500 0.05100 0.05400
C10_25   0.24700 0.20800 0.20800 0.02500 0.05100 0.05400
C10_26   0.24700 0.20800 0.20800 0.02500 0.05100 0.05400
C10_27   0.24700 0.20800 0.20800 0.02500 0.05100 0.05400
C10_28   0.24700 0.20800 0.20800 0.02500 0.05100 0.05400
C10_29   0.24700 0.20800 0.20800 0.02500 0.05100 0.05400
C10_30   0.24700 0.20800 0.20800 0.02500 0.05100 0.05400
C10_31   0.24700 0.20800 0.20800 0.02500 0.05100 0.05400
C10_32   0.24700 0.20800 0.20800 0.02500 0.05100 0.05400
C10_33   0.24700 0.20800 0.20800 0.02500 0.05100 0.05400
C10_34   0.24700 0.20800 0.20800 0.02500 0.05100 0.05400
C10_35   0.24700 0.20800 0.20800 0.02500 0.05100 0.05400
C10_36   0.24700 0.20800 0.20800 0.02500 0.05100 0.05400
C10_37   0.24700 0.20800 0.20800 0.02500 0.05100 0.05400
C10_38   0.24700 0.20800 0.20800 0.02500 0.05100 0.05400
C10_39   0.24700 0.20800 0.20800 0.02500 0.05100 0.05400
C10_40   0.24700 0.20800 0.20800 0.02500 0.05100 0.05400
C10_41   0.24700 0.20800 0.20800 0.02500 0.05100 0.05400
C10_42   0.24700 0.20800 0.20800 0.02500 0.05100 0.05400
C10_43   0.24700 0.20800 0.20800 0.02500 0.05100 0.05400
C10_44   0.24700 0.20800 0.20800 0.02500 0.05100 0.05400
C10_45   0.24700 0.20800 0.20800 0.02500 0.05100 0.05400
C10_46   0.24700 0.20800 0.20800 0.02500 0.05100 0.05400
C10_47   0.24700 0.20800 0.20800 0.02500 0.05100 0.05400
C10_48   0.24700 0.20800 0.20800 0.02500 0.05100 0.05400
C10_49   0.24700 0.20800 0.20800 0.02500 0.05100 0.05400
C10_50   0.24700 0.20800 0.20800 0.02500 0.05100 0.05400
C10_51   0.24700 0.20800 0.20800 0.02500 0.05100 0.05400
C10_52   0.24700 0.20800 0.20800 0.02500 0.05100 0.05400
C10_53   0.24700 0.20800 0.20800 0.02500 0.05100 0.05400
C10_54   0.24700 0.20800 0.20800 0.02500 0.05100 0.05400
C10_55   0.24700 0.20800 0.20800 0.02500 0.05100 0.05400
C10_56   0.24700 0.20800 0.20800 0.02500 0.05100 0.05400
C10_57   0.24700 0.20800 0.20800 0.02500 0.05100 0.05400
C10_58   0.24700 0.20800 0.20800 0.02500 0.05100 0.05400
C10_59   0.24700 0.20800 0.20800 0.02500 0.05100 0.05400
C10_60   0.24700 0.20800 0.20800 0.02500 0.05100 0.05400
C10_61   0.24700 0.20800 0.20800 0.02500 0.05100 0.05400
C10_62   0.24700 0.20800 0.20800 0.02500 0.05100 0.05400
C10_63   0.24700 0.20800 0.20800 0.02500 0.05100 0.05400
C10_64   0.24700 0.20800 0.20800 0.02500 0.05100 0.05400
C10_65   0.24700 0.20800 0.20800 0.02500 0.05100 0.05400
C10_66   0.24700 0.20800 0.20800 0.02500 0.05100 0.05400
C10_67   0.24700 0.20800 0.20800 0.02500 0.05100 0.05400
C10_68   0.24700 0.20800 0.20800 0.02500 0.05100 0.05400
C10_69   0.24700 0.20800 0.20800 0.02500 0.05100 0.05400
C10_70   0.24700 0.20800 0.20800 0.02500 0.05100 0.05400
C10_71   0.24700 0.20800 0.20800 0.02500 0.05100 0.05400
C10_72   0.24700 0.20800 0.20800 0.02500 0.05100 0.05400
C10_73   0.24700 0.20800 0.20800 0.02500 0.05100 0.05400
C10_74   0.24700 0.20800 0.20800 0.02500 0.05100 0.05400
C10_75   0.24700 0.20800 0.20800 0.02500 0.05100 0.05400
C10_76   0.24700 0.20800 0.20800 0.02500 0.05100 0.05400
C10_77   0.24700 0.20800 0.20800 0.02500 0.05100 0.05400
C10_78   0.24700 0.20800 0.20800 0.02500 0.05100 0.05400
C10_79   0.24700 0.20800 0.20800 0.02500 0.05100 0.05400
C10_80   0.24700 0.20800 0.20800 0.02500 0.05100 0.05400
C10_81   0.24700 0.20800 0.20800 0.02500 0.05100 0.05400
C10_82   0.24700 0.20800 0.20800 0.02500 0.05100 0.05400
C10_83   0.24700 0.20800 0.20800 0.02500 0.05100 0.05400
C10_84   0.24700 0.20800 0.20800 0.02500 0.05100 0.05400
C10_85   0.24700 0.20800 0.20800 0.02500 0.05100 0.05400
C10_86   0.24700 0.20800 0.20800 0.02500 0.05100 0.05400
C10_87   0.24700 0.20800 0.20800 0.02500 0.05100 0.05400
C10_88   0.24700 0.20800 0.20800 0.02500 0.05100 0.05400
C10_89   0.24700 0.20800 0.20800 0.02500 0.05100 0.05400
C10_90   0.24700 0.20800 0.20800 0.02500 0.05100 0.05400
C10_91   0.24700 0.20800 0.20800 0.02500 0.05100 0.05400
C10_92   0.24700 0.20800 0.20800 0.02500 0.05100 0.05400
C10_93   0.24700 0.20800 0.20800 0.02500 0.05100 0.05400
C10_94   0.24700 0.20800 0.20800 0.02500 0.05100 0.05400
C10_95   0.24700 0.20800 0.20800 0.02500 0.05100 0.05400
C10_96   0.24700 0.20800 0.20800 0.02500 0.05100 0.05400
C10_97   0.24700 0.20800 0.20800 0.02500 0.05100 0.05400
C10_98   0.24700 0.20800 0.20800 0.02500 0.05100 0.05400
C10_99   0.24700 0.20800 0.20800 0.02500 0.05100 0.05400
C10_100   0.24700 0.20800 0.20800 0.02500 0.05100 0.05400
C10_101   0.24700 0.20800 0.20800 0.02500 0.05100 0.05400
C10_102   0.24700 0.20800 0.20800 0.02500 0.05100 0.05400
C10_103   0.24700 0.20800 0.20800 0.02500 0.05100 0.05400
C10_104   0.24700 0.20800 0.20800 0.02500 0.05100 0.05400
C10_105   0.24700 0.20800 0.20800 0.02500 0.05100 0.05400
C10_106   0.24700 0.20800 0.20800 0.02500 0.05100 0.05400
C10_107   0.24700 0.20800 0.20800 0.02500 0.05100 0.05400
C10_108   0.24700 0.20800 0.20800 0.02500 0.05100 0.05400
C10_109   0.24700 0.20800 0.20800 0.02500 0.05100 0.05400
C10_110   0.24700 0.20800 0.20800 0.02500 0.05100 0.05400
C10_111   0.24700 0.20800 0.20800 0.02500 0.05100 0.05400
C10_112   0.24700 0.20800 0.20800 0.02500 0.05100 0.05400
C10_113   0.24700 0.20800 0.20800 0.02500 0.05100 0.05400
C10_114   0.24700 0.20800 0.20800 0.02500 0.05100 0.05400
C10_115   0.24700 0.20800 0.20800 0.02500 0.05100 0.05400
C10_116   0.24700 0.20800 0.20800 0.02500 0.05100 0.05400
C10_117   0.24700 0.20800 0.20800 0.02500 0.05100 0.05400
C10_118   0.24700 0.20800 0.20800 0.02500 0.05100 0.05400
C10_119   0.24700 0.20800 0.20800 0.02500 0.05100 0.05400
C10_120   0.24700 0.20800 0.20800 0.02500 0.05100 0.05400
C10_121   0.24700 0.20800 0.20800 0.02500 0.05100 0.05400
C10_122   0.24700 0.20800 0.20800 0.02500 0.05100 0.05400
C10_123   0.24700 0.20800 0.20800 0.02500 0.05100 0.05400
C10_124   0.24700 0.20800 0.20800 0.02500 0.05100 0.05400
C10_125   0.24700 0.20800 0.20800 0.02500 0.05100 0.05400
C10_126   0.24700 0.20800 0.20800 0.02500 0.05100 0.05400
C10_127   0.24700 0.20800 0.20800 0.02500 0.05100 0.05400
C10_128   0.24700 0.20800 0.20800 0.02500 0.05100 0.05400
C10_129   0.24700 0.20800 0.20800 0.02500 0.05100 0.05400
C10_130   0.24700 0.20800 0.20800 0.02500 0.05100 0.05400
C10_131   0.24700 0.20800 0.20800 0.02500 0.05100 0.05400
C10_132   0.24700 0.20800 0.20800 0.02500 0.05100 0.05400
C10_133   0.24700 0.20800 0.20800 0.02500 0.05100 0.05400
C10_134   0.24700 0.20800 0.20800 0.02500 0.05100 0.05400
C10_135   0.24700 0.20800 0.20800 0.02500 0.05100 0.05400
C10_136   0.24700 0.20800 0.20800 0.02500 0.05100 0.05400
C10_137   0.24700 0.20800 0.20800 0.02500 0.05100 0.05400
C10_138   0.24700 0.20800 0.20800 0.02500 0.05100 0.05400
C10_139   0.24700 0.20800 0.20800 0.02500 0.05100 0.05400
C10_140   0.24700 0.20800 0.20800 0.02500 0.05100 0.05400
C10_141   0.24700 0.20800 0.20800 0.02500 0.05100 0.05400
C10_142   0.24700 0.20800 0.20800 0.02500 0.05100 0.05400
C10_143   0.24700 0.20800 0.20800 0.02500 0.05100 0.05400
C10_144   0.24700 0.20800 0.20800 0.02500 0.05100 0.05400
C10_145   0.24700 0.20800 0.20800 0.02500 0.05100 0.05400
C10_146   0.24700 0.20800 0.20800 0.02500 0.05100 0.05400
C10_147   0.24700 0.20800 0.20800 0.02500 0.05100 0.05400
C10_148   0.24700 0.20800 0.20800 0.02500 0.05100 0.05400
C10_149   0.24700 0.20800 0.20800 0.02500 0.05100 0.05400
C10_150   0.24700 0.20800 0.20800 0.02500 0.05100 0.05400
C10_151   0.24700 0.20800 0.20800 0.02500 0.05100 0.05400
C10_152   0.24700 0.20800 0.20800 0.02500 0.05100 0.05400
C10_153   0.24700 0.20800 0.20800 0.02500 0.05100 0.05400
C10_154   0.24700 0.20800 0.20800 0.02500 0.05100 0.05400
C10_155   0.24700 0.20800 0.20800 0.02500 0.05100 0.05400
C10_156   0.24700 0.20800 0.20800 0.02500 0.05100 0.05400
C10_157   0.24700 0.20800 0.20800 0.02500 0.05100 0.05400
C10_158   0.24700 0.20800 0.20800 0.02500 0.05100 0.05400
C10_159   0.24700 0.20800 0.20800 0.02500 0.05100 0.05400
C10_160   0.24700 0.20800 0.20800 0.02500 0.05100 0.05400
C10_161   0.24700 0.20800 0.20800 0.02500 0.05100 0.05400
C10_162   0.24700 0.20800 0.20800 0.02500 0.05100 0.05400
C10_163   0.24700 0.20800 0.20800 0.02500 0.05100 0.05400
C10_164   0.24700 0.20800 0.20800 0.02500 0.05100 0.05400
C10_165   0.24700 0.20800 0.20800 0.02500 0.05100 0.05400
C10_166   0.24700 0.20800 0.20800 0.02500 0.05100 0.05400
C10_167   0.24700 0.20800 0.20800 0.02500 0.05100 0.05400
C10_168   0.24700 0.20800 0.20800 0.02500 0.05100 0.05400
C10_169   0.24700 0.20800 0.20800 0.02500 0.05100 0.05400
C10_170   0.24700 0.20800 0.20800 0.02500 0.05100 0.05400
C10_171   0.24700 0.20800 0.20800 0.02500 0.05100 0.05400
C10_172   0.24700 0.20800 0.20800 0.02500 0.05100 0.05400
C10_173   0.24700 0.20800 0.20800 0.02500 0.05100 0.05400
C10_174   0.24700 0.20800 0.20800 0.02500 0.05100 0.05400
C10_175   0.24700 0.20800 0.20800 0.02500 0.05100 0.05400
C10_176   0.24700 0.20800 0.20800 0.02500 0.05100 0.05400
C10_177   0.24700 0.20800 0.20800 0.02500 0.05100 0.05400
C10_178   0.24700 0.20800 0.20800 0.02500 0.05100 0.05400
C10_179   0.24700 0.20800 0.20800 0.02500 0.05100 0.05400
C10_180   0.24700 0.20800 0.20800 0.02500 0.05100 0.05400
C10_181   0.24700 0.20800 0.20800 0.02500 0.05100 0.05400
C10_182   0.24700 0.20800 0.20800 0.02500 0.05100 0.05400
C10_183   0.24700 0.20800 0.20800 0.02500 0.05100 0.05400
C10_184   0.24700 0.20800 0.20800 0.02500 0.05100 0.05400
C10_185   0.24700 0.20800 0.20800 0.02500 0.05100 0.05400
C10_186   0.24700 0.20800 0.20800 0.02500 0.05100 0.05400
C10_187   0.24700 0.20800 0.20800 0.02500 0.05100 0.05400
C10_188   0.24700 0.20800 0.20800 0.02500 0.05100 0.05400
C10_189   0.24700 0.20800 0.20800 0.02500 0.05100 0.05400
C10_190   0.24700 0.20800 0.20800 0.02500 0.05100 0.05400
C10_191   0.24700 0.20800 0.20800 0.02500 0.05100 0.05400
C10_192   0.24700 0.20800 0.20800 0.02500 0.05100 0.05400
C11   0.25000 0.21700 0.21700 0.02900 0.05900 0.05900
C11_2   0.25000 0.21700 0.21700 0.02900 0.05900 0.05900
C11_3   0.25000 0.21700 0.21700 0.02900 0.05900 0.05900
C11_4   0.25000 0.21700 0.21700 0.02900 0.05900 0.05900
C11_5   0.25000 0.21700 0.21700 0.02900 0.05900 0.05900
C11_6   0.25000 0.21700 0.21700 0.02900 0.05900 0.05900
C11_7   0.25000 0.21700 0.21700 0.02900 0.05900 0.05900
C11_8   0.25000 0.21700 0.21700 0.02900 0.05900 0.05900
C11_9   0.25000 0.21700 0.21700 0.02900 0.05900 0.05900
C11_10   0.25000 0.21700 0.21700 0.02900 0.05900 0.05900
C11_11   0.25000 0.21700 0.21700 0.02900 0.05900 0.05900
C11_12   0.25000 0.21700 0.21700 0.02900 0.05900 0.05900
C11_13   0.25000 0.21700 0.21700 0.02900 0.05900 0.05900
C11_14   0.25000 0.21700 0.21700 0.02900 0.05900 0.05900
C11_15   0.25000 0.21700 0.21700 0.02900 0.05900 0.05900
C11_16   0.25000 0.21700 0.21700 0.02900 0.05900 0.05900
C11_17   0.25000 0.21700 0.21700 0.02900 0.05900 0.05900
C11_18   0.25000 0.21700 0.21700 0.02900 0.05900 0.05900
C11_19   0.25000 0.21700 0.21700 0.02900 0.05900 0.05900
C11_20   0.25000 0.21700 0.21700 0.02900 0.05900 0.05900
C11_21   0.25000 0.21700 0.21700 0.02900 0.05900 0.05900
C11_22   0.25000 0.21700 0.21700 0.02900 0.05900 0.05900
C11_23   0.25000 0.21700 0.21700 0.02900 0.05900 0.05900
C11_24   0.25000 0.21700 0.21700 0.02900 0.05900 0.05900
C11_25   0.25000 0.21700 0.21700 0.02900 0.05900 0.05900
C11_26   0.25000 0.21700 0.21700 0.02900 0.05900 0.05900
C11_27   0.25000 0.21700 0.21700 0.02900 0.05900 0.05900
C11_28   0.25000 0.21700 0.21700 0.02900 0.05900 0.05900
C11_29   0.25000 0.21700 0.21700 0.02900 0.05900 0.05900
C11_30   0.25000 0.21700 0.21700 0.02900 0.05900 0.05900
C11_31   0.25000 0.21700 0.21700 0.02900 0.05900 0.05900
C11_32   0.25000 0.21700 0.21700 0.02900 0.05900 0.05900
C11_33   0.25000 0.21700 0.21700 0.02900 0.05900 0.05900
C11_34   0.25000 0.21700 0.21700 0.02900 0.05900 0.05900
C11_35   0.25000 0.21700 0.21700 0.02900 0.05900 0.05900
C11_36   0.25000 0.21700 0.21700 0.02900 0.05900 0.05900
C11_37   0.25000 0.21700 0.21700 0.02900 0.05900 0.05900
C11_38   0.25000 0.21700 0.21700 0.02900 0.05900 0.05900
C11_39   0.25000 0.21700 0.21700 0.02900 0.05900 0.05900
C11_40   0.25000 0.21700 0.21700 0.02900 0.05900 0.05900
C11_41   0.25000 0.21700 0.21700 0.02900 0.05900 0.05900
C11_42   0.25000 0.21700 0.21700 0.02900 0.05900 0.05900
C11_43   0.25000 0.21700 0.21700 0.02900 0.05900 0.05900
C11_44   0.25000 0.21700 0.21700 0.02900 0.05900 0.05900
C11_45   0.25000 0.21700 0.21700 0.02900 0.05900 0.05900
C11_46   0.25000 0.21700 0.21700 0.02900 0.05900 0.05900
C11_47   0.25000 0.21700 0.21700 0.02900 0.05900 0.05900
C11_48   0.25000 0.21700 0.21700 0.02900 0.05900 0.05900
C11_49   0.25000 0.21700 0.21700 0.02900 0.05900 0.05900
C11_50   0.25000 0.21700 0.21700 0.02900 0.05900 0.05900
C11_51   0.25000 0.21700 0.21700 0.02900 0.05900 0.05900
C11_52   0.25000 0.21700 0.21700 0.02900 0.05900 0.05900
C11_53   0.25000 0.21700 0.21700 0.02900 0.05900 0.05900
C11_54   0.25000 0.21700 0.21700 0.02900 0.05900 0.05900
C11_55   0.25000 0.21700 0.21700 0.02900 0.05900 0.05900
C11_56   0.25000 0.21700 0.21700 0.02900 0.05900 0.05900
C11_57   0.25000 0.21700 0.21700 0.02900 0.05900 0.05900
C11_58   0.25000 0.21700 0.21700 0.02900 0.05900 0.05900
C11_59   0.25000 0.21700 0.21700 0.02900 0.05900 0.05900
C11_60   0.25000 0.21700 0.21700 0.02900 0.05900 0.05900
C11_61   0.25000 0.21700 0.21700 0.02900 0.05900 0.05900
C11_62   0.25000 0.21700 0.21700 0.02900 0.05900 0.05900
C11_63   0.25000 0.21700 0.21700 0.02900 0.05900 0.05900
C11_64   0.25000 0.21700 0.21700 0.02900 0.05900 0.05900
C11_65   0.25000 0.21700 0.21700 0.02900 0.05900 0.05900
C11_66   0.25000 0.21700 0.21700 0.02900 0.05900 0.05900
C11_67   0.25000 0.21700 0.21700 0.02900 0.05900 0.05900
C11_68   0.25000 0.21700 0.21700 0.02900 0.05900 0.05900
C11_69   0.25000 0.21700 0.21700 0.02900 0.05900 0.05900
C11_70   0.25000 0.21700 0.21700 0.02900 0.05900 0.05900
C11_71   0.25000 0.21700 0.21700 0.02900 0.05900 0.05900
C11_72   0.25000 0.21700 0.21700 0.02900 0.05900 0.05900
C11_73   0.25000 0.21700 0.21700 0.02900 0.05900 0.05900
C11_74   0.25000 0.21700 0.21700 0.02900 0.05900 0.05900
C11_75   0.25000 0.21700 0.21700 0.02900 0.05900 0.05900
C11_76   0.25000 0.21700 0.21700 0.02900 0.05900 0.05900
C11_77   0.25000 0.21700 0.21700 0.02900 0.05900 0.05900
C11_78   0.25000 0.21700 0.21700 0.02900 0.05900 0.05900
C11_79   0.25000 0.21700 0.21700 0.02900 0.05900 0.05900
C11_80   0.25000 0.21700 0.21700 0.02900 0.05900 0.05900
C11_81   0.25000 0.21700 0.21700 0.02900 0.05900 0.05900
C11_82   0.25000 0.21700 0.21700 0.02900 0.05900 0.05900
C11_83   0.25000 0.21700 0.21700 0.02900 0.05900 0.05900
C11_84   0.25000 0.21700 0.21700 0.02900 0.05900 0.05900
C11_85   0.25000 0.21700 0.21700 0.02900 0.05900 0.05900
C11_86   0.25000 0.21700 0.21700 0.02900 0.05900 0.05900
C11_87   0.25000 0.21700 0.21700 0.02900 0.05900 0.05900
C11_88   0.25000 0.21700 0.21700 0.02900 0.05900 0.05900
C11_89   0.25000 0.21700 0.21700 0.02900 0.05900 0.05900
C11_90   0.25000 0.21700 0.21700 0.02900 0.05900 0.05900
C11_91   0.25000 0.21700 0.21700 0.02900 0.05900 0.05900
C11_92   0.25000 0.21700 0.21700 0.02900 0.05900 0.05900
C11_93   0.25000 0.21700 0.21700 0.02900 0.05900 0.05900
C11_94   0.25000 0.21700 0.21700 0.02900 0.05900 0.05900
C11_95   0.25000 0.21700 0.21700 0.02900 0.05900 0.05900
C11_96   0.25000 0.21700 0.21700 0.02900 0.05900 0.05900
C12   0.25200 0.22700 0.22700 0.03300 0.06300 0.06300
C12_2   0.25200 0.22700 0.22700 0.03300 0.06300 0.06300
C12_3   0.25200 0.22700 0.22700 0.03300 0.06300 0.06300
C12_4   0.25200 0.22700 0.22700 0.03300 0.06300 0.06300
C12_5   0.25200 0.22700 0.22700 0.03300 0.06300 0.06300
C12_6   0.25200 0.22700 0.22700 0.03300 0.06300 0.06300
C12_7   0.25200 0.22700 0.22700 0.03300 0.06300 0.06300
C12_8   0.25200 0.22700 0.22700 0.03300 0.06300 0.06300
C12_9   0.25200 0.22700 0.22700 0.03300 0.06300 0.06300
C12_10   0.25200 0.22700 0.22700 0.03300 0.06300 0.06300
C12_11   0.25200 0.22700 0.22700 0.03300 0.06300 0.06300
C12_12   0.25200 0.22700 0.22700 0.03300 0.06300 0.06300
C12_13   0.25200 0.22700 0.22700 0.03300 0.06300 0.06300
C12_14   0.25200 0.22700 0.22700 0.03300 0.06300 0.06300
C12_15   0.25200 0.22700 0.22700 0.03300 0.06300 0.06300
C12_16   0.25200 0.22700 0.22700 0.03300 0.06300 0.06300
C12_17   0.25200 0.22700 0.22700 0.03300 0.06300 0.06300
C12_18   0.25200 0.22700 0.22700 0.03300 0.06300 0.06300
C12_19   0.25200 0.22700 0.22700 0.03300 0.06300 0.06300
C12_20   0.25200 0.22700 0.22700 0.03300 0.06300 0.06300
C12_21   0.25200 0.22700 0.22700 0.03300 0.06300 0.06300
C12_22   0.25200 0.22700 0.22700 0.03300 0.06300 0.06300
C12_23   0.25200 0.22700 0.22700 0.03300 0.06300 0.06300
C12_24   0.25200 0.22700 0.22700 0.03300 0.06300 0.06300
C12_25   0.25200 0.22700 0.22700 0.03300 0.06300 0.06300
C12_26   0.25200 0.22700 0.22700 0.03300 0.06300 0.06300
C12_27   0.25200 0.22700 0.22700 0.03300 0.06300 0.06300
C12_28   0.25200 0.22700 0.22700 0.03300 0.06300 0.06300
C12_29   0.25200 0.22700 0.22700 0.03300 0.06300 0.06300
C12_30   0.25200 0.22700 0.22700 0.03300 0.06300 0.06300
C12_31   0.25200 0.22700 0.22700 0.03300 0.06300 0.06300
C12_32   0.25200 0.22700 0.22700 0.03300 0.06300 0.06300
C12_33   0.25200 0.22700 0.22700 0.03300 0.06300 0.06300
C12_34   0.25200 0.22700 0.22700 0.03300 0.06300 0.06300
C12_35   0.25200 0.22700 0.22700 0.03300 0.06300 0.06300
C12_36   0.25200 0.22700 0.22700 0.03300 0.06300 0.06300
C12_37   0.25200 0.22700 0.22700 0.03300 0.06300 0.06300
C12_38   0.25200 0.22700 0.22700 0.03300 0.06300 0.06300
C12_39   0.25200 0.22700 0.22700 0.03300 0.06300 0.06300
C12_40   0.25200 0.22700 0.22700 0.03300 0.06300 0.06300
C12_41   0.25200 0.22700 0.22700 0.03300 0.06300 0.06300
C12_42   0.25200 0.22700 0.22700 0.03300 0.06300 0.06300
C12_43   0.25200 0.22700 0.22700 0.03300 0.06300 0.06300
C12_44   0.25200 0.22700 0.22700 0.03300 0.06300 0.06300
C12_45   0.25200 0.22700 0.22700 0.03300 0.06300 0.06300
C12_46   0.25200 0.22700 0.22700 0.03300 0.06300 0.06300
C12_47   0.25200 0.22700 0.22700 0.03300 0.06300 0.06300
C12_48   0.25200 0.22700 0.22700 0.03300 0.06300 0.06300
C12_49   0.25200 0.22700 0.22700 0.03300 0.06300 0.06300
C12_50   0.25200 0.22700 0.22700 0.03300 0.06300 0.06300
C12_51   0.25200 0.22700 0.22700 0.03300 0.06300 0.06300
C12_52   0.25200 0.22700 0.22700 0.03300 0.06300 0.06300
C12_53   0.25200 0.22700 0.22700 0.03300 0.06300 0.06300
C12_54   0.25200 0.22700 0.22700 0.03300 0.06300 0.06300
C12_55   0.25200 0.22700 0.22700 0.03300 0.06300 0.06300
C12_56   0.25200 0.22700 0.22700 0.03300 0.06300 0.06300
C12_57   0.25200 0.22700 0.22700 0.03300 0.06300 0.06300
C12_58   0.25200 0.22700 0.22700 0.03300 0.06300 0.06300
C12_59   0.25200 0.22700 0.22700 0.03300 0.06300 0.06300
C12_60   0.25200 0.22700 0.22700 0.03300 0.06300 0.06300
C12_61   0.25200 0.22700 0.22700 0.03300 0.06300 0.06300
C12_62   0.25200 0.22700 0.22700 0.03300 0.06300 0.06300
C12_63   0.25200 0.22700 0.22700 0.03300 0.06300 0.06300
C12_64   0.25200 0.22700 0.22700 0.03300 0.06300 0.06300
C12_65   0.25200 0.22700 0.22700 0.03300 0.06300 0.06300
C12_66   0.25200 0.22700 0.22700 0.03300 0.06300 0.06300
C12_67   0.25200 0.22700 0.22700 0.03300 0.06300 0.06300
C12_68   0.25200 0.22700 0.22700 0.03300 0.06300 0.06300
C12_69   0.25200 0.22700 0.22700 0.03300 0.06300 0.06300
C12_70   0.25200 0.22700 0.22700 0.03300 0.06300 0.06300
C12_71   0.25200 0.22700 0.22700 0.03300 0.06300 0.06300
C12_72   0.25200 0.22700 0.22700 0.03300 0.06300 0.06300
C12_73   0.25200 0.22700 0.22700 0.03300 0.06300 0.06300
C12_74   0.25200 0.22700 0.22700 0.03300 0.06300 0.06300
C12_75   0.25200 0.22700 0.22700 0.03300 0.06300 0.06300
C12_76   0.25200 0.22700 0.22700 0.03300 0.06300 0.06300
C12_77   0.25200 0.22700 0.22700 0.03300 0.06300 0.06300
C12_78   0.25200 0.22700 0.22700 0.03300 0.06300 0.06300
C12_79   0.25200 0.22700 0.22700 0.03300 0.06300 0.06300
C12_80   0.25200 0.22700 0.22700 0.03300 0.06300 0.06300
C12_81   0.25200 0.22700 0.22700 0.03300 0.06300 0.06300
C12_82   0.25200 0.22700 0.22700 0.03300 0.06300 0.06300
C12_83   0.25200 0.22700 0.22700 0.03300 0.06300 0.06300
C12_84   0.25200 0.22700 0.22700 0.03300 0.06300 0.06300
C12_85   0.25200 0.22700 0.22700 0.03300 0.06300 0.06300
C12_86   0.25200 0.22700 0.22700 0.03300 0.06300 0.06300
C12_87   0.25200 0.22700 0.22700 0.03300 0.06300 0.06300
C12_88   0.25200 0.22700 0.22700 0.03300 0.06300 0.06300
C12_89   0.25200 0.22700 0.22700 0.03300 0.06300 0.06300
C12_90   0.25200 0.22700 0.22700 0.03300 0.06300 0.06300
C12_91   0.25200 0.22700 0.22700 0.03300 0.06300 0.06300
C12_92   0.25200 0.22700 0.22700 0.03300 0.06300 0.06300
C12_93   0.25200 0.22700 0.22700 0.03300 0.06300 0.06300
C12_94   0.25200 0.22700 0.22700 0.03300 0.06300 0.06300
C12_95   0.25200 0.22700 0.22700 0.03300 0.06300 0.06300
C12_96   0.25200 0.22700 0.22700 0.03300 0.06300 0.06300
C13   0.25300 0.23200 0.23200 0.04000 0.06700 0.06700
C13_2   0.25300 0.23200 0.23200 0.04000 0.06700 0.06700
C13_3   0.25300 0.23200 0.23200 0.04000 0.06700 0.06700
C13_4   0.25300 0.23200 0.23200 0.04000 0.06700 0.06700
C13_5   0.25300 0.23200 0.23200 0.04000 0.06700 0.06700
C13_6   0.25300 0.23200 0.23200 0.04000 0.06700 0.06700
C13_7   0.25300 0.23200 0.23200 0.04000 0.06700 0.06700
C13_8   0.25300 0.23200 0.23200 0.04000 0.06700 0.06700
C13_9   0.25300 0.23200 0.23200 0.04000 0.06700 0.06700
C13_10   0.25300 0.23200 0.23200 0.04000 0.06700 0.06700
C13_11   0.25300 0.23200 0.23200 0.04000 0.06700 0.06700
C13_12   0.25300 0.23200 0.23200 0.04000 0.06700 0.06700
C13_13   0.25300 0.23200 0.23200 0.04000 0.06700 0.06700
C13_14   0.25300 0.23200 0.23200 0.04000 0.06700 0.06700
C13_15   0.25300 0.23200 0.23200 0.04000 0.06700 0.06700
C13_16   0.25300 0.23200 0.23200 0.04000 0.06700 0.06700
C13_17   0.25300 0.23200 0.23200 0.04000 0.06700 0.06700
C13_18   0.25300 0.23200 0.23200 0.04000 0.06700 0.06700
C13_19   0.25300 0.23200 0.23200 0.04000 0.06700 0.06700
C13_20   0.25300 0.23200 0.23200 0.04000 0.06700 0.06700
C13_21   0.25300 0.23200 0.23200 0.04000 0.06700 0.06700
C13_22   0.25300 0.23200 0.23200 0.04000 0.06700 0.06700
C13_23   0.25300 0.23200 0.23200 0.04000 0.06700 0.06700
C13_24   0.25300 0.23200 0.23200 0.04000 0.06700 0.06700
C13_25   0.25300 0.23200 0.23200 0.04000 0.06700 0.06700
C13_26   0.25300 0.23200 0.23200 0.04000 0.06700 0.06700
C13_27   0.25300 0.23200 0.23200 0.04000 0.06700 0.06700
C13_28   0.25300 0.23200 0.23200 0.04000 0.06700 0.06700
C13_29   0.25300 0.23200 0.23200 0.04000 0.06700 0.06700
C13_30   0.25300 0.23200 0.23200 0.04000 0.06700 0.06700
C13_31   0.25300 0.23200 0.23200 0.04000 0.06700 0.06700
C13_32   0.25300 0.23200 0.23200 0.04000 0.06700 0.06700
C13_33   0.25300 0.23200 0.23200 0.04000 0.06700 0.06700
C13_34   0.25300 0.23200 0.23200 0.04000 0.06700 0.06700
C13_35   0.25300 0.23200 0.23200 0.04000 0.06700 0.06700
C13_36   0.25300 0.23200 0.23200 0.04000 0.06700 0.06700
C13_37   0.25300 0.23200 0.23200 0.04000 0.06700 0.06700
C13_38   0.25300 0.23200 0.23200 0.04000 0.06700 0.06700
C13_39   0.25300 0.23200 0.23200 0.04000 0.06700 0.06700
C13_40   0.25300 0.23200 0.23200 0.04000 0.06700 0.06700
C13_41   0.25300 0.23200 0.23200 0.04000 0.06700 0.06700
C13_42   0.25300 0.23200 0.23200 0.04000 0.06700 0.06700
C13_43   0.25300 0.23200 0.23200 0.04000 0.06700 0.06700
C13_44   0.25300 0.23200 0.23200 0.04000 0.06700 0.06700
C13_45   0.25300 0.23200 0.23200 0.04000 0.06700 0.06700
C13_46   0.25300 0.23200 0.23200 0.04000 0.06700 0.06700
C13_47   0.25300 0.23200 0.23200 0.04000 0.06700 0.06700
C13_48   0.25300 0.23200 0.23200 0.04000 0.06700 0.06700
C13_49   0.25300 0.23200 0.23200 0.04000 0.06700 0.06700
C13_50   0.25300 0.23200 0.23200 0.04000 0.06700 0.06700
C13_51   0.25300 0.23200 0.23200 0.04000 0.06700 0.06700
C13_52   0.25300 0.23200 0.23200 0.04000 0.06700 0.06700
C13_53   0.25300 0.23200 0.23200 0.04000 0.06700 0.06700
C13_54   0.25300 0.23200 0.23200 0.04000 0.06700 0.06700
C13_55   0.25300 0.23200 0.23200 0.04000 0.06700 0.06700
C13_56   0.25300 0.23200 0.23200 0.04000 0.06700 0.06700
C13_57   0.25300 0.23200 0.23200 0.04000 0.06700 0.06700
C13_58   0.25300 0.23200 0.23200 0.04000 0.06700 0.06700
C13_59   0.25300 0.23200 0.23200 0.04000 0.06700 0.06700
C13_60   0.25300 0.23200 0.23200 0.04000 0.06700 0.06700
C13_61   0.25300 0.23200 0.23200 0.04000 0.06700 0.06700
C13_62   0.25300 0.23200 0.23200 0.04000 0.06700 0.06700
C13_63   0.25300 0.23200 0.23200 0.04000 0.06700 0.06700
C13_64   0.25300 0.23200 0.23200 0.04000 0.06700 0.06700
C13_65   0.25300 0.23200 0.23200 0.04000 0.06700 0.06700
C13_66   0.25300 0.23200 0.23200 0.04000 0.06700 0.06700
C13_67   0.25300 0.23200 0.23200 0.04000 0.06700 0.06700
C13_68   0.25300 0.23200 0.23200 0.04000 0.06700 0.06700
C13_69   0.25300 0.23200 0.23200 0.04000 0.06700 0.06700
C13_70   0.25300 0.23200 0.23200 0.04000 0.06700 0.06700
C13_71   0.25300 0.23200 0.23200 0.04000 0.06700 0.06700
C13_72   0.25300 0.23200 0.23200 0.04000 0.06700 0.06700
C13_73   0.25300 0.23200 0.23200 0.04000 0.06700 0.06700
C13_74   0.25300 0.23200 0.23200 0.04000 0.06700 0.06700
C13_75   0.25300 0.23200 0.23200 0.04000 0.06700 0.06700
C13_76   0.25300 0.23200 0.23200 0.04000 0.06700 0.06700
C13_77   0.25300 0.23200 0.23200 0.04000 0.06700 0.06700
C13_78   0.25300 0.23200 0.23200 0.04000 0.06700 0.06700
C13_79   0.25300 0.23200 0.23200 0.04000 0.06700 0.06700
C13_80   0.25300 0.23200 0.23200 0.04000 0.06700 0.06700
C13_81   0.25300 0.23200 0.23200 0.04000 0.06700 0.06700
C13_82   0.25300 0.23200 0.23200 0.04000 0.06700 0.06700
C13_83   0.25300 0.23200 0.23200 0.04000 0.06700 0.06700
C13_84   0.25300 0.23200 0.23200 0.04000 0.06700 0.06700
C13_85   0.25300 0.23200 0.23200 0.04000 0.06700 0.06700
C13_86   0.25300 0.23200 0.23200 0.04000 0.06700 0.06700
C13_87   0.25300 0.23200 0.23200 0.04000 0.06700 0.06700
C13_88   0.25300 0.23200 0.23200 0.04000 0.06700 0.06700
C13_89   0.25300 0.23200 0.23200 0.04000 0.06700 0.06700
C13_90   0.25300 0.23200 0.23200 0.04000 0.06700 0.06700
C13_91   0.25300 0.23200 0.23200 0.04000 0.06700 0.06700
C13_92   0.25300 0.23200 0.23200 0.04000 0.06700 0.06700
C13_93   0.25300 0.23200 0.23200 0.04000 0.06700 0.06700
C13_94   0.25300 0.23200 0.23200 0.04000 0.06700 0.06700
C13_95   0.25300 0.23200 0.23200 0.04000 0.06700 0.06700
C13_96   0.25300 0.23200 0.23200 0.04000 0.06700 0.06700
C14   0.25200 0.23500 0.23500 0.04500 0.06800 0.06800
C14_2   0.25200 0.23500 0.23500 0.04500 0.06800 0.06800
C14_3   0.25200 0.23500 0.23500 0.04500 0.06800 0.06800
C14_4   0.25200 0.23500 0.23500 0.04500 0.06800 0.06800
C14_5   0.25200 0.23500 0.23500 0.04500 0.06800 0.06800
C14_6   0.25200 0.23500 0.23500 0.04500 0.06800 0.06800
C14_7   0.25200 0.23500 0.23500 0.04500 0.06800 0.06800
C14_8   0.25200 0.23500 0.23500 0.04500 0.06800 0.06800
C14_9   0.25200 0.23500 0.23500 0.04500 0.06800 0.06800
C14_10   0.25200 0.23500 0.23500 0.04500 0.06800 0.06800
C14_11   0.25200 0.23500 0.23500 0.04500 0.06800 0.06800
C14_12   0.25200 0.23500 0.23500 0.04500 0.06800 0.06800
C14_13   0.25200 0.23500 0.23500 0.04500 0.06800 0.06800
C14_14   0.25200 0.23500 0.23500 0.04500 0.06800 0.06800
C14_15   0.25200 0.23500 0.23500 0.04500 0.06800 0.06800
C14_16   0.25200 0.23500 0.23500 0.04500 0.06800 0.06800
C14_17   0.25200 0.23500 0.23500 0.04500 0.06800 0.06800
C14_18   0.25200 0.23500 0.23500 0.04500 0.06800 0.06800
C14_19   0.25200 0.23500 0.23500 0.04500 0.06800 0.06800
C14_20   0.25200 0.23500 0.23500 0.04500 0.06800 0.06800
C14_21   0.25200 0.23500 0.23500 0.04500 0.06800 0.06800
C14_22   0.25200 0.23500 0.23500 0.04500 0.06800 0.06800
C14_23   0.25200 0.23500 0.23500 0.04500 0.06800 0.06800
C14_24   0.25200 0.23500 0.23500 0.04500 0.06800 0.06800
C14_25   0.25200 0.23500 0.23500 0.04500 0.06800 0.06800
C14_26   0.25200 0.23500 0.23500 0.04500 0.06800 0.06800
C14_27   0.25200 0.23500 0.23500 0.04500 0.06800 0.06800
C14_28   0.25200 0.23500 0.23500 0.04500 0.06800 0.06800
C14_29   0.25200 0.23500 0.23500 0.04500 0.06800 0.06800
C14_30   0.25200 0.23500 0.23500 0.04500 0.06800 0.06800
C14_31   0.25200 0.23500 0.23500 0.04500 0.06800 0.06800
C14_32   0.25200 0.23500 0.23500 0.04500 0.06800 0.06800
C14_33   0.25200 0.23500 0.23500 0.04500 0.06800 0.06800
C14_34   0.25200 0.23500 0.23500 0.04500 0.06800 0.06800
C14_35   0.25200 0.23500 0.23500 0.04500 0.06800 0.06800
C14_36   0.25200 0.23500 0.23500 0.04500 0.06800 0.06800
C14_37   0.25200 0.23500 0.23500 0.04500 0.06800 0.06800
C14_38   0.25200 0.23500 0.23500 0.04500 0.06800 0.06800
C14_39   0.25200 0.23500 0.23500 0.04500 0.06800 0.06800
C14_40   0.25200 0.23500 0.23500 0.04500 0.06800 0.06800
C14_41   0.25200 0.23500 0.23500 0.04500 0.06800 0.06800
C14_42   0.25200 0.23500 0.23500 0.04500 0.06800 0.06800
C14_43   0.25200 0.23500 0.23500 0.04500 0.06800 0.06800
C14_44   0.25200 0.23500 0.23500 0.04500 0.06800 0.06800
C14_45   0.25200 0.23500 0.23500 0.04500 0.06800 0.06800
C14_46   0.25200 0.23500 0.23500 0.04500 0.06800 0.06800
C14_47   0.25200 0.23500 0.23500 0.04500 0.06800 0.06800
C14_48   0.25200 0.23500 0.23500 0.04500 0.06800 0.06800
C14_49   0.25200 0.23500 0.23500 0.04500 0.06800 0.06800
C14_50   0.25200 0.23500 0.23500 0.04500 0.06800 0.06800
C14_51   0.25200 0.23500 0.23500 0.04500 0.06800 0.06800
C14_52   0.25200 0.23500 0.23500 0.04500 0.06800 0.06800
C14_53   0.25200 0.23500 0.23500 0.04500 0.06800 0.06800
C14_54   0.25200 0.23500 0.23500 0.04500 0.06800 0.06800
C14_55   0.25200 0.23500 0.23500 0.04500 0.06800 0.06800
C14_56   0.25200 0.23500 0.23500 0.04500 0.06800 0.06800
C14_57   0.25200 0.23500 0.23500 0.04500 0.06800 0.06800
C14_58   0.25200 0.23500 0.23500 0.04500 0.06800 0.06800
C14_59   0.25200 0.23500 0.23500 0.04500 0.06800 0.06800
C14_60   0.25200 0.23500 0.23500 0.04500 0.06800 0.06800
C14_61   0.25200 0.23500 0.23500 0.04500 0.06800 0.06800
C14_62   0.25200 0.23500 0.23500 0.04500 0.06800 0.06800
C14_63   0.25200 0.23500 0.23500 0.04500 0.06800 0.06800
C14_64   0.25200 0.23500 0.23500 0.04500 0.06800 0.06800
C14_65   0.25200 0.23500 0.23500 0.04500 0.06800 0.06800
C14_66   0.25200 0.23500 0.23500 0.04500 0.06800 0.06800
C14_67   0.25200 0.23500 0.23500 0.04500 0.06800 0.06800
C14_68   0.25200 0.23500 0.23500 0.04500 0.06800 0.06800
C14_69   0.25200 0.23500 0.23500 0.04500 0.06800 0.06800
C14_70   0.25200 0.23500 0.23500 0.04500 0.06800 0.06800
C14_71   0.25200 0.23500 0.23500 0.04500 0.06800 0.06800
C14_72   0.25200 0.23500 0.23500 0.04500 0.06800 0.06800
C14_73   0.25200 0.23500 0.23500 0.04500 0.06800 0.06800
C14_74   0.25200 0.23500 0.23500 0.04500 0.06800 0.06800
C14_75   0.25200 0.23500 0.23500 0.04500 0.06800 0.06800
C14_76   0.25200 0.23500 0.23500 0.04500 0.06800 0.06800
C14_77   0.25200 0.23500 0.23500 0.04500 0.06800 0.06800
C14_78   0.25200 0.23500 0.23500 0.04500 0.06800 0.06800
C14_79   0.25200 0.23500 0.23500 0.04500 0.06800 0.06800
C14_80   0.25200 0.23500 0.23500 0.04500 0.06800 0.06800
C14_81   0.25200 0.23500 0.23500 0.04500 0.06800 0.06800
C14_82   0.25200 0.23500 0.23500 0.04500 0.06800 0.06800
C14_83   0.25200 0.23500 0.23500 0.04500 0.06800 0.06800
C14_84   0.25200 0.23500 0.23500 0.04500 0.06800 0.06800
C14_85   0.25200 0.23500 0.23500 0.04500 0.06800 0.06800
C14_86   0.25200 0.23500 0.23500 0.04500 0.06800 0.06800
C14_87   0.25200 0.23500 0.23500 0.04500 0.06800 0.06800
C14_88   0.25200 0.23500 0.23500 0.04500 0.06800 0.06800
C14_89   0.25200 0.23500 0.23500 0.04500 0.06800 0.06800
C14_90   0.25200 0.23500 0.23500 0.04500 0.06800 0.06800
C14_91   0.25200 0.23500 0.23500 0.04500 0.06800 0.06800
C14_92   0.25200 0.23500 0.23500 0.04500 0.06800 0.06800
C14_93   0.25200 0.23500 0.23500 0.04500 0.06800 0.06800
C14_94   0.25200 0.23500 0.23500 0.04500 0.06800 0.06800
C14_95   0.25200 0.23500 0.23500 0.04500 0.06800 0.06800
C14_96   0.25200 0.23500 0.23500 0.04500 0.06800 0.06800
C15   0.25000 0.23800 0.23700 0.04800 0.06900 0.06800
C15_2   0.25000 0.23800 0.23700 0.04800 0.06900 0.06800
C15_3   0.25000 0.23800 0.23700 0.04800 0.06900 0.06800
C15_4   0.25000 0.23800 0.23700 0.04800 0.06900 0.06800
C15_5   0.25000 0.23800 0.23700 0.04800 0.06900 0.06800
C15_6   0.25000 0.23800 0.23700 0.04800 0.06900 0.06800
C15_7   0.25000 0.23800 0.23700 0.04800 0.06900 0.06800
C15_8   0.25000 0.23800 0.23700 0.04800 0.06900 0.06800
C15_9   0.25000 0.23800 0.23700 0.04800 0.06900 0.06800
C15_10   0.25000 0.23800 0.23700 0.04800 0.06900 0.06800
C15_11   0.25000 0.23800 0.23700 0.04800 0.06900 0.06800
C15_12   0.25000 0.23800 0.23700 0.04800 0.06900 0.06800
C15_13   0.25000 0.23800 0.23700 0.04800 0.06900 0.06800
C15_14   0.25000 0.23800 0.23700 0.04800 0.06900 0.06800
C15_15   0.25000 0.23800 0.23700 0.04800 0.06900 0.06800
C15_16   0.25000 0.23800 0.23700 0.04800 0.06900 0.06800
C15_17   0.25000 0.23800 0.23700 0.04800 0.06900 0.06800
C15_18   0.25000 0.23800 0.23700 0.04800 0.06900 0.06800
C15_19   0.25000 0.23800 0.23700 0.04800 0.06900 0.06800
C15_20   0.25000 0.23800 0.23700 0.04800 0.06900 0.06800
C15_21   0.25000 0.23800 0.23700 0.04800 0.06900 0.06800
C15_22   0.25000 0.23800 0.23700 0.04800 0.06900 0.06800
C15_23   0.25000 0.23800 0.23700 0.04800 0.06900 0.06800
C15_24   0.25000 0.23800 0.23700 0.04800 0.06900 0.06800
C15_25   0.25000 0.23800 0.23700 0.04800 0.06900 0.06800
C15_26   0.25000 0.23800 0.23700 0.04800 0.06900 0.06800
C15_27   0.25000 0.23800 0.23700 0.04800 0.06900 0.06800
C15_28   0.25000 0.23800 0.23700 0.04800 0.06900 0.06800
C15_29   0.25000 0.23800 0.23700 0.04800 0.06900 0.06800
C15_30   0.25000 0.23800 0.23700 0.04800 0.06900 0.06800
C15_31   0.25000 0.23800 0.23700 0.04800 0.06900 0.06800
C15_32   0.25000 0.23800 0.23700 0.04800 0.06900 0.06800
C15_33   0.25000 0.23800 0.23700 0.04800 0.06900 0.06800
C15_34   0.25000 0.23800 0.23700 0.04800 0.06900 0.06800
C15_35   0.25000 0.23800 0.23700 0.04800 0.06900 0.06800
C15_36   0.25000 0.23800 0.23700 0.04800 0.06900 0.06800
C15_37   0.25000 0.23800 0.23700 0.04800 0.06900 0.06800
C15_38   0.25000 0.23800 0.23700 0.04800 0.06900 0.06800
C15_39   0.25000 0.23800 0.23700 0.04800 0.06900 0.06800
C15_40   0.25000 0.23800 0.23700 0.04800 0.06900 0.06800
C15_41   0.25000 0.23800 0.23700 0.04800 0.06900 0.06800
C15_42   0.25000 0.23800 0.23700 0.04800 0.06900 0.06800
C15_43   0.25000 0.23800 0.23700 0.04800 0.06900 0.06800
C15_44   0.25000 0.23800 0.23700 0.04800 0.06900 0.06800
C15_45   0.25000 0.23800 0.23700 0.04800 0.06900 0.06800
C15_46   0.25000 0.23800 0.23700 0.04800 0.06900 0.06800
C15_47   0.25000 0.23800 0.23700 0.04800 0.06900 0.06800
C15_48   0.25000 0.23800 0.23700 0.04800 0.06900 0.06800
C15_49   0.25000 0.23800 0.23700 0.04800 0.06900 0.06800
C15_50   0.25000 0.23800 0.23700 0.04800 0.06900 0.06800
C15_51   0.25000 0.23800 0.23700 0.04800 0.06900 0.06800
C15_52   0.25000 0.23800 0.23700 0.04800 0.06900 0.06800
C15_53   0.25000 0.23800 0.23700 0.04800 0.06900 0.06800
C15_54   0.25000 0.23800 0.23700 0.04800 0.06900 0.06800
C15_55   0.25000 0.23800 0.23700 0.04800 0.06900 0.06800
C15_56   0.25000 0.23800 0.23700 0.04800 0.06900 0.06800
C15_57   0.25000 0.23800 0.23700 0.04800 0.06900 0.06800
C15_58   0.25000 0.23800 0.23700 0.04800 0.06900 0.06800
C15_59   0.25000 0.23800 0.23700 0.04800 0.06900 0.06800
C15_60   0.25000 0.23800 0.23700 0.04800 0.06900 0.06800
C15_61   0.25000 0.23800 0.23700 0.04800 0.06900 0.06800
C15_62   0.25000 0.23800 0.23700 0.04800 0.06900 0.06800
C15_63   0.25000 0.23800 0.23700 0.04800 0.06900 0.06800
C15_64   0.25000 0.23800 0.23700 0.04800 0.06900 0.06800
C15_65   0.25000 0.23800 0.23700 0.04800 0.06900 0.06800
C15_66   0.25000 0.23800 0.23700 0.04800 0.06900 0.06800
C15_67   0.25000 0.23800 0.23700 0.04800 0.06900 0.06800
C15_68   0.25000 0.23800 0.23700 0.04800 0.06900 0.06800
C15_69   0.25000 0.23800 0.23700 0.04800 0.06900 0.06800
C15_70   0.25000 0.23800 0.23700 0.04800 0.06900 0.06800
C15_71   0.25000 0.23800 0.23700 0.04800 0.06900 0.06800
C15_72   0.25000 0.23800 0.23700 0.04800 0.06900 0.06800
C15_73   0.25000 0.23800 0.23700 0.04800 0.06900 0.06800
C15_74   0.25000 0.23800 0.23700 0.04800 0.06900 0.06800
C15_75   0.25000 0.23800 0.23700 0.04800 0.06900 0.06800
C15_76   0.25000 0.23800 0.23700 0.04800 0.06900 0.06800
C15_77   0.25000 0.23800 0.23700 0.04800 0.06900 0.06800
C15_78   0.25000 0.23800 0.23700 0.04800 0.06900 0.06800
C15_79   0.25000 0.23800 0.23700 0.04800 0.06900 0.06800
C15_80   0.25000 0.23800 0.23700 0.04800 0.06900 0.06800
C15_81   0.25000 0.23800 0.23700 0.04800 0.06900 0.06800
C15_82   0.25000 0.23800 0.23700 0.04800 0.06900 0.06800
C15_83   0.25000 0.23800 0.23700 0.04800 0.06900 0.06800
C15_84   0.25000 0.23800 0.23700 0.04800 0.06900 0.06800
C15_85   0.25000 0.23800 0.23700 0.04800 0.06900 0.06800
C15_86   0.25000 0.23800 0.23700 0.04800 0.06900 0.06800
C15_87   0.25000 0.23800 0.23700 0.04800 0.06900 0.06800
C15_88   0.25000 0.23800 0.23700 0.04800 0.06900 0.06800
C15_89   0.25000 0.23800 0.23700 0.04800 0.06900 0.06800
C15_90   0.25000 0.23800 0.23700 0.04800 0.06900 0.06800
C15_91   0.25000 0.23800 0.23700 0.04800 0.06900 0.06800
C15_92   0.25000 0.23800 0.23700 0.04800 0.06900 0.06800
C15_93   0.25000 0.23800 0.23700 0.04800 0.06900 0.06800
C15_94   0.25000 0.23800 0.23700 0.04800 0.06900 0.06800
C15_95   0.25000 0.23800 0.23700 0.04800 0.06900 0.06800
C15_96   0.25000 0.23800 0.23700 0.04800 0.06900 0.06800
C15_97   0.25000 0.23800 0.23700 0.04800 0.06900 0.06800
C15_98   0.25000 0.23800 0.23700 0.04800 0.06900 0.06800
C15_99   0.25000 0.23800 0.23700 0.04800 0.06900 0.06800
C15_100   0.25000 0.23800 0.23700 0.04800 0.06900 0.06800
C15_101   0.25000 0.23800 0.23700 0.04800 0.06900 0.06800
C15_102   0.25000 0.23800 0.23700 0.04800 0.06900 0.06800
C15_103   0.25000 0.23800 0.23700 0.04800 0.06900 0.06800
C15_104   0.25000 0.23800 0.23700 0.04800 0.06900 0.06800
C15_105   0.25000 0.23800 0.23700 0.04800 0.06900 0.06800
C15_106   0.25000 0.23800 0.23700 0.04800 0.06900 0.06800
C15_107   0.25000 0.23800 0.23700 0.04800 0.06900 0.06800
C15_108   0.25000 0.23800 0.23700 0.04800 0.06900 0.06800
C15_109   0.25000 0.23800 0.23700 0.04800 0.06900 0.06800
C15_110   0.25000 0.23800 0.23700 0.04800 0.06900 0.06800
C15_111   0.25000 0.23800 0.23700 0.04800 0.06900 0.06800
C15_112   0.25000 0.23800 0.23700 0.04800 0.06900 0.06800
C15_113   0.25000 0.23800 0.23700 0.04800 0.06900 0.06800
C15_114   0.25000 0.23800 0.23700 0.04800 0.06900 0.06800
C15_115   0.25000 0.23800 0.23700 0.04800 0.06900 0.06800
C15_116   0.25000 0.23800 0.23700 0.04800 0.06900 0.06800
C15_117   0.25000 0.23800 0.23700 0.04800 0.06900 0.06800
C15_118   0.25000 0.23800 0.23700 0.04800 0.06900 0.06800
C15_119   0.25000 0.23800 0.23700 0.04800 0.06900 0.06800
C15_120   0.25000 0.23800 0.23700 0.04800 0.06900 0.06800
C15_121   0.25000 0.23800 0.23700 0.04800 0.06900 0.06800
C15_122   0.25000 0.23800 0.23700 0.04800 0.06900 0.06800
C15_123   0.25000 0.23800 0.23700 0.04800 0.06900 0.06800
C15_124   0.25000 0.23800 0.23700 0.04800 0.06900 0.06800
C15_125   0.25000 0.23800 0.23700 0.04800 0.06900 0.06800
C15_126   0.25000 0.23800 0.23700 0.04800 0.06900 0.06800
C15_127   0.25000 0.23800 0.23700 0.04800 0.06900 0.06800
C15_128   0.25000 0.23800 0.23700 0.04800 0.06900 0.06800
C15_129   0.25000 0.23800 0.23700 0.04800 0.06900 0.06800
C15_130   0.25000 0.23800 0.23700 0.04800 0.06900 0.06800
C15_131   0.25000 0.23800 0.23700 0.04800 0.06900 0.06800
C15_132   0.25000 0.23800 0.23700 0.04800 0.06900 0.06800
C15_133   0.25000 0.23800 0.23700 0.04800 0.06900 0.06800
C15_134   0.25000 0.23800 0.23700 0.04800 0.06900 0.06800
C15_135   0.25000 0.23800 0.23700 0.04800 0.06900 0.06800
C15_136   0.25000 0.23800 0.23700 0.04800 0.06900 0.06800
C15_137   0.25000 0.23800 0.23700 0.04800 0.06900 0.06800
C15_138   0.25000 0.23800 0.23700 0.04800 0.06900 0.06800
C15_139   0.25000 0.23800 0.23700 0.04800 0.06900 0.06800
C15_140   0.25000 0.23800 0.23700 0.04800 0.06900 0.06800
C15_141   0.25000 0.23800 0.23700 0.04800 0.06900 0.06800
C15_142   0.25000 0.23800 0.23700 0.04800 0.06900 0.06800
C15_143   0.25000 0.23800 0.23700 0.04800 0.06900 0.06800
C15_144   0.25000 0.23800 0.23700 0.04800 0.06900 0.06800
C15_145   0.25000 0.23800 0.23700 0.04800 0.06900 0.06800
C15_146   0.25000 0.23800 0.23700 0.04800 0.06900 0.06800
C15_147   0.25000 0.23800 0.23700 0.04800 0.06900 0.06800
C15_148   0.25000 0.23800 0.23700 0.04800 0.06900 0.06800
C15_149   0.25000 0.23800 0.23700 0.04800 0.06900 0.06800
C15_150   0.25000 0.23800 0.23700 0.04800 0.06900 0.06800
C15_151   0.25000 0.23800 0.23700 0.04800 0.06900 0.06800
C15_152   0.25000 0.23800 0.23700 0.04800 0.06900 0.06800
C15_153   0.25000 0.23800 0.23700 0.04800 0.06900 0.06800
C15_154   0.25000 0.23800 0.23700 0.04800 0.06900 0.06800
C15_155   0.25000 0.23800 0.23700 0.04800 0.06900 0.06800
C15_156   0.25000 0.23800 0.23700 0.04800 0.06900 0.06800
C15_157   0.25000 0.23800 0.23700 0.04800 0.06900 0.06800
C15_158   0.25000 0.23800 0.23700 0.04800 0.06900 0.06800
C15_159   0.25000 0.23800 0.23700 0.04800 0.06900 0.06800
C15_160   0.25000 0.23800 0.23700 0.04800 0.06900 0.06800
C15_161   0.25000 0.23800 0.23700 0.04800 0.06900 0.06800
C15_162   0.25000 0.23800 0.23700 0.04800 0.06900 0.06800
C15_163   0.25000 0.23800 0.23700 0.04800 0.06900 0.06800
C15_164   0.25000 0.23800 0.23700 0.04800 0.06900 0.06800
C15_165   0.25000 0.23800 0.23700 0.04800 0.06900 0.06800
C15_166   0.25000 0.23800 0.23700 0.04800 0.06900 0.06800
C15_167   0.25000 0.23800 0.23700 0.04800 0.06900 0.06800
C15_168   0.25000 0.23800 0.23700 0.04800 0.06900 0.06800
C15_169   0.25000 0.23800 0.23700 0.04800 0.06900 0.06800
C15_170   0.25000 0.23800 0.23700 0.04800 0.06900 0.06800
C15_171   0.25000 0.23800 0.23700 0.04800 0.06900 0.06800
C15_172   0.25000 0.23800 0.23700 0.04800 0.06900 0.06800
C15_173   0.25000 0.23800 0.23700 0.04800 0.06900 0.06800
C15_174   0.25000 0.23800 0.23700 0.04800 0.06900 0.06800
C15_175   0.25000 0.23800 0.23700 0.04800 0.06900 0.06800
C15_176   0.25000 0.23800 0.23700 0.04800 0.06900 0.06800
C15_177   0.25000 0.23800 0.23700 0.04800 0.06900 0.06800
C15_178   0.25000 0.23800 0.23700 0.04800 0.06900 0.06800
C15_179   0.25000 0.23800 0.23700 0.04800 0.06900 0.06800
C15_180   0.25000 0.23800 0.23700 0.04800 0.06900 0.06800
C15_181   0.25000 0.23800 0.23700 0.04800 0.06900 0.06800
C15_182   0.25000 0.23800 0.23700 0.04800 0.06900 0.06800
C15_183   0.25000 0.23800 0.23700 0.04800 0.06900 0.06800
C15_184   0.25000 0.23800 0.23700 0.04800 0.06900 0.06800
C15_185   0.25000 0.23800 0.23700 0.04800 0.06900 0.06800
C15_186   0.25000 0.23800 0.23700 0.04800 0.06900 0.06800
C15_187   0.25000 0.23800 0.23700 0.04800 0.06900 0.06800
C15_188   0.25000 0.23800 0.23700 0.04800 0.06900 0.06800
C15_189   0.25000 0.23800 0.23700 0.04800 0.06900 0.06800
C15_190   0.25000 0.23800 0.23700 0.04800 0.06900 0.06800
C15_191   0.25000 0.23800 0.23700 0.04800 0.06900 0.06800
C15_192   0.25000 0.23800 0.23700 0.04800 0.06900 0.06800
C16   0.24700 0.23800 0.23700 0.04900 0.06900 0.06600
C16_2   0.24700 0.23800 0.23700 0.04900 0.06900 0.06600
C16_3   0.24700 0.23800 0.23700 0.04900 0.06900 0.06600
C16_4   0.24700 0.23800 0.23700 0.04900 0.06900 0.06600
C16_5   0.24700 0.23800 0.23700 0.04900 0.06900 0.06600
C16_6   0.24700 0.23800 0.23700 0.04900 0.06900 0.06600
C16_7   0.24700 0.23800 0.23700 0.04900 0.06900 0.06600
C16_8   0.24700 0.23800 0.23700 0.04900 0.06900 0.06600
C16_9   0.24700 0.23800 0.23700 0.04900 0.06900 0.06600
C16_10   0.24700 0.23800 0.23700 0.04900 0.06900 0.06600
C16_11   0.24700 0.23800 0.23700 0.04900 0.06900 0.06600
C16_12   0.24700 0.23800 0.23700 0.04900 0.06900 0.06600
C16_13   0.24700 0.23800 0.23700 0.04900 0.06900 0.06600
C16_14   0.24700 0.23800 0.23700 0.04900 0.06900 0.06600
C16_15   0.24700 0.23800 0.23700 0.04900 0.06900 0.06600
C16_16   0.24700 0.23800 0.23700 0.04900 0.06900 0.06600
C16_17   0.24700 0.23800 0.23700 0.04900 0.06900 0.06600
C16_18   0.24700 0.23800 0.23700 0.04900 0.06900 0.06600
C16_19   0.24700 0.23800 0.23700 0.04900 0.06900 0.06600
C16_20   0.24700 0.23800 0.23700 0.04900 0.06900 0.06600
C16_21   0.24700 0.23800 0.23700 0.04900 0.06900 0.06600
C16_22   0.24700 0.23800 0.23700 0.04900 0.06900 0.06600
C16_23   0.24700 0.23800 0.23700 0.04900 0.06900 0.06600
C16_24   0.24700 0.23800 0.23700 0.04900 0.06900 0.06600
C16_25   0.24700 0.23800 0.23700 0.04900 0.06900 0.06600
C16_26   0.24700 0.23800 0.23700 0.04900 0.06900 0.06600
C16_27   0.24700 0.23800 0.23700 0.04900 0.06900 0.06600
C16_28   0.24700 0.23800 0.23700 0.04900 0.06900 0.06600
C16_29   0.24700 0.23800 0.23700 0.04900 0.06900 0.06600
C16_30   0.24700 0.23800 0.23700 0.04900 0.06900 0.06600
C16_31   0.24700 0.23800 0.23700 0.04900 0.06900 0.06600
C16_32   0.24700 0.23800 0.23700 0.04900 0.06900 0.06600
C16_33   0.24700 0.23800 0.23700 0.04900 0.06900 0.06600
C16_34   0.24700 0.23800 0.23700 0.04900 0.06900 0.06600
C16_35   0.24700 0.23800 0.23700 0.04900 0.06900 0.06600
C16_36   0.24700 0.23800 0.23700 0.04900 0.06900 0.06600
C16_37   0.24700 0.23800 0.23700 0.04900 0.06900 0.06600
C16_38   0.24700 0.23800 0.23700 0.04900 0.06900 0.06600
C16_39   0.24700 0.23800 0.23700 0.04900 0.06900 0.06600
C16_40   0.24700 0.23800 0.23700 0.04900 0.06900 0.06600
C16_41   0.24700 0.23800 0.23700 0.04900 0.06900 0.06600
C16_42   0.24700 0.23800 0.23700 0.04900 0.06900 0.06600
C16_43   0.24700 0.23800 0.23700 0.04900 0.06900 0.06600
C16_44   0.24700 0.23800 0.23700 0.04900 0.06900 0.06600
C16_45   0.24700 0.23800 0.23700 0.04900 0.06900 0.06600
C16_46   0.24700 0.23800 0.23700 0.04900 0.06900 0.06600
C16_47   0.24700 0.23800 0.23700 0.04900 0.06900 0.06600
C16_48   0.24700 0.23800 0.23700 0.04900 0.06900 0.06600
C16_49   0.24700 0.23800 0.23700 0.04900 0.06900 0.06600
C16_50   0.24700 0.23800 0.23700 0.04900 0.06900 0.06600
C16_51   0.24700 0.23800 0.23700 0.04900 0.06900 0.06600
C16_52   0.24700 0.23800 0.23700 0.04900 0.06900 0.06600
C16_53   0.24700 0.23800 0.23700 0.04900 0.06900 0.06600
C16_54   0.24700 0.23800 0.23700 0.04900 0.06900 0.06600
C16_55   0.24700 0.23800 0.23700 0.04900 0.06900 0.06600
C16_56   0.24700 0.23800 0.23700 0.04900 0.06900 0.06600
C16_57   0.24700 0.23800 0.23700 0.04900 0.06900 0.06600
C16_58   0.24700 0.23800 0.23700 0.04900 0.06900 0.06600
C16_59   0.24700 0.23800 0.23700 0.04900 0.06900 0.06600
C16_60   0.24700 0.23800 0.23700 0.04900 0.06900 0.06600
C16_61   0.24700 0.23800 0.23700 0.04900 0.06900 0.06600
C16_62   0.24700 0.23800 0.23700 0.04900 0.06900 0.06600
C16_63   0.24700 0.23800 0.23700 0.04900 0.06900 0.06600
C16_64   0.24700 0.23800 0.23700 0.04900 0.06900 0.06600
C16_65   0.24700 0.23800 0.23700 0.04900 0.06900 0.06600
C16_66   0.24700 0.23800 0.23700 0.04900 0.06900 0.06600
C16_67   0.24700 0.23800 0.23700 0.04900 0.06900 0.06600
C16_68   0.24700 0.23800 0.23700 0.04900 0.06900 0.06600
C16_69   0.24700 0.23800 0.23700 0.04900 0.06900 0.06600
C16_70   0.24700 0.23800 0.23700 0.04900 0.06900 0.06600
C16_71   0.24700 0.23800 0.23700 0.04900 0.06900 0.06600
C16_72   0.24700 0.23800 0.23700 0.04900 0.06900 0.06600
C16_73   0.24700 0.23800 0.23700 0.04900 0.06900 0.06600
C16_74   0.24700 0.23800 0.23700 0.04900 0.06900 0.06600
C16_75   0.24700 0.23800 0.23700 0.04900 0.06900 0.06600
C16_76   0.24700 0.23800 0.23700 0.04900 0.06900 0.06600
C16_77   0.24700 0.23800 0.23700 0.04900 0.06900 0.06600
C16_78   0.24700 0.23800 0.23700 0.04900 0.06900 0.06600
C16_79   0.24700 0.23800 0.23700 0.04900 0.06900 0.06600
C16_80   0.24700 0.23800 0.23700 0.04900 0.06900 0.06600
C16_81   0.24700 0.23800 0.23700 0.04900 0.06900 0.06600
C16_82   0.24700 0.23800 0.23700 0.04900 0.06900 0.06600
C16_83   0.24700 0.23800 0.23700 0.04900 0.06900 0.06600
C16_84   0.24700 0.23800 0.23700 0.04900 0.06900 0.06600
C16_85   0.24700 0.23800 0.23700 0.04900 0.06900 0.06600
C16_86   0.24700 0.23800 0.23700 0.04900 0.06900 0.06600
C16_87   0.24700 0.23800 0.23700 0.04900 0.06900 0.06600
C16_88   0.24700 0.23800 0.23700 0.04900 0.06900 0.06600
C16_89   0.24700 0.23800 0.23700 0.04900 0.06900 0.06600
C16_90   0.24700 0.23800 0.23700 0.04900 0.06900 0.06600
C16_91   0.24700 0.23800 0.23700 0.04900 0.06900 0.06600
C16_92   0.24700 0.23800 0.23700 0.04900 0.06900 0.06600
C16_93   0.24700 0.23800 0.23700 0.04900 0.06900 0.06600
C16_94   0.24700 0.23800 0.23700 0.04900 0.06900 0.06600
C16_95   0.24700 0.23800 0.23700 0.04900 0.06900 0.06600
C16_96   0.24700 0.23800 0.23700 0.04900 0.06900 0.06600
C16_97   0.24700 0.23800 0.23700 0.04900 0.06900 0.06600
C16_98   0.24700 0.23800 0.23700 0.04900 0.06900 0.06600
C16_99   0.24700 0.23800 0.23700 0.04900 0.06900 0.06600
C16_100   0.24700 0.23800 0.23700 0.04900 0.06900 0.06600
C16_101   0.24700 0.23800 0.23700 0.04900 0.06900 0.06600
C16_102   0.24700 0.23800 0.23700 0.04900 0.06900 0.06600
C16_103   0.24700 0.23800 0.23700 0.04900 0.06900 0.06600
C16_104   0.24700 0.23800 0.23700 0.04900 0.06900 0.06600
C16_105   0.24700 0.23800 0.23700 0.04900 0.06900 0.06600
C16_106   0.24700 0.23800 0.23700 0.04900 0.06900 0.06600
C16_107   0.24700 0.23800 0.23700 0.04900 0.06900 0.06600
C16_108   0.24700 0.23800 0.23700 0.04900 0.06900 0.06600
C16_109   0.24700 0.23800 0.23700 0.04900 0.06900 0.06600
C16_110   0.24700 0.23800 0.23700 0.04900 0.06900 0.06600
C16_111   0.24700 0.23800 0.23700 0.04900 0.06900 0.06600
C16_112   0.24700 0.23800 0.23700 0.04900 0.06900 0.06600
C16_113   0.24700 0.23800 0.23700 0.04900 0.06900 0.06600
C16_114   0.24700 0.23800 0.23700 0.04900 0.06900 0.06600
C16_115   0.24700 0.23800 0.23700 0.04900 0.06900 0.06600
C16_116   0.24700 0.23800 0.23700 0.04900 0.06900 0.06600
C16_117   0.24700 0.23800 0.23700 0.04900 0.06900 0.06600
C16_118   0.24700 0.23800 0.23700 0.04900 0.06900 0.06600
C16_119   0.24700 0.23800 0.23700 0.04900 0.06900 0.06600
C16_120   0.24700 0.23800 0.23700 0.04900 0.06900 0.06600
C16_121   0.24700 0.23800 0.23700 0.04900 0.06900 0.06600
C16_122   0.24700 0.23800 0.23700 0.04900 0.06900 0.06600
C16_123   0.24700 0.23800 0.23700 0.04900 0.06900 0.06600
C16_124   0.24700 0.23800 0.23700 0.04900 0.06900 0.06600
C16_125   0.24700 0.23800 0.23700 0.04900 0.06900 0.06600
C16_126   0.24700 0.23800 0.23700 0.04900 0.06900 0.06600
C16_127   0.24700 0.23800 0.23700 0.04900 0.06900 0.06600
C16_128   0.24700 0.23800 0.23700 0.04900 0.06900 0.06600
C16_129   0.24700 0.23800 0.23700 0.04900 0.06900 0.06600
C16_130   0.24700 0.23800 0.23700 0.04900 0.06900 0.06600
C16_131   0.24700 0.23800 0.23700 0.04900 0.06900 0.06600
C16_132   0.24700 0.23800 0.23700 0.04900 0.06900 0.06600
C16_133   0.24700 0.23800 0.23700 0.04900 0.06900 0.06600
C16_134   0.24700 0.23800 0.23700 0.04900 0.06900 0.06600
C16_135   0.24700 0.23800 0.23700 0.04900 0.06900 0.06600
C16_136   0.24700 0.23800 0.23700 0.04900 0.06900 0.06600
C16_137   0.24700 0.23800 0.23700 0.04900 0.06900 0.06600
C16_138   0.24700 0.23800 0.23700 0.04900 0.06900 0.06600
C16_139   0.24700 0.23800 0.23700 0.04900 0.06900 0.06600
C16_140   0.24700 0.23800 0.23700 0.04900 0.06900 0.06600
C16_141   0.24700 0.23800 0.23700 0.04900 0.06900 0.06600
C16_142   0.24700 0.23800 0.23700 0.04900 0.06900 0.06600
C16_143   0.24700 0.23800 0.23700 0.04900 0.06900 0.06600
C16_144   0.24700 0.23800 0.23700 0.04900 0.06900 0.06600
C16_145   0.24700 0.23800 0.23700 0.04900 0.06900 0.06600
C16_146   0.24700 0.23800 0.23700 0.04900 0.06900 0.06600
C16_147   0.24700 0.23800 0.23700 0.04900 0.06900 0.06600
C16_148   0.24700 0.23800 0.23700 0.04900 0.06900 0.06600
C16_149   0.24700 0.23800 0.23700 0.04900 0.06900 0.06600
C16_150   0.24700 0.23800 0.23700 0.04900 0.06900 0.06600
C16_151   0.24700 0.23800 0.23700 0.04900 0.06900 0.06600
C16_152   0.24700 0.23800 0.23700 0.04900 0.06900 0.06600
C16_153   0.24700 0.23800 0.23700 0.04900 0.06900 0.06600
C16_154   0.24700 0.23800 0.23700 0.04900 0.06900 0.06600
C16_155   0.24700 0.23800 0.23700 0.04900 0.06900 0.06600
C16_156   0.24700 0.23800 0.23700 0.04900 0.06900 0.06600
C16_157   0.24700 0.23800 0.23700 0.04900 0.06900 0.06600
C16_158   0.24700 0.23800 0.23700 0.04900 0.06900 0.06600
C16_159   0.24700 0.23800 0.23700 0.04900 0.06900 0.06600
C16_160   0.24700 0.23800 0.23700 0.04900 0.06900 0.06600
C16_161   0.24700 0.23800 0.23700 0.04900 0.06900 0.06600
C16_162   0.24700 0.23800 0.23700 0.04900 0.06900 0.06600
C16_163   0.24700 0.23800 0.23700 0.04900 0.06900 0.06600
C16_164   0.24700 0.23800 0.23700 0.04900 0.06900 0.06600
C16_165   0.24700 0.23800 0.23700 0.04900 0.06900 0.06600
C16_166   0.24700 0.23800 0.23700 0.04900 0.06900 0.06600
C16_167   0.24700 0.23800 0.23700 0.04900 0.06900 0.06600
C16_168   0.24700 0.23800 0.23700 0.04900 0.06900 0.06600
C16_169   0.24700 0.23800 0.23700 0.04900 0.06900 0.06600
C16_170   0.24700 0.23800 0.23700 0.04900 0.06900 0.06600
C16_171   0.24700 0.23800 0.23700 0.04900 0.06900 0.06600
C16_172   0.24700 0.23800 0.23700 0.04900 0.06900 0.06600
C16_173   0.24700 0.23800 0.23700 0.04900 0.06900 0.06600
C16_174   0.24700 0.23800 0.23700 0.04900 0.06900 0.06600
C16_175   0.24700 0.23800 0.23700 0.04900 0.06900 0.06600
C16_176   0.24700 0.23800 0.23700 0.04900 0.06900 0.06600
C16_177   0.24700 0.23800 0.23700 0.04900 0.06900 0.06600
C16_178   0.24700 0.23800 0.23700 0.04900 0.06900 0.06600
C16_179   0.24700 0.23800 0.23700 0.04900 0.06900 0.06600
C16_180   0.24700 0.23800 0.23700 0.04900 0.06900 0.06600
C16_181   0.24700 0.23800 0.23700 0.04900 0.06900 0.06600
C16_182   0.24700 0.23800 0.23700 0.04900 0.06900 0.06600
C16_183   0.24700 0.23800 0.23700 0.04900 0.06900 0.06600
C16_184   0.24700 0.23800 0.23700 0.04900 0.06900 0.06600
C16_185   0.24700 0.23800 0.23700 0.04900 0.06900 0.06600
C16_186   0.24700 0.23800 0.23700 0.04900 0.06900 0.06600
C16_187   0.24700 0.23800 0.23700 0.04900 0.06900 0.06600
C16_188   0.24700 0.23800 0.23700 0.04900 0.06900 0.06600
C16_189   0.24700 0.23800 0.23700 0.04900 0.06900 0.06600
C16_190   0.24700 0.23800 0.23700 0.04900 0.06900 0.06600
C16_191   0.24700 0.23800 0.23700 0.04900 0.06900 0.06600
C16_192   0.24700 0.23800 0.23700 0.04900 0.06900 0.06600
C17   0.24400 0.23700 0.23700 0.05300 0.06500 0.06500
C17_2   0.24400 0.23700 0.23700 0.05300 0.06500 0.06500
C17_3   0.24400 0.23700 0.23700 0.05300 0.06500 0.06500
C17_4   0.24400 0.23700 0.23700 0.05300 0.06500 0.06500
C17_5   0.24400 0.23700 0.23700 0.05300 0.06500 0.06500
C17_6   0.24400 0.23700 0.23700 0.05300 0.06500 0.06500
C17_7   0.24400 0.23700 0.23700 0.05300 0.06500 0.06500
C17_8   0.24400 0.23700 0.23700 0.05300 0.06500 0.06500
C17_9   0.24400 0.23700 0.23700 0.05300 0.06500 0.06500
C17_10   0.24400 0.23700 0.23700 0.05300 0.06500 0.06500
C17_11   0.24400 0.23700 0.23700 0.05300 0.06500 0.06500
C17_12   0.24400 0.23700 0.23700 0.05300 0.06500 0.06500
C17_13   0.24400 0.23700 0.23700 0.05300 0.06500 0.06500
C17_14   0.24400 0.23700 0.23700 0.05300 0.06500 0.06500
C17_15   0.24400 0.23700 0.23700 0.05300 0.06500 0.06500
C17_16   0.24400 0.23700 0.23700 0.05300 0.06500 0.06500
C17_17   0.24400 0.23700 0.23700 0.05300 0.06500 0.06500
C17_18   0.24400 0.23700 0.23700 0.05300 0.06500 0.06500
C17_19   0.24400 0.23700 0.23700 0.05300 0.06500 0.06500
C17_20   0.24400 0.23700 0.23700 0.05300 0.06500 0.06500
C17_21   0.24400 0.23700 0.23700 0.05300 0.06500 0.06500
C17_22   0.24400 0.23700 0.23700 0.05300 0.06500 0.06500
C17_23   0.24400 0.23700 0.23700 0.05300 0.06500 0.06500
C17_24   0.24400 0.23700 0.23700 0.05300 0.06500 0.06500
C17_25   0.24400 0.23700 0.23700 0.05300 0.06500 0.06500
C17_26   0.24400 0.23700 0.23700 0.05300 0.06500 0.06500
C17_27   0.24400 0.23700 0.23700 0.05300 0.06500 0.06500
C17_28   0.24400 0.23700 0.23700 0.05300 0.06500 0.06500
C17_29   0.24400 0.23700 0.23700 0.05300 0.06500 0.06500
C17_30   0.24400 0.23700 0.23700 0.05300 0.06500 0.06500
C17_31   0.24400 0.23700 0.23700 0.05300 0.06500 0.06500
C17_32   0.24400 0.23700 0.23700 0.05300 0.06500 0.06500
C17_33   0.24400 0.23700 0.23700 0.05300 0.06500 0.06500
C17_34   0.24400 0.23700 0.23700 0.05300 0.06500 0.06500
C17_35   0.24400 0.23700 0.23700 0.05300 0.06500 0.06500
C17_36   0.24400 0.23700 0.23700 0.05300 0.06500 0.06500
C17_37   0.24400 0.23700 0.23700 0.05300 0.06500 0.06500
C17_38   0.24400 0.23700 0.23700 0.05300 0.06500 0.06500
C17_39   0.24400 0.23700 0.23700 0.05300 0.06500 0.06500
C17_40   0.24400 0.23700 0.23700 0.05300 0.06500 0.06500
C17_41   0.24400 0.23700 0.23700 0.05300 0.06500 0.06500
C17_42   0.24400 0.23700 0.23700 0.05300 0.06500 0.06500
C17_43   0.24400 0.23700 0.23700 0.05300 0.06500 0.06500
C17_44   0.24400 0.23700 0.23700 0.05300 0.06500 0.06500
C17_45   0.24400 0.23700 0.23700 0.05300 0.06500 0.06500
C17_46   0.24400 0.23700 0.23700 0.05300 0.06500 0.06500
C17_47   0.24400 0.23700 0.23700 0.05300 0.06500 0.06500
C17_48   0.24400 0.23700 0.23700 0.05300 0.06500 0.06500
C17_49   0.24400 0.23700 0.23700 0.05300 0.06500 0.06500
C17_50   0.24400 0.23700 0.23700 0.05300 0.06500 0.06500
C17_51   0.24400 0.23700 0.23700 0.05300 0.06500 0.06500
C17_52   0.24400 0.23700 0.23700 0.05300 0.06500 0.06500
C17_53   0.24400 0.23700 0.23700 0.05300 0.06500 0.06500
C17_54   0.24400 0.23700 0.23700 0.05300 0.06500 0.06500
C17_55   0.24400 0.23700 0.23700 0.05300 0.06500 0.06500
C17_56   0.24400 0.23700 0.23700 0.05300 0.06500 0.06500
C17_57   0.24400 0.23700 0.23700 0.05300 0.06500 0.06500
C17_58   0.24400 0.23700 0.23700 0.05300 0.06500 0.06500
C17_59   0.24400 0.23700 0.23700 0.05300 0.06500 0.06500
C17_60   0.24400 0.23700 0.23700 0.05300 0.06500 0.06500
C17_61   0.24400 0.23700 0.23700 0.05300 0.06500 0.06500
C17_62   0.24400 0.23700 0.23700 0.05300 0.06500 0.06500
C17_63   0.24400 0.23700 0.23700 0.05300 0.06500 0.06500
C17_64   0.24400 0.23700 0.23700 0.05300 0.06500 0.06500
C17_65   0.24400 0.23700 0.23700 0.05300 0.06500 0.06500
C17_66   0.24400 0.23700 0.23700 0.05300 0.06500 0.06500
C17_67   0.24400 0.23700 0.23700 0.05300 0.06500 0.06500
C17_68   0.24400 0.23700 0.23700 0.05300 0.06500 0.06500
C17_69   0.24400 0.23700 0.23700 0.05300 0.06500 0.06500
C17_70   0.24400 0.23700 0.23700 0.05300 0.06500 0.06500
C17_71   0.24400 0.23700 0.23700 0.05300 0.06500 0.06500
C17_72   0.24400 0.23700 0.23700 0.05300 0.06500 0.06500
C17_73   0.24400 0.23700 0.23700 0.05300 0.06500 0.06500
C17_74   0.24400 0.23700 0.23700 0.05300 0.06500 0.06500
C17_75   0.24400 0.23700 0.23700 0.05300 0.06500 0.06500
C17_76   0.24400 0.23700 0.23700 0.05300 0.06500 0.06500
C17_77   0.24400 0.23700 0.23700 0.05300 0.06500 0.06500
C17_78   0.24400 0.23700 0.23700 0.05300 0.06500 0.06500
C17_79   0.24400 0.23700 0.23700 0.05300 0.06500 0.06500
C17_80   0.24400 0.23700 0.23700 0.05300 0.06500 0.06500
C17_81   0.24400 0.23700 0.23700 0.05300 0.06500 0.06500
C17_82   0.24400 0.23700 0.23700 0.05300 0.06500 0.06500
C17_83   0.24400 0.23700 0.23700 0.05300 0.06500 0.06500
C17_84   0.24400 0.23700 0.23700 0.05300 0.06500 0.06500
C17_85   0.24400 0.23700 0.23700 0.05300 0.06500 0.06500
C17_86   0.24400 0.23700 0.23700 0.05300 0.06500 0.06500
C17_87   0.24400 0.23700 0.23700 0.05300 0.06500 0.06500
C17_88   0.24400 0.23700 0.23700 0.05300 0.06500 0.06500
C17_89   0.24400 0.23700 0.23700 0.05300 0.06500 0.06500
C17_90   0.24400 0.23700 0.23700 0.05300 0.06500 0.06500
C17_91   0.24400 0.23700 0.23700 0.05300 0.06500 0.06500
C17_92   0.24400 0.23700 0.23700 0.05300 0.06500 0.06500
C17_93   0.24400 0.23700 0.23700 0.05300 0.06500 0.06500
C17_94   0.24400 0.23700 0.23700 0.05300 0.06500 0.06500
C17_95   0.24400 0.23700 0.23700 0.05300 0.06500 0.06500
C17_96   0.24400 0.23700 0.23700 0.05300 0.06500 0.06500
C18   0.24000 0.23600 0.23600 0.05700 0.06300 0.06300
C18_2   0.24000 0.23600 0.23600 0.05700 0.06300 0.06300
C18_3   0.24000 0.23600 0.23600 0.05700 0.06300 0.06300
C18_4   0.24000 0.23600 0.23600 0.05700 0.06300 0.06300
C18_5   0.24000 0.23600 0.23600 0.05700 0.06300 0.06300
C18_6   0.24000 0.23600 0.23600 0.05700 0.06300 0.06300
C18_7   0.24000 0.23600 0.23600 0.05700 0.06300 0.06300
C18_8   0.24000 0.23600 0.23600 0.05700 0.06300 0.06300
C18_9   0.24000 0.23600 0.23600 0.05700 0.06300 0.06300
C18_10   0.24000 0.23600 0.23600 0.05700 0.06300 0.06300
C18_11   0.24000 0.23600 0.23600 0.05700 0.06300 0.06300
C18_12   0.24000 0.23600 0.23600 0.05700 0.06300 0.06300
C18_13   0.24000 0.23600 0.23600 0.05700 0.06300 0.06300
C18_14   0.24000 0.23600 0.23600 0.05700 0.06300 0.06300
C18_15   0.24000 0.23600 0.23600 0.05700 0.06300 0.06300
C18_16   0.24000 0.23600 0.23600 0.05700 0.06300 0.06300
C18_17   0.24000 0.23600 0.23600 0.05700 0.06300 0.06300
C18_18   0.24000 0.23600 0.23600 0.05700 0.06300 0.06300
C18_19   0.24000 0.23600 0.23600 0.05700 0.06300 0.06300
C18_20   0.24000 0.23600 0.23600 0.05700 0.06300 0.06300
C18_21   0.24000 0.23600 0.23600 0.05700 0.06300 0.06300
C18_22   0.24000 0.23600 0.23600 0.05700 0.06300 0.06300
C18_23   0.24000 0.23600 0.23600 0.05700 0.06300 0.06300
C18_24   0.24000 0.23600 0.23600 0.05700 0.06300 0.06300
C18_25   0.24000 0.23600 0.23600 0.05700 0.06300 0.06300
C18_26   0.24000 0.23600 0.23600 0.05700 0.06300 0.06300
C18_27   0.24000 0.23600 0.23600 0.05700 0.06300 0.06300
C18_28   0.24000 0.23600 0.23600 0.05700 0.06300 0.06300
C18_29   0.24000 0.23600 0.23600 0.05700 0.06300 0.06300
C18_30   0.24000 0.23600 0.23600 0.05700 0.06300 0.06300
C18_31   0.24000 0.23600 0.23600 0.05700 0.06300 0.06300
C18_32   0.24000 0.23600 0.23600 0.05700 0.06300 0.06300
C18_33   0.24000 0.23600 0.23600 0.05700 0.06300 0.06300
C18_34   0.24000 0.23600 0.23600 0.05700 0.06300 0.06300
C18_35   0.24000 0.23600 0.23600 0.05700 0.06300 0.06300
C18_36   0.24000 0.23600 0.23600 0.05700 0.06300 0.06300
C18_37   0.24000 0.23600 0.23600 0.05700 0.06300 0.06300
C18_38   0.24000 0.23600 0.23600 0.05700 0.06300 0.06300
C18_39   0.24000 0.23600 0.23600 0.05700 0.06300 0.06300
C18_40   0.24000 0.23600 0.23600 0.05700 0.06300 0.06300
C18_41   0.24000 0.23600 0.23600 0.05700 0.06300 0.06300
C18_42   0.24000 0.23600 0.23600 0.05700 0.06300 0.06300
C18_43   0.24000 0.23600 0.23600 0.05700 0.06300 0.06300
C18_44   0.24000 0.23600 0.23600 0.05700 0.06300 0.06300
C18_45   0.24000 0.23600 0.23600 0.05700 0.06300 0.06300
C18_46   0.24000 0.23600 0.23600 0.05700 0.06300 0.06300
C18_47   0.24000 0.23600 0.23600 0.05700 0.06300 0.06300
C18_48   0.24000 0.23600 0.23600 0.05700 0.06300 0.06300
C18_49   0.24000 0.23600 0.23600 0.05700 0.06300 0.06300
C18_50   0.24000 0.23600 0.23600 0.05700 0.06300 0.06300
C18_51   0.24000 0.23600 0.23600 0.05700 0.06300 0.06300
C18_52   0.24000 0.23600 0.23600 0.05700 0.06300 0.06300
C18_53   0.24000 0.23600 0.23600 0.05700 0.06300 0.06300
C18_54   0.24000 0.23600 0.23600 0.05700 0.06300 0.06300
C18_55   0.24000 0.23600 0.23600 0.05700 0.06300 0.06300
C18_56   0.24000 0.23600 0.23600 0.05700 0.06300 0.06300
C18_57   0.24000 0.23600 0.23600 0.05700 0.06300 0.06300
C18_58   0.24000 0.23600 0.23600 0.05700 0.06300 0.06300
C18_59   0.24000 0.23600 0.23600 0.05700 0.06300 0.06300
C18_60   0.24000 0.23600 0.23600 0.05700 0.06300 0.06300
C18_61   0.24000 0.23600 0.23600 0.05700 0.06300 0.06300
C18_62   0.24000 0.23600 0.23600 0.05700 0.06300 0.06300
C18_63   0.24000 0.23600 0.23600 0.05700 0.06300 0.06300
C18_64   0.24000 0.23600 0.23600 0.05700 0.06300 0.06300
C18_65   0.24000 0.23600 0.23600 0.05700 0.06300 0.06300
C18_66   0.24000 0.23600 0.23600 0.05700 0.06300 0.06300
C18_67   0.24000 0.23600 0.23600 0.05700 0.06300 0.06300
C18_68   0.24000 0.23600 0.23600 0.05700 0.06300 0.06300
C18_69   0.24000 0.23600 0.23600 0.05700 0.06300 0.06300
C18_70   0.24000 0.23600 0.23600 0.05700 0.06300 0.06300
C18_71   0.24000 0.23600 0.23600 0.05700 0.06300 0.06300
C18_72   0.24000 0.23600 0.23600 0.05700 0.06300 0.06300
C18_73   0.24000 0.23600 0.23600 0.05700 0.06300 0.06300
C18_74   0.24000 0.23600 0.23600 0.05700 0.06300 0.06300
C18_75   0.24000 0.23600 0.23600 0.05700 0.06300 0.06300
C18_76   0.24000 0.23600 0.23600 0.05700 0.06300 0.06300
C18_77   0.24000 0.23600 0.23600 0.05700 0.06300 0.06300
C18_78   0.24000 0.23600 0.23600 0.05700 0.06300 0.06300
C18_79   0.24000 0.23600 0.23600 0.05700 0.06300 0.06300
C18_80   0.24000 0.23600 0.23600 0.05700 0.06300 0.06300
C18_81   0.24000 0.23600 0.23600 0.05700 0.06300 0.06300
C18_82   0.24000 0.23600 0.23600 0.05700 0.06300 0.06300
C18_83   0.24000 0.23600 0.23600 0.05700 0.06300 0.06300
C18_84   0.24000 0.23600 0.23600 0.05700 0.06300 0.06300
C18_85   0.24000 0.23600 0.23600 0.05700 0.06300 0.06300
C18_86   0.24000 0.23600 0.23600 0.05700 0.06300 0.06300
C18_87   0.24000 0.23600 0.23600 0.05700 0.06300 0.06300
C18_88   0.24000 0.23600 0.23600 0.05700 0.06300 0.06300
C18_89   0.24000 0.23600 0.23600 0.05700 0.06300 0.06300
C18_90   0.24000 0.23600 0.23600 0.05700 0.06300 0.06300
C18_91   0.24000 0.23600 0.23600 0.05700 0.06300 0.06300
C18_92   0.24000 0.23600 0.23600 0.05700 0.06300 0.06300
C18_93   0.24000 0.23600 0.23600 0.05700 0.06300 0.06300
C18_94   0.24000 0.23600 0.23600 0.05700 0.06300 0.06300
C18_95   0.24000 0.23600 0.23600 0.05700 0.06300 0.06300
C18_96   0.24000 0.23600 0.23600 0.05700 0.06300 0.06300
C19   0.23900 0.23500 0.23900 0.06000 0.06100 0.06000
C19_2   0.23900 0.23500 0.23900 0.06000 0.06100 0.06000
C19_3   0.23900 0.23500 0.23900 0.06000 0.06100 0.06000
C19_4   0.23900 0.23500 0.23900 0.06000 0.06100 0.06000
C19_5   0.23900 0.23500 0.23900 0.06000 0.06100 0.06000
C19_6   0.23900 0.23500 0.23900 0.06000 0.06100 0.06000
C19_7   0.23900 0.23500 0.23900 0.06000 0.06100 0.06000
C19_8   0.23900 0.23500 0.23900 0.06000 0.06100 0.06000
C19_9   0.23900 0.23500 0.23900 0.06000 0.06100 0.06000
C19_10   0.23900 0.23500 0.23900 0.06000 0.06100 0.06000
C19_11   0.23900 0.23500 0.23900 0.06000 0.06100 0.06000
C19_12   0.23900 0.23500 0.23900 0.06000 0.06100 0.06000
C19_13   0.23900 0.23500 0.23900 0.06000 0.06100 0.06000
C19_14   0.23900 0.23500 0.23900 0.06000 0.06100 0.06000
C19_15   0.23900 0.23500 0.23900 0.06000 0.06100 0.06000
C19_16   0.23900 0.23500 0.23900 0.06000 0.06100 0.06000
C19_17   0.23900 0.23500 0.23900 0.06000 0.06100 0.06000
C19_18   0.23900 0.23500 0.23900 0.06000 0.06100 0.06000
C19_19   0.23900 0.23500 0.23900 0.06000 0.06100 0.06000
C19_20   0.23900 0.23500 0.23900 0.06000 0.06100 0.06000
C19_21   0.23900 0.23500 0.23900 0.06000 0.06100 0.06000
C19_22   0.23900 0.23500 0.23900 0.06000 0.06100 0.06000
C19_23   0.23900 0.23500 0.23900 0.06000 0.06100 0.06000
C19_24   0.23900 0.23500 0.23900 0.06000 0.06100 0.06000
C19_25   0.23900 0.23500 0.23900 0.06000 0.06100 0.06000
C19_26   0.23900 0.23500 0.23900 0.06000 0.06100 0.06000
C19_27   0.23900 0.23500 0.23900 0.06000 0.06100 0.06000
C19_28   0.23900 0.23500 0.23900 0.06000 0.06100 0.06000
C19_29   0.23900 0.23500 0.23900 0.06000 0.06100 0.06000
C19_30   0.23900 0.23500 0.23900 0.06000 0.06100 0.06000
C19_31   0.23900 0.23500 0.23900 0.06000 0.06100 0.06000
C19_32   0.23900 0.23500 0.23900 0.06000 0.06100 0.06000
C19_33   0.23900 0.23500 0.23900 0.06000 0.06100 0.06000
C19_34   0.23900 0.23500 0.23900 0.06000 0.06100 0.06000
C19_35   0.23900 0.23500 0.23900 0.06000 0.06100 0.06000
C19_36   0.23900 0.23500 0.23900 0.06000 0.06100 0.06000
C19_37   0.23900 0.23500 0.23900 0.06000 0.06100 0.06000
C19_38   0.23900 0.23500 0.23900 0.06000 0.06100 0.06000
C19_39   0.23900 0.23500 0.23900 0.06000 0.06100 0.06000
C19_40   0.23900 0.23500 0.23900 0.06000 0.06100 0.06000
C19_41   0.23900 0.23500 0.23900 0.06000 0.06100 0.06000
C19_42   0.23900 0.23500 0.23900 0.06000 0.06100 0.06000
C19_43   0.23900 0.23500 0.23900 0.06000 0.06100 0.06000
C19_44   0.23900 0.23500 0.23900 0.06000 0.06100 0.06000
C19_45   0.23900 0.23500 0.23900 0.06000 0.06100 0.06000
C19_46   0.23900 0.23500 0.23900 0.06000 0.06100 0.06000
C19_47   0.23900 0.23500 0.23900 0.06000 0.06100 0.06000
C19_48   0.23900 0.23500 0.23900 0.06000 0.06100 0.06000
C19_49   0.23900 0.23500 0.23900 0.06000 0.06100 0.06000
C19_50   0.23900 0.23500 0.23900 0.06000 0.06100 0.06000
C19_51   0.23900 0.23500 0.23900 0.06000 0.06100 0.06000
C19_52   0.23900 0.23500 0.23900 0.06000 0.06100 0.06000
C19_53   0.23900 0.23500 0.23900 0.06000 0.06100 0.06000
C19_54   0.23900 0.23500 0.23900 0.06000 0.06100 0.06000
C19_55   0.23900 0.23500 0.23900 0.06000 0.06100 0.06000
C19_56   0.23900 0.23500 0.23900 0.06000 0.06100 0.06000
C19_57   0.23900 0.23500 0.23900 0.06000 0.06100 0.06000
C19_58   0.23900 0.23500 0.23900 0.06000 0.06100 0.06000
C19_59   0.23900 0.23500 0.23900 0.06000 0.06100 0.06000
C19_60   0.23900 0.23500 0.23900 0.06000 0.06100 0.06000
C19_61   0.23900 0.23500 0.23900 0.06000 0.06100 0.06000
C19_62   0.23900 0.23500 0.23900 0.06000 0.06100 0.06000
C19_63   0.23900 0.23500 0.23900 0.06000 0.06100 0.06000
C19_64   0.23900 0.23500 0.23900 0.06000 0.06100 0.06000
C19_65   0.23900 0.23500 0.23900 0.06000 0.06100 0.06000
C19_66   0.23900 0.23500 0.23900 0.06000 0.06100 0.06000
C19_67   0.23900 0.23500 0.23900 0.06000 0.06100 0.06000
C19_68   0.23900 0.23500 0.23900 0.06000 0.06100 0.06000
C19_69   0.23900 0.23500 0.23900 0.06000 0.06100 0.06000
C19_70   0.23900 0.23500 0.23900 0.06000 0.06100 0.06000
C19_71   0.23900 0.23500 0.23900 0.06000 0.06100 0.06000
C19_72   0.23900 0.23500 0.23900 0.06000 0.06100 0.06000
C19_73   0.23900 0.23500 0.23900 0.06000 0.06100 0.06000
C19_74   0.23900 0.23500 0.23900 0.06000 0.06100 0.06000
C19_75   0.23900 0.23500 0.23900 0.06000 0.06100 0.06000
C19_76   0.23900 0.23500 0.23900 0.06000 0.06100 0.06000
C19_77   0.23900 0.23500 0.23900 0.06000 0.06100 0.06000
C19_78   0.23900 0.23500 0.23900 0.06000 0.06100 0.06000
C19_79   0.23900 0.23500 0.23900 0.06000 0.06100 0.06000
C19_80   0.23900 0.23500 0.23900 0.06000 0.06100 0.06000
C19_81   0.23900 0.23500 0.23900 0.06000 0.06100 0.06000
C19_82   0.23900 0.23500 0.23900 0.06000 0.06100 0.06000
C19_83   0.23900 0.23500 0.23900 0.06000 0.06100 0.06000
C19_84   0.23900 0.23500 0.23900 0.06000 0.06100 0.06000
C19_85   0.23900 0.23500 0.23900 0.06000 0.06100 0.06000
C19_86   0.23900 0.23500 0.23900 0.06000 0.06100 0.06000
C19_87   0.23900 0.23500 0.23900 0.06000 0.06100 0.06000
C19_88   0.23900 0.23500 0.23900 0.06000 0.06100 0.06000
C19_89   0.23900 0.23500 0.23900 0.06000 0.06100 0.06000
C19_90   0.23900 0.23500 0.23900 0.06000 0.06100 0.06000
C19_91   0.23900 0.23500 0.23900 0.06000 0.06100 0.06000
C19_92   0.23900 0.23500 0.23900 0.06000 0.06100 0.06000
C19_93   0.23900 0.23500 0.23900 0.06000 0.06100 0.06000
C19_94   0.23900 0.23500 0.23900 0.06000 0.06100 0.06000
C19_95   0.23900 0.23500 0.23900 0.06000 0.06100 0.06000
C19_96   0.23900 0.23500 0.23900 0.06000 0.06100 0.06000
Cu1   0.23500 0.23500 0.11600 0.00000 0.00000 0.00100
Cu1_2   0.23500 0.23500 0.11600 0.00000 0.00000 0.00100
Cu1_3   0.23500 0.23500 0.11600 0.00000 0.00000 0.00100
Cu1_4   0.23500 0.23500 0.11600 0.00000 0.00000 0.00100
Cu1_5   0.23500 0.23500 0.11600 0.00000 0.00000 0.00100
Cu1_6   0.23500 0.23500 0.11600 0.00000 0.00000 0.00100
Cu1_7   0.23500 0.23500 0.11600 0.00000 0.00000 0.00100
Cu1_8   0.23500 0.23500 0.11600 0.00000 0.00000 0.00100
Cu1_9   0.23500 0.23500 0.11600 0.00000 0.00000 0.00100
Cu1_10   0.23500 0.23500 0.11600 0.00000 0.00000 0.00100
Cu1_11   0.23500 0.23500 0.11600 0.00000 0.00000 0.00100
Cu1_12   0.23500 0.23500 0.11600 0.00000 0.00000 0.00100
Cu1_13   0.23500 0.23500 0.11600 0.00000 0.00000 0.00100
Cu1_14   0.23500 0.23500 0.11600 0.00000 0.00000 0.00100
Cu1_15   0.23500 0.23500 0.11600 0.00000 0.00000 0.00100
Cu1_16   0.23500 0.23500 0.11600 0.00000 0.00000 0.00100
Cu1_17   0.23500 0.23500 0.11600 0.00000 0.00000 0.00100
Cu1_18   0.23500 0.23500 0.11600 0.00000 0.00000 0.00100
Cu1_19   0.23500 0.23500 0.11600 0.00000 0.00000 0.00100
Cu1_20   0.23500 0.23500 0.11600 0.00000 0.00000 0.00100
Cu1_21   0.23500 0.23500 0.11600 0.00000 0.00000 0.00100
Cu1_22   0.23500 0.23500 0.11600 0.00000 0.00000 0.00100
Cu1_23   0.23500 0.23500 0.11600 0.00000 0.00000 0.00100
Cu1_24   0.23500 0.23500 0.11600 0.00000 0.00000 0.00100
Cu1_25   0.23500 0.23500 0.11600 0.00000 0.00000 0.00100
Cu1_26   0.23500 0.23500 0.11600 0.00000 0.00000 0.00100
Cu1_27   0.23500 0.23500 0.11600 0.00000 0.00000 0.00100
Cu1_28   0.23500 0.23500 0.11600 0.00000 0.00000 0.00100
Cu1_29   0.23500 0.23500 0.11600 0.00000 0.00000 0.00100
Cu1_30   0.23500 0.23500 0.11600 0.00000 0.00000 0.00100
Cu1_31   0.23500 0.23500 0.11600 0.00000 0.00000 0.00100
Cu1_32   0.23500 0.23500 0.11600 0.00000 0.00000 0.00100
Cu1_33   0.23500 0.23500 0.11600 0.00000 0.00000 0.00100
Cu1_34   0.23500 0.23500 0.11600 0.00000 0.00000 0.00100
Cu1_35   0.23500 0.23500 0.11600 0.00000 0.00000 0.00100
Cu1_36   0.23500 0.23500 0.11600 0.00000 0.00000 0.00100
Cu1_37   0.23500 0.23500 0.11600 0.00000 0.00000 0.00100
Cu1_38   0.23500 0.23500 0.11600 0.00000 0.00000 0.00100
Cu1_39   0.23500 0.23500 0.11600 0.00000 0.00000 0.00100
Cu1_40   0.23500 0.23500 0.11600 0.00000 0.00000 0.00100
Cu1_41   0.23500 0.23500 0.11600 0.00000 0.00000 0.00100
Cu1_42   0.23500 0.23500 0.11600 0.00000 0.00000 0.00100
Cu1_43   0.23500 0.23500 0.11600 0.00000 0.00000 0.00100
Cu1_44   0.23500 0.23500 0.11600 0.00000 0.00000 0.00100
Cu1_45   0.23500 0.23500 0.11600 0.00000 0.00000 0.00100
Cu1_46   0.23500 0.23500 0.11600 0.00000 0.00000 0.00100
Cu1_47   0.23500 0.23500 0.11600 0.00000 0.00000 0.00100
Cu1_48   0.23500 0.23500 0.11600 0.00000 0.00000 0.00100
Cu2   0.20900 0.20900 0.16900 0.00000 0.00000 -0.02500
Cu2_2   0.20900 0.20900 0.16900 0.00000 0.00000 -0.02500
Cu2_3   0.20900 0.20900 0.16900 0.00000 0.00000 -0.02500
Cu2_4   0.20900 0.20900 0.16900 0.00000 0.00000 -0.02500
Cu2_5   0.20900 0.20900 0.16900 0.00000 0.00000 -0.02500
Cu2_6   0.20900 0.20900 0.16900 0.00000 0.00000 -0.02500
Cu2_7   0.20900 0.20900 0.16900 0.00000 0.00000 -0.02500
Cu2_8   0.20900 0.20900 0.16900 0.00000 0.00000 -0.02500
Cu2_9   0.20900 0.20900 0.16900 0.00000 0.00000 -0.02500
Cu2_10   0.20900 0.20900 0.16900 0.00000 0.00000 -0.02500
Cu2_11   0.20900 0.20900 0.16900 0.00000 0.00000 -0.02500
Cu2_12   0.20900 0.20900 0.16900 0.00000 0.00000 -0.02500
Cu2_13   0.20900 0.20900 0.16900 0.00000 0.00000 -0.02500
Cu2_14   0.20900 0.20900 0.16900 0.00000 0.00000 -0.02500
Cu2_15   0.20900 0.20900 0.16900 0.00000 0.00000 -0.02500
Cu2_16   0.20900 0.20900 0.16900 0.00000 0.00000 -0.02500
Cu2_17   0.20900 0.20900 0.16900 0.00000 0.00000 -0.02500
Cu2_18   0.20900 0.20900 0.16900 0.00000 0.00000 -0.02500
Cu2_19   0.20900 0.20900 0.16900 0.00000 0.00000 -0.02500
Cu2_20   0.20900 0.20900 0.16900 0.00000 0.00000 -0.02500
Cu2_21   0.20900 0.20900 0.16900 0.00000 0.00000 -0.02500
Cu2_22   0.20900 0.20900 0.16900 0.00000 0.00000 -0.02500
Cu2_23   0.20900 0.20900 0.16900 0.00000 0.00000 -0.02500
Cu2_24   0.20900 0.20900 0.16900 0.00000 0.00000 -0.02500
Cu2_25   0.20900 0.20900 0.16900 0.00000 0.00000 -0.02500
Cu2_26   0.20900 0.20900 0.16900 0.00000 0.00000 -0.02500
Cu2_27   0.20900 0.20900 0.16900 0.00000 0.00000 -0.02500
Cu2_28   0.20900 0.20900 0.16900 0.00000 0.00000 -0.02500
Cu2_29   0.20900 0.20900 0.16900 0.00000 0.00000 -0.02500
Cu2_30   0.20900 0.20900 0.16900 0.00000 0.00000 -0.02500
Cu2_31   0.20900 0.20900 0.16900 0.00000 0.00000 -0.02500
Cu2_32   0.20900 0.20900 0.16900 0.00000 0.00000 -0.02500
Cu2_33   0.20900 0.20900 0.16900 0.00000 0.00000 -0.02500
Cu2_34   0.20900 0.20900 0.16900 0.00000 0.00000 -0.02500
Cu2_35   0.20900 0.20900 0.16900 0.00000 0.00000 -0.02500
Cu2_36   0.20900 0.20900 0.16900 0.00000 0.00000 -0.02500
Cu2_37   0.20900 0.20900 0.16900 0.00000 0.00000 -0.02500
Cu2_38   0.20900 0.20900 0.16900 0.00000 0.00000 -0.02500
Cu2_39   0.20900 0.20900 0.16900 0.00000 0.00000 -0.02500
Cu2_40   0.20900 0.20900 0.16900 0.00000 0.00000 -0.02500
Cu2_41   0.20900 0.20900 0.16900 0.00000 0.00000 -0.02500
Cu2_42   0.20900 0.20900 0.16900 0.00000 0.00000 -0.02500
Cu2_43   0.20900 0.20900 0.16900 0.00000 0.00000 -0.02500
Cu2_44   0.20900 0.20900 0.16900 0.00000 0.00000 -0.02500
Cu2_45   0.20900 0.20900 0.16900 0.00000 0.00000 -0.02500
Cu2_46   0.20900 0.20900 0.16900 0.00000 0.00000 -0.02500
Cu2_47   0.20900 0.20900 0.16900 0.00000 0.00000 -0.02500
Cu2_48   0.20900 0.20900 0.16900 0.00000 0.00000 -0.02500
O1   0.26300 0.18900 0.18100 0.00700 0.03900 0.00300
O1_2   0.26300 0.18900 0.18100 0.00700 0.03900 0.00300
O1_3   0.26300 0.18900 0.18100 0.00700 0.03900 0.00300
O1_4   0.26300 0.18900 0.18100 0.00700 0.03900 0.00300
O1_5   0.26300 0.18900 0.18100 0.00700 0.03900 0.00300
O1_6   0.26300 0.18900 0.18100 0.00700 0.03900 0.00300
O1_7   0.26300 0.18900 0.18100 0.00700 0.03900 0.00300
O1_8   0.26300 0.18900 0.18100 0.00700 0.03900 0.00300
O1_9   0.26300 0.18900 0.18100 0.00700 0.03900 0.00300
O1_10   0.26300 0.18900 0.18100 0.00700 0.03900 0.00300
O1_11   0.26300 0.18900 0.18100 0.00700 0.03900 0.00300
O1_12   0.26300 0.18900 0.18100 0.00700 0.03900 0.00300
O1_13   0.26300 0.18900 0.18100 0.00700 0.03900 0.00300
O1_14   0.26300 0.18900 0.18100 0.00700 0.03900 0.00300
O1_15   0.26300 0.18900 0.18100 0.00700 0.03900 0.00300
O1_16   0.26300 0.18900 0.18100 0.00700 0.03900 0.00300
O1_17   0.26300 0.18900 0.18100 0.00700 0.03900 0.00300
O1_18   0.26300 0.18900 0.18100 0.00700 0.03900 0.00300
O1_19   0.26300 0.18900 0.18100 0.00700 0.03900 0.00300
O1_20   0.26300 0.18900 0.18100 0.00700 0.03900 0.00300
O1_21   0.26300 0.18900 0.18100 0.00700 0.03900 0.00300
O1_22   0.26300 0.18900 0.18100 0.00700 0.03900 0.00300
O1_23   0.26300 0.18900 0.18100 0.00700 0.03900 0.00300
O1_24   0.26300 0.18900 0.18100 0.00700 0.03900 0.00300
O1_25   0.26300 0.18900 0.18100 0.00700 0.03900 0.00300
O1_26   0.26300 0.18900 0.18100 0.00700 0.03900 0.00300
O1_27   0.26300 0.18900 0.18100 0.00700 0.03900 0.00300
O1_28   0.26300 0.18900 0.18100 0.00700 0.03900 0.00300
O1_29   0.26300 0.18900 0.18100 0.00700 0.03900 0.00300
O1_30   0.26300 0.18900 0.18100 0.00700 0.03900 0.00300
O1_31   0.26300 0.18900 0.18100 0.00700 0.03900 0.00300
O1_32   0.26300 0.18900 0.18100 0.00700 0.03900 0.00300
O1_33   0.26300 0.18900 0.18100 0.00700 0.03900 0.00300
O1_34   0.26300 0.18900 0.18100 0.00700 0.03900 0.00300
O1_35   0.26300 0.18900 0.18100 0.00700 0.03900 0.00300
O1_36   0.26300 0.18900 0.18100 0.00700 0.03900 0.00300
O1_37   0.26300 0.18900 0.18100 0.00700 0.03900 0.00300
O1_38   0.26300 0.18900 0.18100 0.00700 0.03900 0.00300
O1_39   0.26300 0.18900 0.18100 0.00700 0.03900 0.00300
O1_40   0.26300 0.18900 0.18100 0.00700 0.03900 0.00300
O1_41   0.26300 0.18900 0.18100 0.00700 0.03900 0.00300
O1_42   0.26300 0.18900 0.18100 0.00700 0.03900 0.00300
O1_43   0.26300 0.18900 0.18100 0.00700 0.03900 0.00300
O1_44   0.26300 0.18900 0.18100 0.00700 0.03900 0.00300
O1_45   0.26300 0.18900 0.18100 0.00700 0.03900 0.00300
O1_46   0.26300 0.18900 0.18100 0.00700 0.03900 0.00300
O1_47   0.26300 0.18900 0.18100 0.00700 0.03900 0.00300
O1_48   0.26300 0.18900 0.18100 0.00700 0.03900 0.00300
O1_49   0.26300 0.18900 0.18100 0.00700 0.03900 0.00300
O1_50   0.26300 0.18900 0.18100 0.00700 0.03900 0.00300
O1_51   0.26300 0.18900 0.18100 0.00700 0.03900 0.00300
O1_52   0.26300 0.18900 0.18100 0.00700 0.03900 0.00300
O1_53   0.26300 0.18900 0.18100 0.00700 0.03900 0.00300
O1_54   0.26300 0.18900 0.18100 0.00700 0.03900 0.00300
O1_55   0.26300 0.18900 0.18100 0.00700 0.03900 0.00300
O1_56   0.26300 0.18900 0.18100 0.00700 0.03900 0.00300
O1_57   0.26300 0.18900 0.18100 0.00700 0.03900 0.00300
O1_58   0.26300 0.18900 0.18100 0.00700 0.03900 0.00300
O1_59   0.26300 0.18900 0.18100 0.00700 0.03900 0.00300
O1_60   0.26300 0.18900 0.18100 0.00700 0.03900 0.00300
O1_61   0.26300 0.18900 0.18100 0.00700 0.03900 0.00300
O1_62   0.26300 0.18900 0.18100 0.00700 0.03900 0.00300
O1_63   0.26300 0.18900 0.18100 0.00700 0.03900 0.00300
O1_64   0.26300 0.18900 0.18100 0.00700 0.03900 0.00300
O1_65   0.26300 0.18900 0.18100 0.00700 0.03900 0.00300
O1_66   0.26300 0.18900 0.18100 0.00700 0.03900 0.00300
O1_67   0.26300 0.18900 0.18100 0.00700 0.03900 0.00300
O1_68   0.26300 0.18900 0.18100 0.00700 0.03900 0.00300
O1_69   0.26300 0.18900 0.18100 0.00700 0.03900 0.00300
O1_70   0.26300 0.18900 0.18100 0.00700 0.03900 0.00300
O1_71   0.26300 0.18900 0.18100 0.00700 0.03900 0.00300
O1_72   0.26300 0.18900 0.18100 0.00700 0.03900 0.00300
O1_73   0.26300 0.18900 0.18100 0.00700 0.03900 0.00300
O1_74   0.26300 0.18900 0.18100 0.00700 0.03900 0.00300
O1_75   0.26300 0.18900 0.18100 0.00700 0.03900 0.00300
O1_76   0.26300 0.18900 0.18100 0.00700 0.03900 0.00300
O1_77   0.26300 0.18900 0.18100 0.00700 0.03900 0.00300
O1_78   0.26300 0.18900 0.18100 0.00700 0.03900 0.00300
O1_79   0.26300 0.18900 0.18100 0.00700 0.03900 0.00300
O1_80   0.26300 0.18900 0.18100 0.00700 0.03900 0.00300
O1_81   0.26300 0.18900 0.18100 0.00700 0.03900 0.00300
O1_82   0.26300 0.18900 0.18100 0.00700 0.03900 0.00300
O1_83   0.26300 0.18900 0.18100 0.00700 0.03900 0.00300
O1_84   0.26300 0.18900 0.18100 0.00700 0.03900 0.00300
O1_85   0.26300 0.18900 0.18100 0.00700 0.03900 0.00300
O1_86   0.26300 0.18900 0.18100 0.00700 0.03900 0.00300
O1_87   0.26300 0.18900 0.18100 0.00700 0.03900 0.00300
O1_88   0.26300 0.18900 0.18100 0.00700 0.03900 0.00300
O1_89   0.26300 0.18900 0.18100 0.00700 0.03900 0.00300
O1_90   0.26300 0.18900 0.18100 0.00700 0.03900 0.00300
O1_91   0.26300 0.18900 0.18100 0.00700 0.03900 0.00300
O1_92   0.26300 0.18900 0.18100 0.00700 0.03900 0.00300
O1_93   0.26300 0.18900 0.18100 0.00700 0.03900 0.00300
O1_94   0.26300 0.18900 0.18100 0.00700 0.03900 0.00300
O1_95   0.26300 0.18900 0.18100 0.00700 0.03900 0.00300
O1_96   0.26300 0.18900 0.18100 0.00700 0.03900 0.00300
O1_97   0.26300 0.18900 0.18100 0.00700 0.03900 0.00300
O1_98   0.26300 0.18900 0.18100 0.00700 0.03900 0.00300
O1_99   0.26300 0.18900 0.18100 0.00700 0.03900 0.00300
O1_100   0.26300 0.18900 0.18100 0.00700 0.03900 0.00300
O1_101   0.26300 0.18900 0.18100 0.00700 0.03900 0.00300
O1_102   0.26300 0.18900 0.18100 0.00700 0.03900 0.00300
O1_103   0.26300 0.18900 0.18100 0.00700 0.03900 0.00300
O1_104   0.26300 0.18900 0.18100 0.00700 0.03900 0.00300
O1_105   0.26300 0.18900 0.18100 0.00700 0.03900 0.00300
O1_106   0.26300 0.18900 0.18100 0.00700 0.03900 0.00300
O1_107   0.26300 0.18900 0.18100 0.00700 0.03900 0.00300
O1_108   0.26300 0.18900 0.18100 0.00700 0.03900 0.00300
O1_109   0.26300 0.18900 0.18100 0.00700 0.03900 0.00300
O1_110   0.26300 0.18900 0.18100 0.00700 0.03900 0.00300
O1_111   0.26300 0.18900 0.18100 0.00700 0.03900 0.00300
O1_112   0.26300 0.18900 0.18100 0.00700 0.03900 0.00300
O1_113   0.26300 0.18900 0.18100 0.00700 0.03900 0.00300
O1_114   0.26300 0.18900 0.18100 0.00700 0.03900 0.00300
O1_115   0.26300 0.18900 0.18100 0.00700 0.03900 0.00300
O1_116   0.26300 0.18900 0.18100 0.00700 0.03900 0.00300
O1_117   0.26300 0.18900 0.18100 0.00700 0.03900 0.00300
O1_118   0.26300 0.18900 0.18100 0.00700 0.03900 0.00300
O1_119   0.26300 0.18900 0.18100 0.00700 0.03900 0.00300
O1_120   0.26300 0.18900 0.18100 0.00700 0.03900 0.00300
O1_121   0.26300 0.18900 0.18100 0.00700 0.03900 0.00300
O1_122   0.26300 0.18900 0.18100 0.00700 0.03900 0.00300
O1_123   0.26300 0.18900 0.18100 0.00700 0.03900 0.00300
O1_124   0.26300 0.18900 0.18100 0.00700 0.03900 0.00300
O1_125   0.26300 0.18900 0.18100 0.00700 0.03900 0.00300
O1_126   0.26300 0.18900 0.18100 0.00700 0.03900 0.00300
O1_127   0.26300 0.18900 0.18100 0.00700 0.03900 0.00300
O1_128   0.26300 0.18900 0.18100 0.00700 0.03900 0.00300
O1_129   0.26300 0.18900 0.18100 0.00700 0.03900 0.00300
O1_130   0.26300 0.18900 0.18100 0.00700 0.03900 0.00300
O1_131   0.26300 0.18900 0.18100 0.00700 0.03900 0.00300
O1_132   0.26300 0.18900 0.18100 0.00700 0.03900 0.00300
O1_133   0.26300 0.18900 0.18100 0.00700 0.03900 0.00300
O1_134   0.26300 0.18900 0.18100 0.00700 0.03900 0.00300
O1_135   0.26300 0.18900 0.18100 0.00700 0.03900 0.00300
O1_136   0.26300 0.18900 0.18100 0.00700 0.03900 0.00300
O1_137   0.26300 0.18900 0.18100 0.00700 0.03900 0.00300
O1_138   0.26300 0.18900 0.18100 0.00700 0.03900 0.00300
O1_139   0.26300 0.18900 0.18100 0.00700 0.03900 0.00300
O1_140   0.26300 0.18900 0.18100 0.00700 0.03900 0.00300
O1_141   0.26300 0.18900 0.18100 0.00700 0.03900 0.00300
O1_142   0.26300 0.18900 0.18100 0.00700 0.03900 0.00300
O1_143   0.26300 0.18900 0.18100 0.00700 0.03900 0.00300
O1_144   0.26300 0.18900 0.18100 0.00700 0.03900 0.00300
O1_145   0.26300 0.18900 0.18100 0.00700 0.03900 0.00300
O1_146   0.26300 0.18900 0.18100 0.00700 0.03900 0.00300
O1_147   0.26300 0.18900 0.18100 0.00700 0.03900 0.00300
O1_148   0.26300 0.18900 0.18100 0.00700 0.03900 0.00300
O1_149   0.26300 0.18900 0.18100 0.00700 0.03900 0.00300
O1_150   0.26300 0.18900 0.18100 0.00700 0.03900 0.00300
O1_151   0.26300 0.18900 0.18100 0.00700 0.03900 0.00300
O1_152   0.26300 0.18900 0.18100 0.00700 0.03900 0.00300
O1_153   0.26300 0.18900 0.18100 0.00700 0.03900 0.00300
O1_154   0.26300 0.18900 0.18100 0.00700 0.03900 0.00300
O1_155   0.26300 0.18900 0.18100 0.00700 0.03900 0.00300
O1_156   0.26300 0.18900 0.18100 0.00700 0.03900 0.00300
O1_157   0.26300 0.18900 0.18100 0.00700 0.03900 0.00300
O1_158   0.26300 0.18900 0.18100 0.00700 0.03900 0.00300
O1_159   0.26300 0.18900 0.18100 0.00700 0.03900 0.00300
O1_160   0.26300 0.18900 0.18100 0.00700 0.03900 0.00300
O1_161   0.26300 0.18900 0.18100 0.00700 0.03900 0.00300
O1_162   0.26300 0.18900 0.18100 0.00700 0.03900 0.00300
O1_163   0.26300 0.18900 0.18100 0.00700 0.03900 0.00300
O1_164   0.26300 0.18900 0.18100 0.00700 0.03900 0.00300
O1_165   0.26300 0.18900 0.18100 0.00700 0.03900 0.00300
O1_166   0.26300 0.18900 0.18100 0.00700 0.03900 0.00300
O1_167   0.26300 0.18900 0.18100 0.00700 0.03900 0.00300
O1_168   0.26300 0.18900 0.18100 0.00700 0.03900 0.00300
O1_169   0.26300 0.18900 0.18100 0.00700 0.03900 0.00300
O1_170   0.26300 0.18900 0.18100 0.00700 0.03900 0.00300
O1_171   0.26300 0.18900 0.18100 0.00700 0.03900 0.00300
O1_172   0.26300 0.18900 0.18100 0.00700 0.03900 0.00300
O1_173   0.26300 0.18900 0.18100 0.00700 0.03900 0.00300
O1_174   0.26300 0.18900 0.18100 0.00700 0.03900 0.00300
O1_175   0.26300 0.18900 0.18100 0.00700 0.03900 0.00300
O1_176   0.26300 0.18900 0.18100 0.00700 0.03900 0.00300
O1_177   0.26300 0.18900 0.18100 0.00700 0.03900 0.00300
O1_178   0.26300 0.18900 0.18100 0.00700 0.03900 0.00300
O1_179   0.26300 0.18900 0.18100 0.00700 0.03900 0.00300
O1_180   0.26300 0.18900 0.18100 0.00700 0.03900 0.00300
O1_181   0.26300 0.18900 0.18100 0.00700 0.03900 0.00300
O1_182   0.26300 0.18900 0.18100 0.00700 0.03900 0.00300
O1_183   0.26300 0.18900 0.18100 0.00700 0.03900 0.00300
O1_184   0.26300 0.18900 0.18100 0.00700 0.03900 0.00300
O1_185   0.26300 0.18900 0.18100 0.00700 0.03900 0.00300
O1_186   0.26300 0.18900 0.18100 0.00700 0.03900 0.00300
O1_187   0.26300 0.18900 0.18100 0.00700 0.03900 0.00300
O1_188   0.26300 0.18900 0.18100 0.00700 0.03900 0.00300
O1_189   0.26300 0.18900 0.18100 0.00700 0.03900 0.00300
O1_190   0.26300 0.18900 0.18100 0.00700 0.03900 0.00300
O1_191   0.26300 0.18900 0.18100 0.00700 0.03900 0.00300
O1_192   0.26300 0.18900 0.18100 0.00700 0.03900 0.00300
O2   0.25300 0.20000 0.18100 -0.00300 0.04400 0.00200
O2_2   0.25300 0.20000 0.18100 -0.00300 0.04400 0.00200
O2_3   0.25300 0.20000 0.18100 -0.00300 0.04400 0.00200
O2_4   0.25300 0.20000 0.18100 -0.00300 0.04400 0.00200
O2_5   0.25300 0.20000 0.18100 -0.00300 0.04400 0.00200
O2_6   0.25300 0.20000 0.18100 -0.00300 0.04400 0.00200
O2_7   0.25300 0.20000 0.18100 -0.00300 0.04400 0.00200
O2_8   0.25300 0.20000 0.18100 -0.00300 0.04400 0.00200
O2_9   0.25300 0.20000 0.18100 -0.00300 0.04400 0.00200
O2_10   0.25300 0.20000 0.18100 -0.00300 0.04400 0.00200
O2_11   0.25300 0.20000 0.18100 -0.00300 0.04400 0.00200
O2_12   0.25300 0.20000 0.18100 -0.00300 0.04400 0.00200
O2_13   0.25300 0.20000 0.18100 -0.00300 0.04400 0.00200
O2_14   0.25300 0.20000 0.18100 -0.00300 0.04400 0.00200
O2_15   0.25300 0.20000 0.18100 -0.00300 0.04400 0.00200
O2_16   0.25300 0.20000 0.18100 -0.00300 0.04400 0.00200
O2_17   0.25300 0.20000 0.18100 -0.00300 0.04400 0.00200
O2_18   0.25300 0.20000 0.18100 -0.00300 0.04400 0.00200
O2_19   0.25300 0.20000 0.18100 -0.00300 0.04400 0.00200
O2_20   0.25300 0.20000 0.18100 -0.00300 0.04400 0.00200
O2_21   0.25300 0.20000 0.18100 -0.00300 0.04400 0.00200
O2_22   0.25300 0.20000 0.18100 -0.00300 0.04400 0.00200
O2_23   0.25300 0.20000 0.18100 -0.00300 0.04400 0.00200
O2_24   0.25300 0.20000 0.18100 -0.00300 0.04400 0.00200
O2_25   0.25300 0.20000 0.18100 -0.00300 0.04400 0.00200
O2_26   0.25300 0.20000 0.18100 -0.00300 0.04400 0.00200
O2_27   0.25300 0.20000 0.18100 -0.00300 0.04400 0.00200
O2_28   0.25300 0.20000 0.18100 -0.00300 0.04400 0.00200
O2_29   0.25300 0.20000 0.18100 -0.00300 0.04400 0.00200
O2_30   0.25300 0.20000 0.18100 -0.00300 0.04400 0.00200
O2_31   0.25300 0.20000 0.18100 -0.00300 0.04400 0.00200
O2_32   0.25300 0.20000 0.18100 -0.00300 0.04400 0.00200
O2_33   0.25300 0.20000 0.18100 -0.00300 0.04400 0.00200
O2_34   0.25300 0.20000 0.18100 -0.00300 0.04400 0.00200
O2_35   0.25300 0.20000 0.18100 -0.00300 0.04400 0.00200
O2_36   0.25300 0.20000 0.18100 -0.00300 0.04400 0.00200
O2_37   0.25300 0.20000 0.18100 -0.00300 0.04400 0.00200
O2_38   0.25300 0.20000 0.18100 -0.00300 0.04400 0.00200
O2_39   0.25300 0.20000 0.18100 -0.00300 0.04400 0.00200
O2_40   0.25300 0.20000 0.18100 -0.00300 0.04400 0.00200
O2_41   0.25300 0.20000 0.18100 -0.00300 0.04400 0.00200
O2_42   0.25300 0.20000 0.18100 -0.00300 0.04400 0.00200
O2_43   0.25300 0.20000 0.18100 -0.00300 0.04400 0.00200
O2_44   0.25300 0.20000 0.18100 -0.00300 0.04400 0.00200
O2_45   0.25300 0.20000 0.18100 -0.00300 0.04400 0.00200
O2_46   0.25300 0.20000 0.18100 -0.00300 0.04400 0.00200
O2_47   0.25300 0.20000 0.18100 -0.00300 0.04400 0.00200
O2_48   0.25300 0.20000 0.18100 -0.00300 0.04400 0.00200
O2_49   0.25300 0.20000 0.18100 -0.00300 0.04400 0.00200
O2_50   0.25300 0.20000 0.18100 -0.00300 0.04400 0.00200
O2_51   0.25300 0.20000 0.18100 -0.00300 0.04400 0.00200
O2_52   0.25300 0.20000 0.18100 -0.00300 0.04400 0.00200
O2_53   0.25300 0.20000 0.18100 -0.00300 0.04400 0.00200
O2_54   0.25300 0.20000 0.18100 -0.00300 0.04400 0.00200
O2_55   0.25300 0.20000 0.18100 -0.00300 0.04400 0.00200
O2_56   0.25300 0.20000 0.18100 -0.00300 0.04400 0.00200
O2_57   0.25300 0.20000 0.18100 -0.00300 0.04400 0.00200
O2_58   0.25300 0.20000 0.18100 -0.00300 0.04400 0.00200
O2_59   0.25300 0.20000 0.18100 -0.00300 0.04400 0.00200
O2_60   0.25300 0.20000 0.18100 -0.00300 0.04400 0.00200
O2_61   0.25300 0.20000 0.18100 -0.00300 0.04400 0.00200
O2_62   0.25300 0.20000 0.18100 -0.00300 0.04400 0.00200
O2_63   0.25300 0.20000 0.18100 -0.00300 0.04400 0.00200
O2_64   0.25300 0.20000 0.18100 -0.00300 0.04400 0.00200
O2_65   0.25300 0.20000 0.18100 -0.00300 0.04400 0.00200
O2_66   0.25300 0.20000 0.18100 -0.00300 0.04400 0.00200
O2_67   0.25300 0.20000 0.18100 -0.00300 0.04400 0.00200
O2_68   0.25300 0.20000 0.18100 -0.00300 0.04400 0.00200
O2_69   0.25300 0.20000 0.18100 -0.00300 0.04400 0.00200
O2_70   0.25300 0.20000 0.18100 -0.00300 0.04400 0.00200
O2_71   0.25300 0.20000 0.18100 -0.00300 0.04400 0.00200
O2_72   0.25300 0.20000 0.18100 -0.00300 0.04400 0.00200
O2_73   0.25300 0.20000 0.18100 -0.00300 0.04400 0.00200
O2_74   0.25300 0.20000 0.18100 -0.00300 0.04400 0.00200
O2_75   0.25300 0.20000 0.18100 -0.00300 0.04400 0.00200
O2_76   0.25300 0.20000 0.18100 -0.00300 0.04400 0.00200
O2_77   0.25300 0.20000 0.18100 -0.00300 0.04400 0.00200
O2_78   0.25300 0.20000 0.18100 -0.00300 0.04400 0.00200
O2_79   0.25300 0.20000 0.18100 -0.00300 0.04400 0.00200
O2_80   0.25300 0.20000 0.18100 -0.00300 0.04400 0.00200
O2_81   0.25300 0.20000 0.18100 -0.00300 0.04400 0.00200
O2_82   0.25300 0.20000 0.18100 -0.00300 0.04400 0.00200
O2_83   0.25300 0.20000 0.18100 -0.00300 0.04400 0.00200
O2_84   0.25300 0.20000 0.18100 -0.00300 0.04400 0.00200
O2_85   0.25300 0.20000 0.18100 -0.00300 0.04400 0.00200
O2_86   0.25300 0.20000 0.18100 -0.00300 0.04400 0.00200
O2_87   0.25300 0.20000 0.18100 -0.00300 0.04400 0.00200
O2_88   0.25300 0.20000 0.18100 -0.00300 0.04400 0.00200
O2_89   0.25300 0.20000 0.18100 -0.00300 0.04400 0.00200
O2_90   0.25300 0.20000 0.18100 -0.00300 0.04400 0.00200
O2_91   0.25300 0.20000 0.18100 -0.00300 0.04400 0.00200
O2_92   0.25300 0.20000 0.18100 -0.00300 0.04400 0.00200
O2_93   0.25300 0.20000 0.18100 -0.00300 0.04400 0.00200
O2_94   0.25300 0.20000 0.18100 -0.00300 0.04400 0.00200
O2_95   0.25300 0.20000 0.18100 -0.00300 0.04400 0.00200
O2_96   0.25300 0.20000 0.18100 -0.00300 0.04400 0.00200
O2_97   0.25300 0.20000 0.18100 -0.00300 0.04400 0.00200
O2_98   0.25300 0.20000 0.18100 -0.00300 0.04400 0.00200
O2_99   0.25300 0.20000 0.18100 -0.00300 0.04400 0.00200
O2_100   0.25300 0.20000 0.18100 -0.00300 0.04400 0.00200
O2_101   0.25300 0.20000 0.18100 -0.00300 0.04400 0.00200
O2_102   0.25300 0.20000 0.18100 -0.00300 0.04400 0.00200
O2_103   0.25300 0.20000 0.18100 -0.00300 0.04400 0.00200
O2_104   0.25300 0.20000 0.18100 -0.00300 0.04400 0.00200
O2_105   0.25300 0.20000 0.18100 -0.00300 0.04400 0.00200
O2_106   0.25300 0.20000 0.18100 -0.00300 0.04400 0.00200
O2_107   0.25300 0.20000 0.18100 -0.00300 0.04400 0.00200
O2_108   0.25300 0.20000 0.18100 -0.00300 0.04400 0.00200
O2_109   0.25300 0.20000 0.18100 -0.00300 0.04400 0.00200
O2_110   0.25300 0.20000 0.18100 -0.00300 0.04400 0.00200
O2_111   0.25300 0.20000 0.18100 -0.00300 0.04400 0.00200
O2_112   0.25300 0.20000 0.18100 -0.00300 0.04400 0.00200
O2_113   0.25300 0.20000 0.18100 -0.00300 0.04400 0.00200
O2_114   0.25300 0.20000 0.18100 -0.00300 0.04400 0.00200
O2_115   0.25300 0.20000 0.18100 -0.00300 0.04400 0.00200
O2_116   0.25300 0.20000 0.18100 -0.00300 0.04400 0.00200
O2_117   0.25300 0.20000 0.18100 -0.00300 0.04400 0.00200
O2_118   0.25300 0.20000 0.18100 -0.00300 0.04400 0.00200
O2_119   0.25300 0.20000 0.18100 -0.00300 0.04400 0.00200
O2_120   0.25300 0.20000 0.18100 -0.00300 0.04400 0.00200
O2_121   0.25300 0.20000 0.18100 -0.00300 0.04400 0.00200
O2_122   0.25300 0.20000 0.18100 -0.00300 0.04400 0.00200
O2_123   0.25300 0.20000 0.18100 -0.00300 0.04400 0.00200
O2_124   0.25300 0.20000 0.18100 -0.00300 0.04400 0.00200
O2_125   0.25300 0.20000 0.18100 -0.00300 0.04400 0.00200
O2_126   0.25300 0.20000 0.18100 -0.00300 0.04400 0.00200
O2_127   0.25300 0.20000 0.18100 -0.00300 0.04400 0.00200
O2_128   0.25300 0.20000 0.18100 -0.00300 0.04400 0.00200
O2_129   0.25300 0.20000 0.18100 -0.00300 0.04400 0.00200
O2_130   0.25300 0.20000 0.18100 -0.00300 0.04400 0.00200
O2_131   0.25300 0.20000 0.18100 -0.00300 0.04400 0.00200
O2_132   0.25300 0.20000 0.18100 -0.00300 0.04400 0.00200
O2_133   0.25300 0.20000 0.18100 -0.00300 0.04400 0.00200
O2_134   0.25300 0.20000 0.18100 -0.00300 0.04400 0.00200
O2_135   0.25300 0.20000 0.18100 -0.00300 0.04400 0.00200
O2_136   0.25300 0.20000 0.18100 -0.00300 0.04400 0.00200
O2_137   0.25300 0.20000 0.18100 -0.00300 0.04400 0.00200
O2_138   0.25300 0.20000 0.18100 -0.00300 0.04400 0.00200
O2_139   0.25300 0.20000 0.18100 -0.00300 0.04400 0.00200
O2_140   0.25300 0.20000 0.18100 -0.00300 0.04400 0.00200
O2_141   0.25300 0.20000 0.18100 -0.00300 0.04400 0.00200
O2_142   0.25300 0.20000 0.18100 -0.00300 0.04400 0.00200
O2_143   0.25300 0.20000 0.18100 -0.00300 0.04400 0.00200
O2_144   0.25300 0.20000 0.18100 -0.00300 0.04400 0.00200
O2_145   0.25300 0.20000 0.18100 -0.00300 0.04400 0.00200
O2_146   0.25300 0.20000 0.18100 -0.00300 0.04400 0.00200
O2_147   0.25300 0.20000 0.18100 -0.00300 0.04400 0.00200
O2_148   0.25300 0.20000 0.18100 -0.00300 0.04400 0.00200
O2_149   0.25300 0.20000 0.18100 -0.00300 0.04400 0.00200
O2_150   0.25300 0.20000 0.18100 -0.00300 0.04400 0.00200
O2_151   0.25300 0.20000 0.18100 -0.00300 0.04400 0.00200
O2_152   0.25300 0.20000 0.18100 -0.00300 0.04400 0.00200
O2_153   0.25300 0.20000 0.18100 -0.00300 0.04400 0.00200
O2_154   0.25300 0.20000 0.18100 -0.00300 0.04400 0.00200
O2_155   0.25300 0.20000 0.18100 -0.00300 0.04400 0.00200
O2_156   0.25300 0.20000 0.18100 -0.00300 0.04400 0.00200
O2_157   0.25300 0.20000 0.18100 -0.00300 0.04400 0.00200
O2_158   0.25300 0.20000 0.18100 -0.00300 0.04400 0.00200
O2_159   0.25300 0.20000 0.18100 -0.00300 0.04400 0.00200
O2_160   0.25300 0.20000 0.18100 -0.00300 0.04400 0.00200
O2_161   0.25300 0.20000 0.18100 -0.00300 0.04400 0.00200
O2_162   0.25300 0.20000 0.18100 -0.00300 0.04400 0.00200
O2_163   0.25300 0.20000 0.18100 -0.00300 0.04400 0.00200
O2_164   0.25300 0.20000 0.18100 -0.00300 0.04400 0.00200
O2_165   0.25300 0.20000 0.18100 -0.00300 0.04400 0.00200
O2_166   0.25300 0.20000 0.18100 -0.00300 0.04400 0.00200
O2_167   0.25300 0.20000 0.18100 -0.00300 0.04400 0.00200
O2_168   0.25300 0.20000 0.18100 -0.00300 0.04400 0.00200
O2_169   0.25300 0.20000 0.18100 -0.00300 0.04400 0.00200
O2_170   0.25300 0.20000 0.18100 -0.00300 0.04400 0.00200
O2_171   0.25300 0.20000 0.18100 -0.00300 0.04400 0.00200
O2_172   0.25300 0.20000 0.18100 -0.00300 0.04400 0.00200
O2_173   0.25300 0.20000 0.18100 -0.00300 0.04400 0.00200
O2_174   0.25300 0.20000 0.18100 -0.00300 0.04400 0.00200
O2_175   0.25300 0.20000 0.18100 -0.00300 0.04400 0.00200
O2_176   0.25300 0.20000 0.18100 -0.00300 0.04400 0.00200
O2_177   0.25300 0.20000 0.18100 -0.00300 0.04400 0.00200
O2_178   0.25300 0.20000 0.18100 -0.00300 0.04400 0.00200
O2_179   0.25300 0.20000 0.18100 -0.00300 0.04400 0.00200
O2_180   0.25300 0.20000 0.18100 -0.00300 0.04400 0.00200
O2_181   0.25300 0.20000 0.18100 -0.00300 0.04400 0.00200
O2_182   0.25300 0.20000 0.18100 -0.00300 0.04400 0.00200
O2_183   0.25300 0.20000 0.18100 -0.00300 0.04400 0.00200
O2_184   0.25300 0.20000 0.18100 -0.00300 0.04400 0.00200
O2_185   0.25300 0.20000 0.18100 -0.00300 0.04400 0.00200
O2_186   0.25300 0.20000 0.18100 -0.00300 0.04400 0.00200
O2_187   0.25300 0.20000 0.18100 -0.00300 0.04400 0.00200
O2_188   0.25300 0.20000 0.18100 -0.00300 0.04400 0.00200
O2_189   0.25300 0.20000 0.18100 -0.00300 0.04400 0.00200
O2_190   0.25300 0.20000 0.18100 -0.00300 0.04400 0.00200
O2_191   0.25300 0.20000 0.18100 -0.00300 0.04400 0.00200
O2_192   0.25300 0.20000 0.18100 -0.00300 0.04400 0.00200
