data_PCN69
_audit_creation_method         'generated by CrystalMaker X for macOS'
_cell_length_a                  56.607000(60)
_cell_length_b                  56.607000(0)
_cell_length_c                  56.607000(0)
_cell_angle_alpha               90.000000(0)
_cell_angle_beta                90.000000(0)
_cell_angle_gamma               90.000000(0)

_symmetry_space_group_name_H-M     'P 1'

loop_
_symmetry_equiv_pos_as_xyz
'+x,+y,+z'

loop_
_atom_site_label
_atom_site_type_symbol
_atom_site_occupancy
_atom_site_fract_x
_atom_site_fract_y
_atom_site_fract_z
_atom_site_U_iso_or_equiv
 C1  C 1.0  0.03132000(9000)  0.09450000(11000)  0.36329000(10000)  0.06090
 C1_2  C 1.0  0.36329000(9000)  0.03132000(11000)  0.09450000(10000)  0.06090
 C1_3  C 1.0  0.09450000(9000)  0.36329000(11000)  0.03132000(10000)  0.06090
 C1_4  C 1.0  0.03132000(9000)  0.09450000(11000)  0.63671000(10000)  0.06090
 C1_5  C 1.0  0.36329000(9000)  0.03132000(11000)  0.90550000(10000)  0.06090
 C1_6  C 1.0  0.09450000(9000)  0.36329000(11000)  0.96868000(10000)  0.06090
 C1_7  C 1.0  0.96868000(9000)  0.09450000(11000)  0.36329000(10000)  0.06090
 C1_8  C 1.0  0.63671000(9000)  0.03132000(11000)  0.09450000(10000)  0.06090
 C1_9  C 1.0  0.90550000(9000)  0.36329000(11000)  0.03132000(10000)  0.06090
 C1_10  C 1.0  0.96868000(9000)  0.09450000(11000)  0.63671000(10000)  0.06090
 C1_11  C 1.0  0.63671000(9000)  0.03132000(11000)  0.90550000(10000)  0.06090
 C1_12  C 1.0  0.90550000(9000)  0.36329000(11000)  0.96868000(10000)  0.06090
 C1_13  C 1.0  0.09450000(9000)  0.03132000(11000)  0.36329000(10000)  0.06090
 C1_14  C 1.0  0.03132000(9000)  0.36329000(11000)  0.09450000(10000)  0.06090
 C1_15  C 1.0  0.36329000(9000)  0.09450000(11000)  0.03132000(10000)  0.06090
 C1_16  C 1.0  0.09450000(9000)  0.03132000(11000)  0.63671000(10000)  0.06090
 C1_17  C 1.0  0.03132000(9000)  0.36329000(11000)  0.90550000(10000)  0.06090
 C1_18  C 1.0  0.36329000(9000)  0.09450000(11000)  0.96868000(10000)  0.06090
 C1_19  C 1.0  0.09450000(9000)  0.96868000(11000)  0.36329000(10000)  0.06090
 C1_20  C 1.0  0.03132000(9000)  0.63671000(11000)  0.09450000(10000)  0.06090
 C1_21  C 1.0  0.36329000(9000)  0.90550000(11000)  0.03132000(10000)  0.06090
 C1_22  C 1.0  0.09450000(9000)  0.96868000(11000)  0.63671000(10000)  0.06090
 C1_23  C 1.0  0.03132000(9000)  0.63671000(11000)  0.90550000(10000)  0.06090
 C1_24  C 1.0  0.36329000(9000)  0.90550000(11000)  0.96868000(10000)  0.06090
 C1_25  C 1.0  0.96868000(9000)  0.90550000(11000)  0.63671000(10000)  0.06090
 C1_26  C 1.0  0.63671000(9000)  0.96868000(11000)  0.90550000(10000)  0.06090
 C1_27  C 1.0  0.90550000(9000)  0.63671000(11000)  0.96868000(10000)  0.06090
 C1_28  C 1.0  0.96868000(9000)  0.90550000(11000)  0.36329000(10000)  0.06090
 C1_29  C 1.0  0.63671000(9000)  0.96868000(11000)  0.09450000(10000)  0.06090
 C1_30  C 1.0  0.90550000(9000)  0.63671000(11000)  0.03132000(10000)  0.06090
 C1_31  C 1.0  0.03132000(9000)  0.90550000(11000)  0.63671000(10000)  0.06090
 C1_32  C 1.0  0.36329000(9000)  0.96868000(11000)  0.90550000(10000)  0.06090
 C1_33  C 1.0  0.09450000(9000)  0.63671000(11000)  0.96868000(10000)  0.06090
 C1_34  C 1.0  0.03132000(9000)  0.90550000(11000)  0.36329000(10000)  0.06090
 C1_35  C 1.0  0.36329000(9000)  0.96868000(11000)  0.09450000(10000)  0.06090
 C1_36  C 1.0  0.09450000(9000)  0.63671000(11000)  0.03132000(10000)  0.06090
 C1_37  C 1.0  0.90550000(9000)  0.96868000(11000)  0.63671000(10000)  0.06090
 C1_38  C 1.0  0.96868000(9000)  0.63671000(11000)  0.90550000(10000)  0.06090
 C1_39  C 1.0  0.63671000(9000)  0.90550000(11000)  0.96868000(10000)  0.06090
 C1_40  C 1.0  0.90550000(9000)  0.96868000(11000)  0.36329000(10000)  0.06090
 C1_41  C 1.0  0.96868000(9000)  0.63671000(11000)  0.09450000(10000)  0.06090
 C1_42  C 1.0  0.63671000(9000)  0.90550000(11000)  0.03132000(10000)  0.06090
 C1_43  C 1.0  0.90550000(9000)  0.03132000(11000)  0.63671000(10000)  0.06090
 C1_44  C 1.0  0.96868000(9000)  0.36329000(11000)  0.90550000(10000)  0.06090
 C1_45  C 1.0  0.63671000(9000)  0.09450000(11000)  0.96868000(10000)  0.06090
 C1_46  C 1.0  0.90550000(9000)  0.03132000(11000)  0.36329000(10000)  0.06090
 C1_47  C 1.0  0.96868000(9000)  0.36329000(11000)  0.09450000(10000)  0.06090
 C1_48  C 1.0  0.63671000(9000)  0.09450000(11000)  0.03132000(10000)  0.06090
 C1_49  C 1.0  0.03132000(9000)  0.59450000(11000)  0.86329000(10000)  0.06090
 C1_50  C 1.0  0.53132000(9000)  0.59450000(11000)  0.36329000(10000)  0.06090
 C1_51  C 1.0  0.53132000(9000)  0.09450000(11000)  0.86329000(10000)  0.06090
 C1_52  C 1.0  0.36329000(9000)  0.53132000(11000)  0.59450000(10000)  0.06090
 C1_53  C 1.0  0.86329000(9000)  0.53132000(11000)  0.09450000(10000)  0.06090
 C1_54  C 1.0  0.86329000(9000)  0.03132000(11000)  0.59450000(10000)  0.06090
 C1_55  C 1.0  0.09450000(9000)  0.86329000(11000)  0.53132000(10000)  0.06090
 C1_56  C 1.0  0.59450000(9000)  0.86329000(11000)  0.03132000(10000)  0.06090
 C1_57  C 1.0  0.59450000(9000)  0.36329000(11000)  0.53132000(10000)  0.06090
 C1_58  C 1.0  0.03132000(9000)  0.59450000(11000)  0.13671000(10000)  0.06090
 C1_59  C 1.0  0.53132000(9000)  0.59450000(11000)  0.63671000(10000)  0.06090
 C1_60  C 1.0  0.53132000(9000)  0.09450000(11000)  0.13671000(10000)  0.06090
 C1_61  C 1.0  0.36329000(9000)  0.53132000(11000)  0.40550000(10000)  0.06090
 C1_62  C 1.0  0.86329000(9000)  0.53132000(11000)  0.90550000(10000)  0.06090
 C1_63  C 1.0  0.86329000(9000)  0.03132000(11000)  0.40550000(10000)  0.06090
 C1_64  C 1.0  0.09450000(9000)  0.86329000(11000)  0.46868000(10000)  0.06090
 C1_65  C 1.0  0.59450000(9000)  0.86329000(11000)  0.96868000(10000)  0.06090
 C1_66  C 1.0  0.59450000(9000)  0.36329000(11000)  0.46868000(10000)  0.06090
 C1_67  C 1.0  0.96868000(9000)  0.59450000(11000)  0.86329000(10000)  0.06090
 C1_68  C 1.0  0.46868000(9000)  0.59450000(11000)  0.36329000(10000)  0.06090
 C1_69  C 1.0  0.46868000(9000)  0.09450000(11000)  0.86329000(10000)  0.06090
 C1_70  C 1.0  0.63671000(9000)  0.53132000(11000)  0.59450000(10000)  0.06090
 C1_71  C 1.0  0.13671000(9000)  0.53132000(11000)  0.09450000(10000)  0.06090
 C1_72  C 1.0  0.13671000(9000)  0.03132000(11000)  0.59450000(10000)  0.06090
 C1_73  C 1.0  0.90550000(9000)  0.86329000(11000)  0.53132000(10000)  0.06090
 C1_74  C 1.0  0.40550000(9000)  0.86329000(11000)  0.03132000(10000)  0.06090
 C1_75  C 1.0  0.40550000(9000)  0.36329000(11000)  0.53132000(10000)  0.06090
 C1_76  C 1.0  0.96868000(9000)  0.59450000(11000)  0.13671000(10000)  0.06090
 C1_77  C 1.0  0.46868000(9000)  0.59450000(11000)  0.63671000(10000)  0.06090
 C1_78  C 1.0  0.46868000(9000)  0.09450000(11000)  0.13671000(10000)  0.06090
 C1_79  C 1.0  0.63671000(9000)  0.53132000(11000)  0.40550000(10000)  0.06090
 C1_80  C 1.0  0.13671000(9000)  0.53132000(11000)  0.90550000(10000)  0.06090
 C1_81  C 1.0  0.13671000(9000)  0.03132000(11000)  0.40550000(10000)  0.06090
 C1_82  C 1.0  0.90550000(9000)  0.86329000(11000)  0.46868000(10000)  0.06090
 C1_83  C 1.0  0.40550000(9000)  0.86329000(11000)  0.96868000(10000)  0.06090
 C1_84  C 1.0  0.40550000(9000)  0.36329000(11000)  0.46868000(10000)  0.06090
 C1_85  C 1.0  0.09450000(9000)  0.53132000(11000)  0.86329000(10000)  0.06090
 C1_86  C 1.0  0.59450000(9000)  0.53132000(11000)  0.36329000(10000)  0.06090
 C1_87  C 1.0  0.59450000(9000)  0.03132000(11000)  0.86329000(10000)  0.06090
 C1_88  C 1.0  0.03132000(9000)  0.86329000(11000)  0.59450000(10000)  0.06090
 C1_89  C 1.0  0.53132000(9000)  0.86329000(11000)  0.09450000(10000)  0.06090
 C1_90  C 1.0  0.53132000(9000)  0.36329000(11000)  0.59450000(10000)  0.06090
 C1_91  C 1.0  0.36329000(9000)  0.59450000(11000)  0.53132000(10000)  0.06090
 C1_92  C 1.0  0.86329000(9000)  0.59450000(11000)  0.03132000(10000)  0.06090
 C1_93  C 1.0  0.86329000(9000)  0.09450000(11000)  0.53132000(10000)  0.06090
 C1_94  C 1.0  0.09450000(9000)  0.53132000(11000)  0.13671000(10000)  0.06090
 C1_95  C 1.0  0.59450000(9000)  0.53132000(11000)  0.63671000(10000)  0.06090
 C1_96  C 1.0  0.59450000(9000)  0.03132000(11000)  0.13671000(10000)  0.06090
 C1_97  C 1.0  0.03132000(9000)  0.86329000(11000)  0.40550000(10000)  0.06090
 C1_98  C 1.0  0.53132000(9000)  0.86329000(11000)  0.90550000(10000)  0.06090
 C1_99  C 1.0  0.53132000(9000)  0.36329000(11000)  0.40550000(10000)  0.06090
 C1_100  C 1.0  0.36329000(9000)  0.59450000(11000)  0.46868000(10000)  0.06090
 C1_101  C 1.0  0.86329000(9000)  0.59450000(11000)  0.96868000(10000)  0.06090
 C1_102  C 1.0  0.86329000(9000)  0.09450000(11000)  0.46868000(10000)  0.06090
 C1_103  C 1.0  0.09450000(9000)  0.46868000(11000)  0.86329000(10000)  0.06090
 C1_104  C 1.0  0.59450000(9000)  0.46868000(11000)  0.36329000(10000)  0.06090
 C1_105  C 1.0  0.59450000(9000)  0.96868000(11000)  0.86329000(10000)  0.06090
 C1_106  C 1.0  0.03132000(9000)  0.13671000(11000)  0.59450000(10000)  0.06090
 C1_107  C 1.0  0.53132000(9000)  0.13671000(11000)  0.09450000(10000)  0.06090
 C1_108  C 1.0  0.53132000(9000)  0.63671000(11000)  0.59450000(10000)  0.06090
 C1_109  C 1.0  0.36329000(9000)  0.40550000(11000)  0.53132000(10000)  0.06090
 C1_110  C 1.0  0.86329000(9000)  0.40550000(11000)  0.03132000(10000)  0.06090
 C1_111  C 1.0  0.86329000(9000)  0.90550000(11000)  0.53132000(10000)  0.06090
 C1_112  C 1.0  0.09450000(9000)  0.46868000(11000)  0.13671000(10000)  0.06090
 C1_113  C 1.0  0.59450000(9000)  0.46868000(11000)  0.63671000(10000)  0.06090
 C1_114  C 1.0  0.59450000(9000)  0.96868000(11000)  0.13671000(10000)  0.06090
 C1_115  C 1.0  0.03132000(9000)  0.13671000(11000)  0.40550000(10000)  0.06090
 C1_116  C 1.0  0.53132000(9000)  0.13671000(11000)  0.90550000(10000)  0.06090
 C1_117  C 1.0  0.53132000(9000)  0.63671000(11000)  0.40550000(10000)  0.06090
 C1_118  C 1.0  0.36329000(9000)  0.40550000(11000)  0.46868000(10000)  0.06090
 C1_119  C 1.0  0.86329000(9000)  0.40550000(11000)  0.96868000(10000)  0.06090
 C1_120  C 1.0  0.86329000(9000)  0.90550000(11000)  0.46868000(10000)  0.06090
 C1_121  C 1.0  0.96868000(9000)  0.40550000(11000)  0.13671000(10000)  0.06090
 C1_122  C 1.0  0.46868000(9000)  0.40550000(11000)  0.63671000(10000)  0.06090
 C1_123  C 1.0  0.46868000(9000)  0.90550000(11000)  0.13671000(10000)  0.06090
 C1_124  C 1.0  0.63671000(9000)  0.46868000(11000)  0.40550000(10000)  0.06090
 C1_125  C 1.0  0.13671000(9000)  0.46868000(11000)  0.90550000(10000)  0.06090
 C1_126  C 1.0  0.13671000(9000)  0.96868000(11000)  0.40550000(10000)  0.06090
 C1_127  C 1.0  0.90550000(9000)  0.13671000(11000)  0.46868000(10000)  0.06090
 C1_128  C 1.0  0.40550000(9000)  0.13671000(11000)  0.96868000(10000)  0.06090
 C1_129  C 1.0  0.40550000(9000)  0.63671000(11000)  0.46868000(10000)  0.06090
 C1_130  C 1.0  0.96868000(9000)  0.40550000(11000)  0.86329000(10000)  0.06090
 C1_131  C 1.0  0.46868000(9000)  0.40550000(11000)  0.36329000(10000)  0.06090
 C1_132  C 1.0  0.46868000(9000)  0.90550000(11000)  0.86329000(10000)  0.06090
 C1_133  C 1.0  0.63671000(9000)  0.46868000(11000)  0.59450000(10000)  0.06090
 C1_134  C 1.0  0.13671000(9000)  0.46868000(11000)  0.09450000(10000)  0.06090
 C1_135  C 1.0  0.13671000(9000)  0.96868000(11000)  0.59450000(10000)  0.06090
 C1_136  C 1.0  0.90550000(9000)  0.13671000(11000)  0.53132000(10000)  0.06090
 C1_137  C 1.0  0.40550000(9000)  0.13671000(11000)  0.03132000(10000)  0.06090
 C1_138  C 1.0  0.40550000(9000)  0.63671000(11000)  0.53132000(10000)  0.06090
 C1_139  C 1.0  0.03132000(9000)  0.40550000(11000)  0.13671000(10000)  0.06090
 C1_140  C 1.0  0.53132000(9000)  0.40550000(11000)  0.63671000(10000)  0.06090
 C1_141  C 1.0  0.53132000(9000)  0.90550000(11000)  0.13671000(10000)  0.06090
 C1_142  C 1.0  0.36329000(9000)  0.46868000(11000)  0.40550000(10000)  0.06090
 C1_143  C 1.0  0.86329000(9000)  0.46868000(11000)  0.90550000(10000)  0.06090
 C1_144  C 1.0  0.86329000(9000)  0.96868000(11000)  0.40550000(10000)  0.06090
 C1_145  C 1.0  0.09450000(9000)  0.13671000(11000)  0.46868000(10000)  0.06090
 C1_146  C 1.0  0.59450000(9000)  0.13671000(11000)  0.96868000(10000)  0.06090
 C1_147  C 1.0  0.59450000(9000)  0.63671000(11000)  0.46868000(10000)  0.06090
 C1_148  C 1.0  0.03132000(9000)  0.40550000(11000)  0.86329000(10000)  0.06090
 C1_149  C 1.0  0.53132000(9000)  0.40550000(11000)  0.36329000(10000)  0.06090
 C1_150  C 1.0  0.53132000(9000)  0.90550000(11000)  0.86329000(10000)  0.06090
 C1_151  C 1.0  0.36329000(9000)  0.46868000(11000)  0.59450000(10000)  0.06090
 C1_152  C 1.0  0.86329000(9000)  0.46868000(11000)  0.09450000(10000)  0.06090
 C1_153  C 1.0  0.86329000(9000)  0.96868000(11000)  0.59450000(10000)  0.06090
 C1_154  C 1.0  0.09450000(9000)  0.13671000(11000)  0.53132000(10000)  0.06090
 C1_155  C 1.0  0.59450000(9000)  0.13671000(11000)  0.03132000(10000)  0.06090
 C1_156  C 1.0  0.59450000(9000)  0.63671000(11000)  0.53132000(10000)  0.06090
 C1_157  C 1.0  0.90550000(9000)  0.46868000(11000)  0.13671000(10000)  0.06090
 C1_158  C 1.0  0.40550000(9000)  0.46868000(11000)  0.63671000(10000)  0.06090
 C1_159  C 1.0  0.40550000(9000)  0.96868000(11000)  0.13671000(10000)  0.06090
 C1_160  C 1.0  0.96868000(9000)  0.13671000(11000)  0.40550000(10000)  0.06090
 C1_161  C 1.0  0.46868000(9000)  0.13671000(11000)  0.90550000(10000)  0.06090
 C1_162  C 1.0  0.46868000(9000)  0.63671000(11000)  0.40550000(10000)  0.06090
 C1_163  C 1.0  0.63671000(9000)  0.40550000(11000)  0.46868000(10000)  0.06090
 C1_164  C 1.0  0.13671000(9000)  0.40550000(11000)  0.96868000(10000)  0.06090
 C1_165  C 1.0  0.13671000(9000)  0.90550000(11000)  0.46868000(10000)  0.06090
 C1_166  C 1.0  0.90550000(9000)  0.46868000(11000)  0.86329000(10000)  0.06090
 C1_167  C 1.0  0.40550000(9000)  0.46868000(11000)  0.36329000(10000)  0.06090
 C1_168  C 1.0  0.40550000(9000)  0.96868000(11000)  0.86329000(10000)  0.06090
 C1_169  C 1.0  0.96868000(9000)  0.13671000(11000)  0.59450000(10000)  0.06090
 C1_170  C 1.0  0.46868000(9000)  0.13671000(11000)  0.09450000(10000)  0.06090
 C1_171  C 1.0  0.46868000(9000)  0.63671000(11000)  0.59450000(10000)  0.06090
 C1_172  C 1.0  0.63671000(9000)  0.40550000(11000)  0.53132000(10000)  0.06090
 C1_173  C 1.0  0.13671000(9000)  0.40550000(11000)  0.03132000(10000)  0.06090
 C1_174  C 1.0  0.13671000(9000)  0.90550000(11000)  0.53132000(10000)  0.06090
 C1_175  C 1.0  0.90550000(9000)  0.53132000(11000)  0.13671000(10000)  0.06090
 C1_176  C 1.0  0.40550000(9000)  0.53132000(11000)  0.63671000(10000)  0.06090
 C1_177  C 1.0  0.40550000(9000)  0.03132000(11000)  0.13671000(10000)  0.06090
 C1_178  C 1.0  0.96868000(9000)  0.86329000(11000)  0.40550000(10000)  0.06090
 C1_179  C 1.0  0.46868000(9000)  0.86329000(11000)  0.90550000(10000)  0.06090
 C1_180  C 1.0  0.46868000(9000)  0.36329000(11000)  0.40550000(10000)  0.06090
 C1_181  C 1.0  0.63671000(9000)  0.59450000(11000)  0.46868000(10000)  0.06090
 C1_182  C 1.0  0.13671000(9000)  0.59450000(11000)  0.96868000(10000)  0.06090
 C1_183  C 1.0  0.13671000(9000)  0.09450000(11000)  0.46868000(10000)  0.06090
 C1_184  C 1.0  0.90550000(9000)  0.53132000(11000)  0.86329000(10000)  0.06090
 C1_185  C 1.0  0.40550000(9000)  0.53132000(11000)  0.36329000(10000)  0.06090
 C1_186  C 1.0  0.40550000(9000)  0.03132000(11000)  0.86329000(10000)  0.06090
 C1_187  C 1.0  0.96868000(9000)  0.86329000(11000)  0.59450000(10000)  0.06090
 C1_188  C 1.0  0.46868000(9000)  0.86329000(11000)  0.09450000(10000)  0.06090
 C1_189  C 1.0  0.46868000(9000)  0.36329000(11000)  0.59450000(10000)  0.06090
 C1_190  C 1.0  0.63671000(9000)  0.59450000(11000)  0.53132000(10000)  0.06090
 C1_191  C 1.0  0.13671000(9000)  0.59450000(11000)  0.03132000(10000)  0.06090
 C1_192  C 1.0  0.13671000(9000)  0.09450000(11000)  0.53132000(10000)  0.06090
 C2  C 1.0  0.05011000(10000)  0.08023000(11000)  0.35019000(10000)  0.07990
 C2_2  C 1.0  0.35019000(10000)  0.05011000(11000)  0.08023000(10000)  0.07990
 C2_3  C 1.0  0.08023000(10000)  0.35019000(11000)  0.05011000(10000)  0.07990
 C2_4  C 1.0  0.05011000(10000)  0.08023000(11000)  0.64981000(10000)  0.07990
 C2_5  C 1.0  0.35019000(10000)  0.05011000(11000)  0.91977000(10000)  0.07990
 C2_6  C 1.0  0.08023000(10000)  0.35019000(11000)  0.94989000(10000)  0.07990
 C2_7  C 1.0  0.94989000(10000)  0.08023000(11000)  0.35019000(10000)  0.07990
 C2_8  C 1.0  0.64981000(10000)  0.05011000(11000)  0.08023000(10000)  0.07990
 C2_9  C 1.0  0.91977000(10000)  0.35019000(11000)  0.05011000(10000)  0.07990
 C2_10  C 1.0  0.94989000(10000)  0.08023000(11000)  0.64981000(10000)  0.07990
 C2_11  C 1.0  0.64981000(10000)  0.05011000(11000)  0.91977000(10000)  0.07990
 C2_12  C 1.0  0.91977000(10000)  0.35019000(11000)  0.94989000(10000)  0.07990
 C2_13  C 1.0  0.08023000(10000)  0.05011000(11000)  0.35019000(10000)  0.07990
 C2_14  C 1.0  0.05011000(10000)  0.35019000(11000)  0.08023000(10000)  0.07990
 C2_15  C 1.0  0.35019000(10000)  0.08023000(11000)  0.05011000(10000)  0.07990
 C2_16  C 1.0  0.08023000(10000)  0.05011000(11000)  0.64981000(10000)  0.07990
 C2_17  C 1.0  0.05011000(10000)  0.35019000(11000)  0.91977000(10000)  0.07990
 C2_18  C 1.0  0.35019000(10000)  0.08023000(11000)  0.94989000(10000)  0.07990
 C2_19  C 1.0  0.08023000(10000)  0.94989000(11000)  0.35019000(10000)  0.07990
 C2_20  C 1.0  0.05011000(10000)  0.64981000(11000)  0.08023000(10000)  0.07990
 C2_21  C 1.0  0.35019000(10000)  0.91977000(11000)  0.05011000(10000)  0.07990
 C2_22  C 1.0  0.08023000(10000)  0.94989000(11000)  0.64981000(10000)  0.07990
 C2_23  C 1.0  0.05011000(10000)  0.64981000(11000)  0.91977000(10000)  0.07990
 C2_24  C 1.0  0.35019000(10000)  0.91977000(11000)  0.94989000(10000)  0.07990
 C2_25  C 1.0  0.94989000(10000)  0.91977000(11000)  0.64981000(10000)  0.07990
 C2_26  C 1.0  0.64981000(10000)  0.94989000(11000)  0.91977000(10000)  0.07990
 C2_27  C 1.0  0.91977000(10000)  0.64981000(11000)  0.94989000(10000)  0.07990
 C2_28  C 1.0  0.94989000(10000)  0.91977000(11000)  0.35019000(10000)  0.07990
 C2_29  C 1.0  0.64981000(10000)  0.94989000(11000)  0.08023000(10000)  0.07990
 C2_30  C 1.0  0.91977000(10000)  0.64981000(11000)  0.05011000(10000)  0.07990
 C2_31  C 1.0  0.05011000(10000)  0.91977000(11000)  0.64981000(10000)  0.07990
 C2_32  C 1.0  0.35019000(10000)  0.94989000(11000)  0.91977000(10000)  0.07990
 C2_33  C 1.0  0.08023000(10000)  0.64981000(11000)  0.94989000(10000)  0.07990
 C2_34  C 1.0  0.05011000(10000)  0.91977000(11000)  0.35019000(10000)  0.07990
 C2_35  C 1.0  0.35019000(10000)  0.94989000(11000)  0.08023000(10000)  0.07990
 C2_36  C 1.0  0.08023000(10000)  0.64981000(11000)  0.05011000(10000)  0.07990
 C2_37  C 1.0  0.91977000(10000)  0.94989000(11000)  0.64981000(10000)  0.07990
 C2_38  C 1.0  0.94989000(10000)  0.64981000(11000)  0.91977000(10000)  0.07990
 C2_39  C 1.0  0.64981000(10000)  0.91977000(11000)  0.94989000(10000)  0.07990
 C2_40  C 1.0  0.91977000(10000)  0.94989000(11000)  0.35019000(10000)  0.07990
 C2_41  C 1.0  0.94989000(10000)  0.64981000(11000)  0.08023000(10000)  0.07990
 C2_42  C 1.0  0.64981000(10000)  0.91977000(11000)  0.05011000(10000)  0.07990
 C2_43  C 1.0  0.91977000(10000)  0.05011000(11000)  0.64981000(10000)  0.07990
 C2_44  C 1.0  0.94989000(10000)  0.35019000(11000)  0.91977000(10000)  0.07990
 C2_45  C 1.0  0.64981000(10000)  0.08023000(11000)  0.94989000(10000)  0.07990
 C2_46  C 1.0  0.91977000(10000)  0.05011000(11000)  0.35019000(10000)  0.07990
 C2_47  C 1.0  0.94989000(10000)  0.35019000(11000)  0.08023000(10000)  0.07990
 C2_48  C 1.0  0.64981000(10000)  0.08023000(11000)  0.05011000(10000)  0.07990
 C2_49  C 1.0  0.05011000(10000)  0.58023000(11000)  0.85019000(10000)  0.07990
 C2_50  C 1.0  0.55011000(10000)  0.58023000(11000)  0.35019000(10000)  0.07990
 C2_51  C 1.0  0.55011000(10000)  0.08023000(11000)  0.85019000(10000)  0.07990
 C2_52  C 1.0  0.35019000(10000)  0.55011000(11000)  0.58023000(10000)  0.07990
 C2_53  C 1.0  0.85019000(10000)  0.55011000(11000)  0.08023000(10000)  0.07990
 C2_54  C 1.0  0.85019000(10000)  0.05011000(11000)  0.58023000(10000)  0.07990
 C2_55  C 1.0  0.08023000(10000)  0.85019000(11000)  0.55011000(10000)  0.07990
 C2_56  C 1.0  0.58023000(10000)  0.85019000(11000)  0.05011000(10000)  0.07990
 C2_57  C 1.0  0.58023000(10000)  0.35019000(11000)  0.55011000(10000)  0.07990
 C2_58  C 1.0  0.05011000(10000)  0.58023000(11000)  0.14981000(10000)  0.07990
 C2_59  C 1.0  0.55011000(10000)  0.58023000(11000)  0.64981000(10000)  0.07990
 C2_60  C 1.0  0.55011000(10000)  0.08023000(11000)  0.14981000(10000)  0.07990
 C2_61  C 1.0  0.35019000(10000)  0.55011000(11000)  0.41977000(10000)  0.07990
 C2_62  C 1.0  0.85019000(10000)  0.55011000(11000)  0.91977000(10000)  0.07990
 C2_63  C 1.0  0.85019000(10000)  0.05011000(11000)  0.41977000(10000)  0.07990
 C2_64  C 1.0  0.08023000(10000)  0.85019000(11000)  0.44989000(10000)  0.07990
 C2_65  C 1.0  0.58023000(10000)  0.85019000(11000)  0.94989000(10000)  0.07990
 C2_66  C 1.0  0.58023000(10000)  0.35019000(11000)  0.44989000(10000)  0.07990
 C2_67  C 1.0  0.94989000(10000)  0.58023000(11000)  0.85019000(10000)  0.07990
 C2_68  C 1.0  0.44989000(10000)  0.58023000(11000)  0.35019000(10000)  0.07990
 C2_69  C 1.0  0.44989000(10000)  0.08023000(11000)  0.85019000(10000)  0.07990
 C2_70  C 1.0  0.64981000(10000)  0.55011000(11000)  0.58023000(10000)  0.07990
 C2_71  C 1.0  0.14981000(10000)  0.55011000(11000)  0.08023000(10000)  0.07990
 C2_72  C 1.0  0.14981000(10000)  0.05011000(11000)  0.58023000(10000)  0.07990
 C2_73  C 1.0  0.91977000(10000)  0.85019000(11000)  0.55011000(10000)  0.07990
 C2_74  C 1.0  0.41977000(10000)  0.85019000(11000)  0.05011000(10000)  0.07990
 C2_75  C 1.0  0.41977000(10000)  0.35019000(11000)  0.55011000(10000)  0.07990
 C2_76  C 1.0  0.94989000(10000)  0.58023000(11000)  0.14981000(10000)  0.07990
 C2_77  C 1.0  0.44989000(10000)  0.58023000(11000)  0.64981000(10000)  0.07990
 C2_78  C 1.0  0.44989000(10000)  0.08023000(11000)  0.14981000(10000)  0.07990
 C2_79  C 1.0  0.64981000(10000)  0.55011000(11000)  0.41977000(10000)  0.07990
 C2_80  C 1.0  0.14981000(10000)  0.55011000(11000)  0.91977000(10000)  0.07990
 C2_81  C 1.0  0.14981000(10000)  0.05011000(11000)  0.41977000(10000)  0.07990
 C2_82  C 1.0  0.91977000(10000)  0.85019000(11000)  0.44989000(10000)  0.07990
 C2_83  C 1.0  0.41977000(10000)  0.85019000(11000)  0.94989000(10000)  0.07990
 C2_84  C 1.0  0.41977000(10000)  0.35019000(11000)  0.44989000(10000)  0.07990
 C2_85  C 1.0  0.08023000(10000)  0.55011000(11000)  0.85019000(10000)  0.07990
 C2_86  C 1.0  0.58023000(10000)  0.55011000(11000)  0.35019000(10000)  0.07990
 C2_87  C 1.0  0.58023000(10000)  0.05011000(11000)  0.85019000(10000)  0.07990
 C2_88  C 1.0  0.05011000(10000)  0.85019000(11000)  0.58023000(10000)  0.07990
 C2_89  C 1.0  0.55011000(10000)  0.85019000(11000)  0.08023000(10000)  0.07990
 C2_90  C 1.0  0.55011000(10000)  0.35019000(11000)  0.58023000(10000)  0.07990
 C2_91  C 1.0  0.35019000(10000)  0.58023000(11000)  0.55011000(10000)  0.07990
 C2_92  C 1.0  0.85019000(10000)  0.58023000(11000)  0.05011000(10000)  0.07990
 C2_93  C 1.0  0.85019000(10000)  0.08023000(11000)  0.55011000(10000)  0.07990
 C2_94  C 1.0  0.08023000(10000)  0.55011000(11000)  0.14981000(10000)  0.07990
 C2_95  C 1.0  0.58023000(10000)  0.55011000(11000)  0.64981000(10000)  0.07990
 C2_96  C 1.0  0.58023000(10000)  0.05011000(11000)  0.14981000(10000)  0.07990
 C2_97  C 1.0  0.05011000(10000)  0.85019000(11000)  0.41977000(10000)  0.07990
 C2_98  C 1.0  0.55011000(10000)  0.85019000(11000)  0.91977000(10000)  0.07990
 C2_99  C 1.0  0.55011000(10000)  0.35019000(11000)  0.41977000(10000)  0.07990
 C2_100  C 1.0  0.35019000(10000)  0.58023000(11000)  0.44989000(10000)  0.07990
 C2_101  C 1.0  0.85019000(10000)  0.58023000(11000)  0.94989000(10000)  0.07990
 C2_102  C 1.0  0.85019000(10000)  0.08023000(11000)  0.44989000(10000)  0.07990
 C2_103  C 1.0  0.08023000(10000)  0.44989000(11000)  0.85019000(10000)  0.07990
 C2_104  C 1.0  0.58023000(10000)  0.44989000(11000)  0.35019000(10000)  0.07990
 C2_105  C 1.0  0.58023000(10000)  0.94989000(11000)  0.85019000(10000)  0.07990
 C2_106  C 1.0  0.05011000(10000)  0.14981000(11000)  0.58023000(10000)  0.07990
 C2_107  C 1.0  0.55011000(10000)  0.14981000(11000)  0.08023000(10000)  0.07990
 C2_108  C 1.0  0.55011000(10000)  0.64981000(11000)  0.58023000(10000)  0.07990
 C2_109  C 1.0  0.35019000(10000)  0.41977000(11000)  0.55011000(10000)  0.07990
 C2_110  C 1.0  0.85019000(10000)  0.41977000(11000)  0.05011000(10000)  0.07990
 C2_111  C 1.0  0.85019000(10000)  0.91977000(11000)  0.55011000(10000)  0.07990
 C2_112  C 1.0  0.08023000(10000)  0.44989000(11000)  0.14981000(10000)  0.07990
 C2_113  C 1.0  0.58023000(10000)  0.44989000(11000)  0.64981000(10000)  0.07990
 C2_114  C 1.0  0.58023000(10000)  0.94989000(11000)  0.14981000(10000)  0.07990
 C2_115  C 1.0  0.05011000(10000)  0.14981000(11000)  0.41977000(10000)  0.07990
 C2_116  C 1.0  0.55011000(10000)  0.14981000(11000)  0.91977000(10000)  0.07990
 C2_117  C 1.0  0.55011000(10000)  0.64981000(11000)  0.41977000(10000)  0.07990
 C2_118  C 1.0  0.35019000(10000)  0.41977000(11000)  0.44989000(10000)  0.07990
 C2_119  C 1.0  0.85019000(10000)  0.41977000(11000)  0.94989000(10000)  0.07990
 C2_120  C 1.0  0.85019000(10000)  0.91977000(11000)  0.44989000(10000)  0.07990
 C2_121  C 1.0  0.94989000(10000)  0.41977000(11000)  0.14981000(10000)  0.07990
 C2_122  C 1.0  0.44989000(10000)  0.41977000(11000)  0.64981000(10000)  0.07990
 C2_123  C 1.0  0.44989000(10000)  0.91977000(11000)  0.14981000(10000)  0.07990
 C2_124  C 1.0  0.64981000(10000)  0.44989000(11000)  0.41977000(10000)  0.07990
 C2_125  C 1.0  0.14981000(10000)  0.44989000(11000)  0.91977000(10000)  0.07990
 C2_126  C 1.0  0.14981000(10000)  0.94989000(11000)  0.41977000(10000)  0.07990
 C2_127  C 1.0  0.91977000(10000)  0.14981000(11000)  0.44989000(10000)  0.07990
 C2_128  C 1.0  0.41977000(10000)  0.14981000(11000)  0.94989000(10000)  0.07990
 C2_129  C 1.0  0.41977000(10000)  0.64981000(11000)  0.44989000(10000)  0.07990
 C2_130  C 1.0  0.94989000(10000)  0.41977000(11000)  0.85019000(10000)  0.07990
 C2_131  C 1.0  0.44989000(10000)  0.41977000(11000)  0.35019000(10000)  0.07990
 C2_132  C 1.0  0.44989000(10000)  0.91977000(11000)  0.85019000(10000)  0.07990
 C2_133  C 1.0  0.64981000(10000)  0.44989000(11000)  0.58023000(10000)  0.07990
 C2_134  C 1.0  0.14981000(10000)  0.44989000(11000)  0.08023000(10000)  0.07990
 C2_135  C 1.0  0.14981000(10000)  0.94989000(11000)  0.58023000(10000)  0.07990
 C2_136  C 1.0  0.91977000(10000)  0.14981000(11000)  0.55011000(10000)  0.07990
 C2_137  C 1.0  0.41977000(10000)  0.14981000(11000)  0.05011000(10000)  0.07990
 C2_138  C 1.0  0.41977000(10000)  0.64981000(11000)  0.55011000(10000)  0.07990
 C2_139  C 1.0  0.05011000(10000)  0.41977000(11000)  0.14981000(10000)  0.07990
 C2_140  C 1.0  0.55011000(10000)  0.41977000(11000)  0.64981000(10000)  0.07990
 C2_141  C 1.0  0.55011000(10000)  0.91977000(11000)  0.14981000(10000)  0.07990
 C2_142  C 1.0  0.35019000(10000)  0.44989000(11000)  0.41977000(10000)  0.07990
 C2_143  C 1.0  0.85019000(10000)  0.44989000(11000)  0.91977000(10000)  0.07990
 C2_144  C 1.0  0.85019000(10000)  0.94989000(11000)  0.41977000(10000)  0.07990
 C2_145  C 1.0  0.08023000(10000)  0.14981000(11000)  0.44989000(10000)  0.07990
 C2_146  C 1.0  0.58023000(10000)  0.14981000(11000)  0.94989000(10000)  0.07990
 C2_147  C 1.0  0.58023000(10000)  0.64981000(11000)  0.44989000(10000)  0.07990
 C2_148  C 1.0  0.05011000(10000)  0.41977000(11000)  0.85019000(10000)  0.07990
 C2_149  C 1.0  0.55011000(10000)  0.41977000(11000)  0.35019000(10000)  0.07990
 C2_150  C 1.0  0.55011000(10000)  0.91977000(11000)  0.85019000(10000)  0.07990
 C2_151  C 1.0  0.35019000(10000)  0.44989000(11000)  0.58023000(10000)  0.07990
 C2_152  C 1.0  0.85019000(10000)  0.44989000(11000)  0.08023000(10000)  0.07990
 C2_153  C 1.0  0.85019000(10000)  0.94989000(11000)  0.58023000(10000)  0.07990
 C2_154  C 1.0  0.08023000(10000)  0.14981000(11000)  0.55011000(10000)  0.07990
 C2_155  C 1.0  0.58023000(10000)  0.14981000(11000)  0.05011000(10000)  0.07990
 C2_156  C 1.0  0.58023000(10000)  0.64981000(11000)  0.55011000(10000)  0.07990
 C2_157  C 1.0  0.91977000(10000)  0.44989000(11000)  0.14981000(10000)  0.07990
 C2_158  C 1.0  0.41977000(10000)  0.44989000(11000)  0.64981000(10000)  0.07990
 C2_159  C 1.0  0.41977000(10000)  0.94989000(11000)  0.14981000(10000)  0.07990
 C2_160  C 1.0  0.94989000(10000)  0.14981000(11000)  0.41977000(10000)  0.07990
 C2_161  C 1.0  0.44989000(10000)  0.14981000(11000)  0.91977000(10000)  0.07990
 C2_162  C 1.0  0.44989000(10000)  0.64981000(11000)  0.41977000(10000)  0.07990
 C2_163  C 1.0  0.64981000(10000)  0.41977000(11000)  0.44989000(10000)  0.07990
 C2_164  C 1.0  0.14981000(10000)  0.41977000(11000)  0.94989000(10000)  0.07990
 C2_165  C 1.0  0.14981000(10000)  0.91977000(11000)  0.44989000(10000)  0.07990
 C2_166  C 1.0  0.91977000(10000)  0.44989000(11000)  0.85019000(10000)  0.07990
 C2_167  C 1.0  0.41977000(10000)  0.44989000(11000)  0.35019000(10000)  0.07990
 C2_168  C 1.0  0.41977000(10000)  0.94989000(11000)  0.85019000(10000)  0.07990
 C2_169  C 1.0  0.94989000(10000)  0.14981000(11000)  0.58023000(10000)  0.07990
 C2_170  C 1.0  0.44989000(10000)  0.14981000(11000)  0.08023000(10000)  0.07990
 C2_171  C 1.0  0.44989000(10000)  0.64981000(11000)  0.58023000(10000)  0.07990
 C2_172  C 1.0  0.64981000(10000)  0.41977000(11000)  0.55011000(10000)  0.07990
 C2_173  C 1.0  0.14981000(10000)  0.41977000(11000)  0.05011000(10000)  0.07990
 C2_174  C 1.0  0.14981000(10000)  0.91977000(11000)  0.55011000(10000)  0.07990
 C2_175  C 1.0  0.91977000(10000)  0.55011000(11000)  0.14981000(10000)  0.07990
 C2_176  C 1.0  0.41977000(10000)  0.55011000(11000)  0.64981000(10000)  0.07990
 C2_177  C 1.0  0.41977000(10000)  0.05011000(11000)  0.14981000(10000)  0.07990
 C2_178  C 1.0  0.94989000(10000)  0.85019000(11000)  0.41977000(10000)  0.07990
 C2_179  C 1.0  0.44989000(10000)  0.85019000(11000)  0.91977000(10000)  0.07990
 C2_180  C 1.0  0.44989000(10000)  0.35019000(11000)  0.41977000(10000)  0.07990
 C2_181  C 1.0  0.64981000(10000)  0.58023000(11000)  0.44989000(10000)  0.07990
 C2_182  C 1.0  0.14981000(10000)  0.58023000(11000)  0.94989000(10000)  0.07990
 C2_183  C 1.0  0.14981000(10000)  0.08023000(11000)  0.44989000(10000)  0.07990
 C2_184  C 1.0  0.91977000(10000)  0.55011000(11000)  0.85019000(10000)  0.07990
 C2_185  C 1.0  0.41977000(10000)  0.55011000(11000)  0.35019000(10000)  0.07990
 C2_186  C 1.0  0.41977000(10000)  0.05011000(11000)  0.85019000(10000)  0.07990
 C2_187  C 1.0  0.94989000(10000)  0.85019000(11000)  0.58023000(10000)  0.07990
 C2_188  C 1.0  0.44989000(10000)  0.85019000(11000)  0.08023000(10000)  0.07990
 C2_189  C 1.0  0.44989000(10000)  0.35019000(11000)  0.58023000(10000)  0.07990
 C2_190  C 1.0  0.64981000(10000)  0.58023000(11000)  0.55011000(10000)  0.07990
 C2_191  C 1.0  0.14981000(10000)  0.58023000(11000)  0.05011000(10000)  0.07990
 C2_192  C 1.0  0.14981000(10000)  0.08023000(11000)  0.55011000(10000)  0.07990
 C3  C 1.0  0.06239000(11000)  0.06239000(11000)  0.36165000(15000)  0.07400
 C3_2  C 1.0  0.36165000(11000)  0.06239000(11000)  0.06239000(15000)  0.07400
 C3_3  C 1.0  0.06239000(11000)  0.36165000(11000)  0.06239000(15000)  0.07400
 C3_4  C 1.0  0.06239000(11000)  0.06239000(11000)  0.63835000(15000)  0.07400
 C3_5  C 1.0  0.36165000(11000)  0.06239000(11000)  0.93761000(15000)  0.07400
 C3_6  C 1.0  0.06239000(11000)  0.36165000(11000)  0.93761000(15000)  0.07400
 C3_7  C 1.0  0.93761000(11000)  0.06239000(11000)  0.36165000(15000)  0.07400
 C3_8  C 1.0  0.63835000(11000)  0.06239000(11000)  0.06239000(15000)  0.07400
 C3_9  C 1.0  0.93761000(11000)  0.36165000(11000)  0.06239000(15000)  0.07400
 C3_10  C 1.0  0.93761000(11000)  0.06239000(11000)  0.63835000(15000)  0.07400
 C3_11  C 1.0  0.63835000(11000)  0.06239000(11000)  0.93761000(15000)  0.07400
 C3_12  C 1.0  0.93761000(11000)  0.36165000(11000)  0.93761000(15000)  0.07400
 C3_13  C 1.0  0.06239000(11000)  0.93761000(11000)  0.36165000(15000)  0.07400
 C3_14  C 1.0  0.06239000(11000)  0.63835000(11000)  0.06239000(15000)  0.07400
 C3_15  C 1.0  0.36165000(11000)  0.93761000(11000)  0.06239000(15000)  0.07400
 C3_16  C 1.0  0.06239000(11000)  0.93761000(11000)  0.63835000(15000)  0.07400
 C3_17  C 1.0  0.06239000(11000)  0.63835000(11000)  0.93761000(15000)  0.07400
 C3_18  C 1.0  0.36165000(11000)  0.93761000(11000)  0.93761000(15000)  0.07400
 C3_19  C 1.0  0.93761000(11000)  0.93761000(11000)  0.63835000(15000)  0.07400
 C3_20  C 1.0  0.63835000(11000)  0.93761000(11000)  0.93761000(15000)  0.07400
 C3_21  C 1.0  0.93761000(11000)  0.63835000(11000)  0.93761000(15000)  0.07400
 C3_22  C 1.0  0.93761000(11000)  0.93761000(11000)  0.36165000(15000)  0.07400
 C3_23  C 1.0  0.63835000(11000)  0.93761000(11000)  0.06239000(15000)  0.07400
 C3_24  C 1.0  0.93761000(11000)  0.63835000(11000)  0.06239000(15000)  0.07400
 C3_25  C 1.0  0.06239000(11000)  0.56239000(11000)  0.86165000(15000)  0.07400
 C3_26  C 1.0  0.56239000(11000)  0.56239000(11000)  0.36165000(15000)  0.07400
 C3_27  C 1.0  0.56239000(11000)  0.06239000(11000)  0.86165000(15000)  0.07400
 C3_28  C 1.0  0.36165000(11000)  0.56239000(11000)  0.56239000(15000)  0.07400
 C3_29  C 1.0  0.86165000(11000)  0.56239000(11000)  0.06239000(15000)  0.07400
 C3_30  C 1.0  0.86165000(11000)  0.06239000(11000)  0.56239000(15000)  0.07400
 C3_31  C 1.0  0.06239000(11000)  0.86165000(11000)  0.56239000(15000)  0.07400
 C3_32  C 1.0  0.56239000(11000)  0.86165000(11000)  0.06239000(15000)  0.07400
 C3_33  C 1.0  0.56239000(11000)  0.36165000(11000)  0.56239000(15000)  0.07400
 C3_34  C 1.0  0.06239000(11000)  0.56239000(11000)  0.13835000(15000)  0.07400
 C3_35  C 1.0  0.56239000(11000)  0.56239000(11000)  0.63835000(15000)  0.07400
 C3_36  C 1.0  0.56239000(11000)  0.06239000(11000)  0.13835000(15000)  0.07400
 C3_37  C 1.0  0.36165000(11000)  0.56239000(11000)  0.43761000(15000)  0.07400
 C3_38  C 1.0  0.86165000(11000)  0.56239000(11000)  0.93761000(15000)  0.07400
 C3_39  C 1.0  0.86165000(11000)  0.06239000(11000)  0.43761000(15000)  0.07400
 C3_40  C 1.0  0.06239000(11000)  0.86165000(11000)  0.43761000(15000)  0.07400
 C3_41  C 1.0  0.56239000(11000)  0.86165000(11000)  0.93761000(15000)  0.07400
 C3_42  C 1.0  0.56239000(11000)  0.36165000(11000)  0.43761000(15000)  0.07400
 C3_43  C 1.0  0.93761000(11000)  0.56239000(11000)  0.86165000(15000)  0.07400
 C3_44  C 1.0  0.43761000(11000)  0.56239000(11000)  0.36165000(15000)  0.07400
 C3_45  C 1.0  0.43761000(11000)  0.06239000(11000)  0.86165000(15000)  0.07400
 C3_46  C 1.0  0.63835000(11000)  0.56239000(11000)  0.56239000(15000)  0.07400
 C3_47  C 1.0  0.13835000(11000)  0.56239000(11000)  0.06239000(15000)  0.07400
 C3_48  C 1.0  0.13835000(11000)  0.06239000(11000)  0.56239000(15000)  0.07400
 C3_49  C 1.0  0.93761000(11000)  0.86165000(11000)  0.56239000(15000)  0.07400
 C3_50  C 1.0  0.43761000(11000)  0.86165000(11000)  0.06239000(15000)  0.07400
 C3_51  C 1.0  0.43761000(11000)  0.36165000(11000)  0.56239000(15000)  0.07400
 C3_52  C 1.0  0.93761000(11000)  0.56239000(11000)  0.13835000(15000)  0.07400
 C3_53  C 1.0  0.43761000(11000)  0.56239000(11000)  0.63835000(15000)  0.07400
 C3_54  C 1.0  0.43761000(11000)  0.06239000(11000)  0.13835000(15000)  0.07400
 C3_55  C 1.0  0.63835000(11000)  0.56239000(11000)  0.43761000(15000)  0.07400
 C3_56  C 1.0  0.13835000(11000)  0.56239000(11000)  0.93761000(15000)  0.07400
 C3_57  C 1.0  0.13835000(11000)  0.06239000(11000)  0.43761000(15000)  0.07400
 C3_58  C 1.0  0.93761000(11000)  0.86165000(11000)  0.43761000(15000)  0.07400
 C3_59  C 1.0  0.43761000(11000)  0.86165000(11000)  0.93761000(15000)  0.07400
 C3_60  C 1.0  0.43761000(11000)  0.36165000(11000)  0.43761000(15000)  0.07400
 C3_61  C 1.0  0.06239000(11000)  0.43761000(11000)  0.86165000(15000)  0.07400
 C3_62  C 1.0  0.56239000(11000)  0.43761000(11000)  0.36165000(15000)  0.07400
 C3_63  C 1.0  0.56239000(11000)  0.93761000(11000)  0.86165000(15000)  0.07400
 C3_64  C 1.0  0.06239000(11000)  0.13835000(11000)  0.56239000(15000)  0.07400
 C3_65  C 1.0  0.56239000(11000)  0.13835000(11000)  0.06239000(15000)  0.07400
 C3_66  C 1.0  0.56239000(11000)  0.63835000(11000)  0.56239000(15000)  0.07400
 C3_67  C 1.0  0.36165000(11000)  0.43761000(11000)  0.56239000(15000)  0.07400
 C3_68  C 1.0  0.86165000(11000)  0.43761000(11000)  0.06239000(15000)  0.07400
 C3_69  C 1.0  0.86165000(11000)  0.93761000(11000)  0.56239000(15000)  0.07400
 C3_70  C 1.0  0.06239000(11000)  0.43761000(11000)  0.13835000(15000)  0.07400
 C3_71  C 1.0  0.56239000(11000)  0.43761000(11000)  0.63835000(15000)  0.07400
 C3_72  C 1.0  0.56239000(11000)  0.93761000(11000)  0.13835000(15000)  0.07400
 C3_73  C 1.0  0.06239000(11000)  0.13835000(11000)  0.43761000(15000)  0.07400
 C3_74  C 1.0  0.56239000(11000)  0.13835000(11000)  0.93761000(15000)  0.07400
 C3_75  C 1.0  0.56239000(11000)  0.63835000(11000)  0.43761000(15000)  0.07400
 C3_76  C 1.0  0.36165000(11000)  0.43761000(11000)  0.43761000(15000)  0.07400
 C3_77  C 1.0  0.86165000(11000)  0.43761000(11000)  0.93761000(15000)  0.07400
 C3_78  C 1.0  0.86165000(11000)  0.93761000(11000)  0.43761000(15000)  0.07400
 C3_79  C 1.0  0.93761000(11000)  0.43761000(11000)  0.13835000(15000)  0.07400
 C3_80  C 1.0  0.43761000(11000)  0.43761000(11000)  0.63835000(15000)  0.07400
 C3_81  C 1.0  0.43761000(11000)  0.93761000(11000)  0.13835000(15000)  0.07400
 C3_82  C 1.0  0.63835000(11000)  0.43761000(11000)  0.43761000(15000)  0.07400
 C3_83  C 1.0  0.13835000(11000)  0.43761000(11000)  0.93761000(15000)  0.07400
 C3_84  C 1.0  0.13835000(11000)  0.93761000(11000)  0.43761000(15000)  0.07400
 C3_85  C 1.0  0.93761000(11000)  0.13835000(11000)  0.43761000(15000)  0.07400
 C3_86  C 1.0  0.43761000(11000)  0.13835000(11000)  0.93761000(15000)  0.07400
 C3_87  C 1.0  0.43761000(11000)  0.63835000(11000)  0.43761000(15000)  0.07400
 C3_88  C 1.0  0.93761000(11000)  0.43761000(11000)  0.86165000(15000)  0.07400
 C3_89  C 1.0  0.43761000(11000)  0.43761000(11000)  0.36165000(15000)  0.07400
 C3_90  C 1.0  0.43761000(11000)  0.93761000(11000)  0.86165000(15000)  0.07400
 C3_91  C 1.0  0.63835000(11000)  0.43761000(11000)  0.56239000(15000)  0.07400
 C3_92  C 1.0  0.13835000(11000)  0.43761000(11000)  0.06239000(15000)  0.07400
 C3_93  C 1.0  0.13835000(11000)  0.93761000(11000)  0.56239000(15000)  0.07400
 C3_94  C 1.0  0.93761000(11000)  0.13835000(11000)  0.56239000(15000)  0.07400
 C3_95  C 1.0  0.43761000(11000)  0.13835000(11000)  0.06239000(15000)  0.07400
 C3_96  C 1.0  0.43761000(11000)  0.63835000(11000)  0.56239000(15000)  0.07400
 C4  C 1.0  0.05580000(13000)  0.08650000(15000)  0.32635000(14000)  0.12200
 C4_2  C 1.0  0.32635000(13000)  0.05580000(15000)  0.08650000(14000)  0.12200
 C4_3  C 1.0  0.08650000(13000)  0.32635000(15000)  0.05580000(14000)  0.12200
 C4_4  C 1.0  0.05580000(13000)  0.08650000(15000)  0.67365000(14000)  0.12200
 C4_5  C 1.0  0.32635000(13000)  0.05580000(15000)  0.91350000(14000)  0.12200
 C4_6  C 1.0  0.08650000(13000)  0.32635000(15000)  0.94420000(14000)  0.12200
 C4_7  C 1.0  0.94420000(13000)  0.08650000(15000)  0.32635000(14000)  0.12200
 C4_8  C 1.0  0.67365000(13000)  0.05580000(15000)  0.08650000(14000)  0.12200
 C4_9  C 1.0  0.91350000(13000)  0.32635000(15000)  0.05580000(14000)  0.12200
 C4_10  C 1.0  0.94420000(13000)  0.08650000(15000)  0.67365000(14000)  0.12200
 C4_11  C 1.0  0.67365000(13000)  0.05580000(15000)  0.91350000(14000)  0.12200
 C4_12  C 1.0  0.91350000(13000)  0.32635000(15000)  0.94420000(14000)  0.12200
 C4_13  C 1.0  0.08650000(13000)  0.05580000(15000)  0.32635000(14000)  0.12200
 C4_14  C 1.0  0.05580000(13000)  0.32635000(15000)  0.08650000(14000)  0.12200
 C4_15  C 1.0  0.32635000(13000)  0.08650000(15000)  0.05580000(14000)  0.12200
 C4_16  C 1.0  0.08650000(13000)  0.05580000(15000)  0.67365000(14000)  0.12200
 C4_17  C 1.0  0.05580000(13000)  0.32635000(15000)  0.91350000(14000)  0.12200
 C4_18  C 1.0  0.32635000(13000)  0.08650000(15000)  0.94420000(14000)  0.12200
 C4_19  C 1.0  0.08650000(13000)  0.94420000(15000)  0.32635000(14000)  0.12200
 C4_20  C 1.0  0.05580000(13000)  0.67365000(15000)  0.08650000(14000)  0.12200
 C4_21  C 1.0  0.32635000(13000)  0.91350000(15000)  0.05580000(14000)  0.12200
 C4_22  C 1.0  0.08650000(13000)  0.94420000(15000)  0.67365000(14000)  0.12200
 C4_23  C 1.0  0.05580000(13000)  0.67365000(15000)  0.91350000(14000)  0.12200
 C4_24  C 1.0  0.32635000(13000)  0.91350000(15000)  0.94420000(14000)  0.12200
 C4_25  C 1.0  0.94420000(13000)  0.91350000(15000)  0.67365000(14000)  0.12200
 C4_26  C 1.0  0.67365000(13000)  0.94420000(15000)  0.91350000(14000)  0.12200
 C4_27  C 1.0  0.91350000(13000)  0.67365000(15000)  0.94420000(14000)  0.12200
 C4_28  C 1.0  0.94420000(13000)  0.91350000(15000)  0.32635000(14000)  0.12200
 C4_29  C 1.0  0.67365000(13000)  0.94420000(15000)  0.08650000(14000)  0.12200
 C4_30  C 1.0  0.91350000(13000)  0.67365000(15000)  0.05580000(14000)  0.12200
 C4_31  C 1.0  0.05580000(13000)  0.91350000(15000)  0.67365000(14000)  0.12200
 C4_32  C 1.0  0.32635000(13000)  0.94420000(15000)  0.91350000(14000)  0.12200
 C4_33  C 1.0  0.08650000(13000)  0.67365000(15000)  0.94420000(14000)  0.12200
 C4_34  C 1.0  0.05580000(13000)  0.91350000(15000)  0.32635000(14000)  0.12200
 C4_35  C 1.0  0.32635000(13000)  0.94420000(15000)  0.08650000(14000)  0.12200
 C4_36  C 1.0  0.08650000(13000)  0.67365000(15000)  0.05580000(14000)  0.12200
 C4_37  C 1.0  0.91350000(13000)  0.94420000(15000)  0.67365000(14000)  0.12200
 C4_38  C 1.0  0.94420000(13000)  0.67365000(15000)  0.91350000(14000)  0.12200
 C4_39  C 1.0  0.67365000(13000)  0.91350000(15000)  0.94420000(14000)  0.12200
 C4_40  C 1.0  0.91350000(13000)  0.94420000(15000)  0.32635000(14000)  0.12200
 C4_41  C 1.0  0.94420000(13000)  0.67365000(15000)  0.08650000(14000)  0.12200
 C4_42  C 1.0  0.67365000(13000)  0.91350000(15000)  0.05580000(14000)  0.12200
 C4_43  C 1.0  0.91350000(13000)  0.05580000(15000)  0.67365000(14000)  0.12200
 C4_44  C 1.0  0.94420000(13000)  0.32635000(15000)  0.91350000(14000)  0.12200
 C4_45  C 1.0  0.67365000(13000)  0.08650000(15000)  0.94420000(14000)  0.12200
 C4_46  C 1.0  0.91350000(13000)  0.05580000(15000)  0.32635000(14000)  0.12200
 C4_47  C 1.0  0.94420000(13000)  0.32635000(15000)  0.08650000(14000)  0.12200
 C4_48  C 1.0  0.67365000(13000)  0.08650000(15000)  0.05580000(14000)  0.12200
 C4_49  C 1.0  0.05580000(13000)  0.58650000(15000)  0.82635000(14000)  0.12200
 C4_50  C 1.0  0.55580000(13000)  0.58650000(15000)  0.32635000(14000)  0.12200
 C4_51  C 1.0  0.55580000(13000)  0.08650000(15000)  0.82635000(14000)  0.12200
 C4_52  C 1.0  0.32635000(13000)  0.55580000(15000)  0.58650000(14000)  0.12200
 C4_53  C 1.0  0.82635000(13000)  0.55580000(15000)  0.08650000(14000)  0.12200
 C4_54  C 1.0  0.82635000(13000)  0.05580000(15000)  0.58650000(14000)  0.12200
 C4_55  C 1.0  0.08650000(13000)  0.82635000(15000)  0.55580000(14000)  0.12200
 C4_56  C 1.0  0.58650000(13000)  0.82635000(15000)  0.05580000(14000)  0.12200
 C4_57  C 1.0  0.58650000(13000)  0.32635000(15000)  0.55580000(14000)  0.12200
 C4_58  C 1.0  0.05580000(13000)  0.58650000(15000)  0.17365000(14000)  0.12200
 C4_59  C 1.0  0.55580000(13000)  0.58650000(15000)  0.67365000(14000)  0.12200
 C4_60  C 1.0  0.55580000(13000)  0.08650000(15000)  0.17365000(14000)  0.12200
 C4_61  C 1.0  0.32635000(13000)  0.55580000(15000)  0.41350000(14000)  0.12200
 C4_62  C 1.0  0.82635000(13000)  0.55580000(15000)  0.91350000(14000)  0.12200
 C4_63  C 1.0  0.82635000(13000)  0.05580000(15000)  0.41350000(14000)  0.12200
 C4_64  C 1.0  0.08650000(13000)  0.82635000(15000)  0.44420000(14000)  0.12200
 C4_65  C 1.0  0.58650000(13000)  0.82635000(15000)  0.94420000(14000)  0.12200
 C4_66  C 1.0  0.58650000(13000)  0.32635000(15000)  0.44420000(14000)  0.12200
 C4_67  C 1.0  0.94420000(13000)  0.58650000(15000)  0.82635000(14000)  0.12200
 C4_68  C 1.0  0.44420000(13000)  0.58650000(15000)  0.32635000(14000)  0.12200
 C4_69  C 1.0  0.44420000(13000)  0.08650000(15000)  0.82635000(14000)  0.12200
 C4_70  C 1.0  0.67365000(13000)  0.55580000(15000)  0.58650000(14000)  0.12200
 C4_71  C 1.0  0.17365000(13000)  0.55580000(15000)  0.08650000(14000)  0.12200
 C4_72  C 1.0  0.17365000(13000)  0.05580000(15000)  0.58650000(14000)  0.12200
 C4_73  C 1.0  0.91350000(13000)  0.82635000(15000)  0.55580000(14000)  0.12200
 C4_74  C 1.0  0.41350000(13000)  0.82635000(15000)  0.05580000(14000)  0.12200
 C4_75  C 1.0  0.41350000(13000)  0.32635000(15000)  0.55580000(14000)  0.12200
 C4_76  C 1.0  0.94420000(13000)  0.58650000(15000)  0.17365000(14000)  0.12200
 C4_77  C 1.0  0.44420000(13000)  0.58650000(15000)  0.67365000(14000)  0.12200
 C4_78  C 1.0  0.44420000(13000)  0.08650000(15000)  0.17365000(14000)  0.12200
 C4_79  C 1.0  0.67365000(13000)  0.55580000(15000)  0.41350000(14000)  0.12200
 C4_80  C 1.0  0.17365000(13000)  0.55580000(15000)  0.91350000(14000)  0.12200
 C4_81  C 1.0  0.17365000(13000)  0.05580000(15000)  0.41350000(14000)  0.12200
 C4_82  C 1.0  0.91350000(13000)  0.82635000(15000)  0.44420000(14000)  0.12200
 C4_83  C 1.0  0.41350000(13000)  0.82635000(15000)  0.94420000(14000)  0.12200
 C4_84  C 1.0  0.41350000(13000)  0.32635000(15000)  0.44420000(14000)  0.12200
 C4_85  C 1.0  0.08650000(13000)  0.55580000(15000)  0.82635000(14000)  0.12200
 C4_86  C 1.0  0.58650000(13000)  0.55580000(15000)  0.32635000(14000)  0.12200
 C4_87  C 1.0  0.58650000(13000)  0.05580000(15000)  0.82635000(14000)  0.12200
 C4_88  C 1.0  0.05580000(13000)  0.82635000(15000)  0.58650000(14000)  0.12200
 C4_89  C 1.0  0.55580000(13000)  0.82635000(15000)  0.08650000(14000)  0.12200
 C4_90  C 1.0  0.55580000(13000)  0.32635000(15000)  0.58650000(14000)  0.12200
 C4_91  C 1.0  0.32635000(13000)  0.58650000(15000)  0.55580000(14000)  0.12200
 C4_92  C 1.0  0.82635000(13000)  0.58650000(15000)  0.05580000(14000)  0.12200
 C4_93  C 1.0  0.82635000(13000)  0.08650000(15000)  0.55580000(14000)  0.12200
 C4_94  C 1.0  0.08650000(13000)  0.55580000(15000)  0.17365000(14000)  0.12200
 C4_95  C 1.0  0.58650000(13000)  0.55580000(15000)  0.67365000(14000)  0.12200
 C4_96  C 1.0  0.58650000(13000)  0.05580000(15000)  0.17365000(14000)  0.12200
 C4_97  C 1.0  0.05580000(13000)  0.82635000(15000)  0.41350000(14000)  0.12200
 C4_98  C 1.0  0.55580000(13000)  0.82635000(15000)  0.91350000(14000)  0.12200
 C4_99  C 1.0  0.55580000(13000)  0.32635000(15000)  0.41350000(14000)  0.12200
 C4_100  C 1.0  0.32635000(13000)  0.58650000(15000)  0.44420000(14000)  0.12200
 C4_101  C 1.0  0.82635000(13000)  0.58650000(15000)  0.94420000(14000)  0.12200
 C4_102  C 1.0  0.82635000(13000)  0.08650000(15000)  0.44420000(14000)  0.12200
 C4_103  C 1.0  0.08650000(13000)  0.44420000(15000)  0.82635000(14000)  0.12200
 C4_104  C 1.0  0.58650000(13000)  0.44420000(15000)  0.32635000(14000)  0.12200
 C4_105  C 1.0  0.58650000(13000)  0.94420000(15000)  0.82635000(14000)  0.12200
 C4_106  C 1.0  0.05580000(13000)  0.17365000(15000)  0.58650000(14000)  0.12200
 C4_107  C 1.0  0.55580000(13000)  0.17365000(15000)  0.08650000(14000)  0.12200
 C4_108  C 1.0  0.55580000(13000)  0.67365000(15000)  0.58650000(14000)  0.12200
 C4_109  C 1.0  0.32635000(13000)  0.41350000(15000)  0.55580000(14000)  0.12200
 C4_110  C 1.0  0.82635000(13000)  0.41350000(15000)  0.05580000(14000)  0.12200
 C4_111  C 1.0  0.82635000(13000)  0.91350000(15000)  0.55580000(14000)  0.12200
 C4_112  C 1.0  0.08650000(13000)  0.44420000(15000)  0.17365000(14000)  0.12200
 C4_113  C 1.0  0.58650000(13000)  0.44420000(15000)  0.67365000(14000)  0.12200
 C4_114  C 1.0  0.58650000(13000)  0.94420000(15000)  0.17365000(14000)  0.12200
 C4_115  C 1.0  0.05580000(13000)  0.17365000(15000)  0.41350000(14000)  0.12200
 C4_116  C 1.0  0.55580000(13000)  0.17365000(15000)  0.91350000(14000)  0.12200
 C4_117  C 1.0  0.55580000(13000)  0.67365000(15000)  0.41350000(14000)  0.12200
 C4_118  C 1.0  0.32635000(13000)  0.41350000(15000)  0.44420000(14000)  0.12200
 C4_119  C 1.0  0.82635000(13000)  0.41350000(15000)  0.94420000(14000)  0.12200
 C4_120  C 1.0  0.82635000(13000)  0.91350000(15000)  0.44420000(14000)  0.12200
 C4_121  C 1.0  0.94420000(13000)  0.41350000(15000)  0.17365000(14000)  0.12200
 C4_122  C 1.0  0.44420000(13000)  0.41350000(15000)  0.67365000(14000)  0.12200
 C4_123  C 1.0  0.44420000(13000)  0.91350000(15000)  0.17365000(14000)  0.12200
 C4_124  C 1.0  0.67365000(13000)  0.44420000(15000)  0.41350000(14000)  0.12200
 C4_125  C 1.0  0.17365000(13000)  0.44420000(15000)  0.91350000(14000)  0.12200
 C4_126  C 1.0  0.17365000(13000)  0.94420000(15000)  0.41350000(14000)  0.12200
 C4_127  C 1.0  0.91350000(13000)  0.17365000(15000)  0.44420000(14000)  0.12200
 C4_128  C 1.0  0.41350000(13000)  0.17365000(15000)  0.94420000(14000)  0.12200
 C4_129  C 1.0  0.41350000(13000)  0.67365000(15000)  0.44420000(14000)  0.12200
 C4_130  C 1.0  0.94420000(13000)  0.41350000(15000)  0.82635000(14000)  0.12200
 C4_131  C 1.0  0.44420000(13000)  0.41350000(15000)  0.32635000(14000)  0.12200
 C4_132  C 1.0  0.44420000(13000)  0.91350000(15000)  0.82635000(14000)  0.12200
 C4_133  C 1.0  0.67365000(13000)  0.44420000(15000)  0.58650000(14000)  0.12200
 C4_134  C 1.0  0.17365000(13000)  0.44420000(15000)  0.08650000(14000)  0.12200
 C4_135  C 1.0  0.17365000(13000)  0.94420000(15000)  0.58650000(14000)  0.12200
 C4_136  C 1.0  0.91350000(13000)  0.17365000(15000)  0.55580000(14000)  0.12200
 C4_137  C 1.0  0.41350000(13000)  0.17365000(15000)  0.05580000(14000)  0.12200
 C4_138  C 1.0  0.41350000(13000)  0.67365000(15000)  0.55580000(14000)  0.12200
 C4_139  C 1.0  0.05580000(13000)  0.41350000(15000)  0.17365000(14000)  0.12200
 C4_140  C 1.0  0.55580000(13000)  0.41350000(15000)  0.67365000(14000)  0.12200
 C4_141  C 1.0  0.55580000(13000)  0.91350000(15000)  0.17365000(14000)  0.12200
 C4_142  C 1.0  0.32635000(13000)  0.44420000(15000)  0.41350000(14000)  0.12200
 C4_143  C 1.0  0.82635000(13000)  0.44420000(15000)  0.91350000(14000)  0.12200
 C4_144  C 1.0  0.82635000(13000)  0.94420000(15000)  0.41350000(14000)  0.12200
 C4_145  C 1.0  0.08650000(13000)  0.17365000(15000)  0.44420000(14000)  0.12200
 C4_146  C 1.0  0.58650000(13000)  0.17365000(15000)  0.94420000(14000)  0.12200
 C4_147  C 1.0  0.58650000(13000)  0.67365000(15000)  0.44420000(14000)  0.12200
 C4_148  C 1.0  0.05580000(13000)  0.41350000(15000)  0.82635000(14000)  0.12200
 C4_149  C 1.0  0.55580000(13000)  0.41350000(15000)  0.32635000(14000)  0.12200
 C4_150  C 1.0  0.55580000(13000)  0.91350000(15000)  0.82635000(14000)  0.12200
 C4_151  C 1.0  0.32635000(13000)  0.44420000(15000)  0.58650000(14000)  0.12200
 C4_152  C 1.0  0.82635000(13000)  0.44420000(15000)  0.08650000(14000)  0.12200
 C4_153  C 1.0  0.82635000(13000)  0.94420000(15000)  0.58650000(14000)  0.12200
 C4_154  C 1.0  0.08650000(13000)  0.17365000(15000)  0.55580000(14000)  0.12200
 C4_155  C 1.0  0.58650000(13000)  0.17365000(15000)  0.05580000(14000)  0.12200
 C4_156  C 1.0  0.58650000(13000)  0.67365000(15000)  0.55580000(14000)  0.12200
 C4_157  C 1.0  0.91350000(13000)  0.44420000(15000)  0.17365000(14000)  0.12200
 C4_158  C 1.0  0.41350000(13000)  0.44420000(15000)  0.67365000(14000)  0.12200
 C4_159  C 1.0  0.41350000(13000)  0.94420000(15000)  0.17365000(14000)  0.12200
 C4_160  C 1.0  0.94420000(13000)  0.17365000(15000)  0.41350000(14000)  0.12200
 C4_161  C 1.0  0.44420000(13000)  0.17365000(15000)  0.91350000(14000)  0.12200
 C4_162  C 1.0  0.44420000(13000)  0.67365000(15000)  0.41350000(14000)  0.12200
 C4_163  C 1.0  0.67365000(13000)  0.41350000(15000)  0.44420000(14000)  0.12200
 C4_164  C 1.0  0.17365000(13000)  0.41350000(15000)  0.94420000(14000)  0.12200
 C4_165  C 1.0  0.17365000(13000)  0.91350000(15000)  0.44420000(14000)  0.12200
 C4_166  C 1.0  0.91350000(13000)  0.44420000(15000)  0.82635000(14000)  0.12200
 C4_167  C 1.0  0.41350000(13000)  0.44420000(15000)  0.32635000(14000)  0.12200
 C4_168  C 1.0  0.41350000(13000)  0.94420000(15000)  0.82635000(14000)  0.12200
 C4_169  C 1.0  0.94420000(13000)  0.17365000(15000)  0.58650000(14000)  0.12200
 C4_170  C 1.0  0.44420000(13000)  0.17365000(15000)  0.08650000(14000)  0.12200
 C4_171  C 1.0  0.44420000(13000)  0.67365000(15000)  0.58650000(14000)  0.12200
 C4_172  C 1.0  0.67365000(13000)  0.41350000(15000)  0.55580000(14000)  0.12200
 C4_173  C 1.0  0.17365000(13000)  0.41350000(15000)  0.05580000(14000)  0.12200
 C4_174  C 1.0  0.17365000(13000)  0.91350000(15000)  0.55580000(14000)  0.12200
 C4_175  C 1.0  0.91350000(13000)  0.55580000(15000)  0.17365000(14000)  0.12200
 C4_176  C 1.0  0.41350000(13000)  0.55580000(15000)  0.67365000(14000)  0.12200
 C4_177  C 1.0  0.41350000(13000)  0.05580000(15000)  0.17365000(14000)  0.12200
 C4_178  C 1.0  0.94420000(13000)  0.82635000(15000)  0.41350000(14000)  0.12200
 C4_179  C 1.0  0.44420000(13000)  0.82635000(15000)  0.91350000(14000)  0.12200
 C4_180  C 1.0  0.44420000(13000)  0.32635000(15000)  0.41350000(14000)  0.12200
 C4_181  C 1.0  0.67365000(13000)  0.58650000(15000)  0.44420000(14000)  0.12200
 C4_182  C 1.0  0.17365000(13000)  0.58650000(15000)  0.94420000(14000)  0.12200
 C4_183  C 1.0  0.17365000(13000)  0.08650000(15000)  0.44420000(14000)  0.12200
 C4_184  C 1.0  0.91350000(13000)  0.55580000(15000)  0.82635000(14000)  0.12200
 C4_185  C 1.0  0.41350000(13000)  0.55580000(15000)  0.32635000(14000)  0.12200
 C4_186  C 1.0  0.41350000(13000)  0.05580000(15000)  0.82635000(14000)  0.12200
 C4_187  C 1.0  0.94420000(13000)  0.82635000(15000)  0.58650000(14000)  0.12200
 C4_188  C 1.0  0.44420000(13000)  0.82635000(15000)  0.08650000(14000)  0.12200
 C4_189  C 1.0  0.44420000(13000)  0.32635000(15000)  0.58650000(14000)  0.12200
 C4_190  C 1.0  0.67365000(13000)  0.58650000(15000)  0.55580000(14000)  0.12200
 C4_191  C 1.0  0.17365000(13000)  0.58650000(15000)  0.05580000(14000)  0.12200
 C4_192  C 1.0  0.17365000(13000)  0.08650000(15000)  0.55580000(14000)  0.12200
 C5  C 1.0  0.07374000(14000)  0.07374000(14000)  0.31480000(20000)  0.11400
 C5_2  C 1.0  0.31480000(14000)  0.07374000(14000)  0.07374000(20000)  0.11400
 C5_3  C 1.0  0.07374000(14000)  0.31480000(14000)  0.07374000(20000)  0.11400
 C5_4  C 1.0  0.07374000(14000)  0.07374000(14000)  0.68520000(20000)  0.11400
 C5_5  C 1.0  0.31480000(14000)  0.07374000(14000)  0.92626000(20000)  0.11400
 C5_6  C 1.0  0.07374000(14000)  0.31480000(14000)  0.92626000(20000)  0.11400
 C5_7  C 1.0  0.92626000(14000)  0.07374000(14000)  0.31480000(20000)  0.11400
 C5_8  C 1.0  0.68520000(14000)  0.07374000(14000)  0.07374000(20000)  0.11400
 C5_9  C 1.0  0.92626000(14000)  0.31480000(14000)  0.07374000(20000)  0.11400
 C5_10  C 1.0  0.92626000(14000)  0.07374000(14000)  0.68520000(20000)  0.11400
 C5_11  C 1.0  0.68520000(14000)  0.07374000(14000)  0.92626000(20000)  0.11400
 C5_12  C 1.0  0.92626000(14000)  0.31480000(14000)  0.92626000(20000)  0.11400
 C5_13  C 1.0  0.07374000(14000)  0.92626000(14000)  0.31480000(20000)  0.11400
 C5_14  C 1.0  0.07374000(14000)  0.68520000(14000)  0.07374000(20000)  0.11400
 C5_15  C 1.0  0.31480000(14000)  0.92626000(14000)  0.07374000(20000)  0.11400
 C5_16  C 1.0  0.07374000(14000)  0.92626000(14000)  0.68520000(20000)  0.11400
 C5_17  C 1.0  0.07374000(14000)  0.68520000(14000)  0.92626000(20000)  0.11400
 C5_18  C 1.0  0.31480000(14000)  0.92626000(14000)  0.92626000(20000)  0.11400
 C5_19  C 1.0  0.92626000(14000)  0.92626000(14000)  0.68520000(20000)  0.11400
 C5_20  C 1.0  0.68520000(14000)  0.92626000(14000)  0.92626000(20000)  0.11400
 C5_21  C 1.0  0.92626000(14000)  0.68520000(14000)  0.92626000(20000)  0.11400
 C5_22  C 1.0  0.92626000(14000)  0.92626000(14000)  0.31480000(20000)  0.11400
 C5_23  C 1.0  0.68520000(14000)  0.92626000(14000)  0.07374000(20000)  0.11400
 C5_24  C 1.0  0.92626000(14000)  0.68520000(14000)  0.07374000(20000)  0.11400
 C5_25  C 1.0  0.07374000(14000)  0.57374000(14000)  0.81480000(20000)  0.11400
 C5_26  C 1.0  0.57374000(14000)  0.57374000(14000)  0.31480000(20000)  0.11400
 C5_27  C 1.0  0.57374000(14000)  0.07374000(14000)  0.81480000(20000)  0.11400
 C5_28  C 1.0  0.31480000(14000)  0.57374000(14000)  0.57374000(20000)  0.11400
 C5_29  C 1.0  0.81480000(14000)  0.57374000(14000)  0.07374000(20000)  0.11400
 C5_30  C 1.0  0.81480000(14000)  0.07374000(14000)  0.57374000(20000)  0.11400
 C5_31  C 1.0  0.07374000(14000)  0.81480000(14000)  0.57374000(20000)  0.11400
 C5_32  C 1.0  0.57374000(14000)  0.81480000(14000)  0.07374000(20000)  0.11400
 C5_33  C 1.0  0.57374000(14000)  0.31480000(14000)  0.57374000(20000)  0.11400
 C5_34  C 1.0  0.07374000(14000)  0.57374000(14000)  0.18520000(20000)  0.11400
 C5_35  C 1.0  0.57374000(14000)  0.57374000(14000)  0.68520000(20000)  0.11400
 C5_36  C 1.0  0.57374000(14000)  0.07374000(14000)  0.18520000(20000)  0.11400
 C5_37  C 1.0  0.31480000(14000)  0.57374000(14000)  0.42626000(20000)  0.11400
 C5_38  C 1.0  0.81480000(14000)  0.57374000(14000)  0.92626000(20000)  0.11400
 C5_39  C 1.0  0.81480000(14000)  0.07374000(14000)  0.42626000(20000)  0.11400
 C5_40  C 1.0  0.07374000(14000)  0.81480000(14000)  0.42626000(20000)  0.11400
 C5_41  C 1.0  0.57374000(14000)  0.81480000(14000)  0.92626000(20000)  0.11400
 C5_42  C 1.0  0.57374000(14000)  0.31480000(14000)  0.42626000(20000)  0.11400
 C5_43  C 1.0  0.92626000(14000)  0.57374000(14000)  0.81480000(20000)  0.11400
 C5_44  C 1.0  0.42626000(14000)  0.57374000(14000)  0.31480000(20000)  0.11400
 C5_45  C 1.0  0.42626000(14000)  0.07374000(14000)  0.81480000(20000)  0.11400
 C5_46  C 1.0  0.68520000(14000)  0.57374000(14000)  0.57374000(20000)  0.11400
 C5_47  C 1.0  0.18520000(14000)  0.57374000(14000)  0.07374000(20000)  0.11400
 C5_48  C 1.0  0.18520000(14000)  0.07374000(14000)  0.57374000(20000)  0.11400
 C5_49  C 1.0  0.92626000(14000)  0.81480000(14000)  0.57374000(20000)  0.11400
 C5_50  C 1.0  0.42626000(14000)  0.81480000(14000)  0.07374000(20000)  0.11400
 C5_51  C 1.0  0.42626000(14000)  0.31480000(14000)  0.57374000(20000)  0.11400
 C5_52  C 1.0  0.92626000(14000)  0.57374000(14000)  0.18520000(20000)  0.11400
 C5_53  C 1.0  0.42626000(14000)  0.57374000(14000)  0.68520000(20000)  0.11400
 C5_54  C 1.0  0.42626000(14000)  0.07374000(14000)  0.18520000(20000)  0.11400
 C5_55  C 1.0  0.68520000(14000)  0.57374000(14000)  0.42626000(20000)  0.11400
 C5_56  C 1.0  0.18520000(14000)  0.57374000(14000)  0.92626000(20000)  0.11400
 C5_57  C 1.0  0.18520000(14000)  0.07374000(14000)  0.42626000(20000)  0.11400
 C5_58  C 1.0  0.92626000(14000)  0.81480000(14000)  0.42626000(20000)  0.11400
 C5_59  C 1.0  0.42626000(14000)  0.81480000(14000)  0.92626000(20000)  0.11400
 C5_60  C 1.0  0.42626000(14000)  0.31480000(14000)  0.42626000(20000)  0.11400
 C5_61  C 1.0  0.07374000(14000)  0.42626000(14000)  0.81480000(20000)  0.11400
 C5_62  C 1.0  0.57374000(14000)  0.42626000(14000)  0.31480000(20000)  0.11400
 C5_63  C 1.0  0.57374000(14000)  0.92626000(14000)  0.81480000(20000)  0.11400
 C5_64  C 1.0  0.07374000(14000)  0.18520000(14000)  0.57374000(20000)  0.11400
 C5_65  C 1.0  0.57374000(14000)  0.18520000(14000)  0.07374000(20000)  0.11400
 C5_66  C 1.0  0.57374000(14000)  0.68520000(14000)  0.57374000(20000)  0.11400
 C5_67  C 1.0  0.31480000(14000)  0.42626000(14000)  0.57374000(20000)  0.11400
 C5_68  C 1.0  0.81480000(14000)  0.42626000(14000)  0.07374000(20000)  0.11400
 C5_69  C 1.0  0.81480000(14000)  0.92626000(14000)  0.57374000(20000)  0.11400
 C5_70  C 1.0  0.07374000(14000)  0.42626000(14000)  0.18520000(20000)  0.11400
 C5_71  C 1.0  0.57374000(14000)  0.42626000(14000)  0.68520000(20000)  0.11400
 C5_72  C 1.0  0.57374000(14000)  0.92626000(14000)  0.18520000(20000)  0.11400
 C5_73  C 1.0  0.07374000(14000)  0.18520000(14000)  0.42626000(20000)  0.11400
 C5_74  C 1.0  0.57374000(14000)  0.18520000(14000)  0.92626000(20000)  0.11400
 C5_75  C 1.0  0.57374000(14000)  0.68520000(14000)  0.42626000(20000)  0.11400
 C5_76  C 1.0  0.31480000(14000)  0.42626000(14000)  0.42626000(20000)  0.11400
 C5_77  C 1.0  0.81480000(14000)  0.42626000(14000)  0.92626000(20000)  0.11400
 C5_78  C 1.0  0.81480000(14000)  0.92626000(14000)  0.42626000(20000)  0.11400
 C5_79  C 1.0  0.92626000(14000)  0.42626000(14000)  0.18520000(20000)  0.11400
 C5_80  C 1.0  0.42626000(14000)  0.42626000(14000)  0.68520000(20000)  0.11400
 C5_81  C 1.0  0.42626000(14000)  0.92626000(14000)  0.18520000(20000)  0.11400
 C5_82  C 1.0  0.68520000(14000)  0.42626000(14000)  0.42626000(20000)  0.11400
 C5_83  C 1.0  0.18520000(14000)  0.42626000(14000)  0.92626000(20000)  0.11400
 C5_84  C 1.0  0.18520000(14000)  0.92626000(14000)  0.42626000(20000)  0.11400
 C5_85  C 1.0  0.92626000(14000)  0.18520000(14000)  0.42626000(20000)  0.11400
 C5_86  C 1.0  0.42626000(14000)  0.18520000(14000)  0.92626000(20000)  0.11400
 C5_87  C 1.0  0.42626000(14000)  0.68520000(14000)  0.42626000(20000)  0.11400
 C5_88  C 1.0  0.92626000(14000)  0.42626000(14000)  0.81480000(20000)  0.11400
 C5_89  C 1.0  0.42626000(14000)  0.42626000(14000)  0.31480000(20000)  0.11400
 C5_90  C 1.0  0.42626000(14000)  0.92626000(14000)  0.81480000(20000)  0.11400
 C5_91  C 1.0  0.68520000(14000)  0.42626000(14000)  0.57374000(20000)  0.11400
 C5_92  C 1.0  0.18520000(14000)  0.42626000(14000)  0.07374000(20000)  0.11400
 C5_93  C 1.0  0.18520000(14000)  0.92626000(14000)  0.57374000(20000)  0.11400
 C5_94  C 1.0  0.92626000(14000)  0.18520000(14000)  0.57374000(20000)  0.11400
 C5_95  C 1.0  0.42626000(14000)  0.18520000(14000)  0.07374000(20000)  0.11400
 C5_96  C 1.0  0.42626000(14000)  0.68520000(14000)  0.57374000(20000)  0.11400
 C6  C 1.0  0.08052000(19000)  0.08052000(19000)  0.29090000(20000)  0.15600
 C6_2  C 1.0  0.29090000(19000)  0.08052000(19000)  0.08052000(20000)  0.15600
 C6_3  C 1.0  0.08052000(19000)  0.29090000(19000)  0.08052000(20000)  0.15600
 C6_4  C 1.0  0.08052000(19000)  0.08052000(19000)  0.70910000(20000)  0.15600
 C6_5  C 1.0  0.29090000(19000)  0.08052000(19000)  0.91948000(20000)  0.15600
 C6_6  C 1.0  0.08052000(19000)  0.29090000(19000)  0.91948000(20000)  0.15600
 C6_7  C 1.0  0.91948000(19000)  0.08052000(19000)  0.29090000(20000)  0.15600
 C6_8  C 1.0  0.70910000(19000)  0.08052000(19000)  0.08052000(20000)  0.15600
 C6_9  C 1.0  0.91948000(19000)  0.29090000(19000)  0.08052000(20000)  0.15600
 C6_10  C 1.0  0.91948000(19000)  0.08052000(19000)  0.70910000(20000)  0.15600
 C6_11  C 1.0  0.70910000(19000)  0.08052000(19000)  0.91948000(20000)  0.15600
 C6_12  C 1.0  0.91948000(19000)  0.29090000(19000)  0.91948000(20000)  0.15600
 C6_13  C 1.0  0.08052000(19000)  0.91948000(19000)  0.29090000(20000)  0.15600
 C6_14  C 1.0  0.08052000(19000)  0.70910000(19000)  0.08052000(20000)  0.15600
 C6_15  C 1.0  0.29090000(19000)  0.91948000(19000)  0.08052000(20000)  0.15600
 C6_16  C 1.0  0.08052000(19000)  0.91948000(19000)  0.70910000(20000)  0.15600
 C6_17  C 1.0  0.08052000(19000)  0.70910000(19000)  0.91948000(20000)  0.15600
 C6_18  C 1.0  0.29090000(19000)  0.91948000(19000)  0.91948000(20000)  0.15600
 C6_19  C 1.0  0.91948000(19000)  0.91948000(19000)  0.70910000(20000)  0.15600
 C6_20  C 1.0  0.70910000(19000)  0.91948000(19000)  0.91948000(20000)  0.15600
 C6_21  C 1.0  0.91948000(19000)  0.70910000(19000)  0.91948000(20000)  0.15600
 C6_22  C 1.0  0.91948000(19000)  0.91948000(19000)  0.29090000(20000)  0.15600
 C6_23  C 1.0  0.70910000(19000)  0.91948000(19000)  0.08052000(20000)  0.15600
 C6_24  C 1.0  0.91948000(19000)  0.70910000(19000)  0.08052000(20000)  0.15600
 C6_25  C 1.0  0.08052000(19000)  0.58052000(19000)  0.79090000(20000)  0.15600
 C6_26  C 1.0  0.58052000(19000)  0.58052000(19000)  0.29090000(20000)  0.15600
 C6_27  C 1.0  0.58052000(19000)  0.08052000(19000)  0.79090000(20000)  0.15600
 C6_28  C 1.0  0.29090000(19000)  0.58052000(19000)  0.58052000(20000)  0.15600
 C6_29  C 1.0  0.79090000(19000)  0.58052000(19000)  0.08052000(20000)  0.15600
 C6_30  C 1.0  0.79090000(19000)  0.08052000(19000)  0.58052000(20000)  0.15600
 C6_31  C 1.0  0.08052000(19000)  0.79090000(19000)  0.58052000(20000)  0.15600
 C6_32  C 1.0  0.58052000(19000)  0.79090000(19000)  0.08052000(20000)  0.15600
 C6_33  C 1.0  0.58052000(19000)  0.29090000(19000)  0.58052000(20000)  0.15600
 C6_34  C 1.0  0.08052000(19000)  0.58052000(19000)  0.20910000(20000)  0.15600
 C6_35  C 1.0  0.58052000(19000)  0.58052000(19000)  0.70910000(20000)  0.15600
 C6_36  C 1.0  0.58052000(19000)  0.08052000(19000)  0.20910000(20000)  0.15600
 C6_37  C 1.0  0.29090000(19000)  0.58052000(19000)  0.41948000(20000)  0.15600
 C6_38  C 1.0  0.79090000(19000)  0.58052000(19000)  0.91948000(20000)  0.15600
 C6_39  C 1.0  0.79090000(19000)  0.08052000(19000)  0.41948000(20000)  0.15600
 C6_40  C 1.0  0.08052000(19000)  0.79090000(19000)  0.41948000(20000)  0.15600
 C6_41  C 1.0  0.58052000(19000)  0.79090000(19000)  0.91948000(20000)  0.15600
 C6_42  C 1.0  0.58052000(19000)  0.29090000(19000)  0.41948000(20000)  0.15600
 C6_43  C 1.0  0.91948000(19000)  0.58052000(19000)  0.79090000(20000)  0.15600
 C6_44  C 1.0  0.41948000(19000)  0.58052000(19000)  0.29090000(20000)  0.15600
 C6_45  C 1.0  0.41948000(19000)  0.08052000(19000)  0.79090000(20000)  0.15600
 C6_46  C 1.0  0.70910000(19000)  0.58052000(19000)  0.58052000(20000)  0.15600
 C6_47  C 1.0  0.20910000(19000)  0.58052000(19000)  0.08052000(20000)  0.15600
 C6_48  C 1.0  0.20910000(19000)  0.08052000(19000)  0.58052000(20000)  0.15600
 C6_49  C 1.0  0.91948000(19000)  0.79090000(19000)  0.58052000(20000)  0.15600
 C6_50  C 1.0  0.41948000(19000)  0.79090000(19000)  0.08052000(20000)  0.15600
 C6_51  C 1.0  0.41948000(19000)  0.29090000(19000)  0.58052000(20000)  0.15600
 C6_52  C 1.0  0.91948000(19000)  0.58052000(19000)  0.20910000(20000)  0.15600
 C6_53  C 1.0  0.41948000(19000)  0.58052000(19000)  0.70910000(20000)  0.15600
 C6_54  C 1.0  0.41948000(19000)  0.08052000(19000)  0.20910000(20000)  0.15600
 C6_55  C 1.0  0.70910000(19000)  0.58052000(19000)  0.41948000(20000)  0.15600
 C6_56  C 1.0  0.20910000(19000)  0.58052000(19000)  0.91948000(20000)  0.15600
 C6_57  C 1.0  0.20910000(19000)  0.08052000(19000)  0.41948000(20000)  0.15600
 C6_58  C 1.0  0.91948000(19000)  0.79090000(19000)  0.41948000(20000)  0.15600
 C6_59  C 1.0  0.41948000(19000)  0.79090000(19000)  0.91948000(20000)  0.15600
 C6_60  C 1.0  0.41948000(19000)  0.29090000(19000)  0.41948000(20000)  0.15600
 C6_61  C 1.0  0.08052000(19000)  0.41948000(19000)  0.79090000(20000)  0.15600
 C6_62  C 1.0  0.58052000(19000)  0.41948000(19000)  0.29090000(20000)  0.15600
 C6_63  C 1.0  0.58052000(19000)  0.91948000(19000)  0.79090000(20000)  0.15600
 C6_64  C 1.0  0.08052000(19000)  0.20910000(19000)  0.58052000(20000)  0.15600
 C6_65  C 1.0  0.58052000(19000)  0.20910000(19000)  0.08052000(20000)  0.15600
 C6_66  C 1.0  0.58052000(19000)  0.70910000(19000)  0.58052000(20000)  0.15600
 C6_67  C 1.0  0.29090000(19000)  0.41948000(19000)  0.58052000(20000)  0.15600
 C6_68  C 1.0  0.79090000(19000)  0.41948000(19000)  0.08052000(20000)  0.15600
 C6_69  C 1.0  0.79090000(19000)  0.91948000(19000)  0.58052000(20000)  0.15600
 C6_70  C 1.0  0.08052000(19000)  0.41948000(19000)  0.20910000(20000)  0.15600
 C6_71  C 1.0  0.58052000(19000)  0.41948000(19000)  0.70910000(20000)  0.15600
 C6_72  C 1.0  0.58052000(19000)  0.91948000(19000)  0.20910000(20000)  0.15600
 C6_73  C 1.0  0.08052000(19000)  0.20910000(19000)  0.41948000(20000)  0.15600
 C6_74  C 1.0  0.58052000(19000)  0.20910000(19000)  0.91948000(20000)  0.15600
 C6_75  C 1.0  0.58052000(19000)  0.70910000(19000)  0.41948000(20000)  0.15600
 C6_76  C 1.0  0.29090000(19000)  0.41948000(19000)  0.41948000(20000)  0.15600
 C6_77  C 1.0  0.79090000(19000)  0.41948000(19000)  0.91948000(20000)  0.15600
 C6_78  C 1.0  0.79090000(19000)  0.91948000(19000)  0.41948000(20000)  0.15600
 C6_79  C 1.0  0.91948000(19000)  0.41948000(19000)  0.20910000(20000)  0.15600
 C6_80  C 1.0  0.41948000(19000)  0.41948000(19000)  0.70910000(20000)  0.15600
 C6_81  C 1.0  0.41948000(19000)  0.91948000(19000)  0.20910000(20000)  0.15600
 C6_82  C 1.0  0.70910000(19000)  0.41948000(19000)  0.41948000(20000)  0.15600
 C6_83  C 1.0  0.20910000(19000)  0.41948000(19000)  0.91948000(20000)  0.15600
 C6_84  C 1.0  0.20910000(19000)  0.91948000(19000)  0.41948000(20000)  0.15600
 C6_85  C 1.0  0.91948000(19000)  0.20910000(19000)  0.41948000(20000)  0.15600
 C6_86  C 1.0  0.41948000(19000)  0.20910000(19000)  0.91948000(20000)  0.15600
 C6_87  C 1.0  0.41948000(19000)  0.70910000(19000)  0.41948000(20000)  0.15600
 C6_88  C 1.0  0.91948000(19000)  0.41948000(19000)  0.79090000(20000)  0.15600
 C6_89  C 1.0  0.41948000(19000)  0.41948000(19000)  0.29090000(20000)  0.15600
 C6_90  C 1.0  0.41948000(19000)  0.91948000(19000)  0.79090000(20000)  0.15600
 C6_91  C 1.0  0.70910000(19000)  0.41948000(19000)  0.58052000(20000)  0.15600
 C6_92  C 1.0  0.20910000(19000)  0.41948000(19000)  0.08052000(20000)  0.15600
 C6_93  C 1.0  0.20910000(19000)  0.91948000(19000)  0.58052000(20000)  0.15600
 C6_94  C 1.0  0.91948000(19000)  0.20910000(19000)  0.58052000(20000)  0.15600
 C6_95  C 1.0  0.41948000(19000)  0.20910000(19000)  0.08052000(20000)  0.15600
 C6_96  C 1.0  0.41948000(19000)  0.70910000(19000)  0.58052000(20000)  0.15600
 C9  C 1.0  0.08980000(20000)  0.08980000(20000)  0.24320000(30000)  0.20800
 C9_2  C 1.0  0.24320000(20000)  0.08980000(20000)  0.08980000(30000)  0.20800
 C9_3  C 1.0  0.08980000(20000)  0.24320000(20000)  0.08980000(30000)  0.20800
 C9_4  C 1.0  0.08980000(20000)  0.08980000(20000)  0.75680000(30000)  0.20800
 C9_5  C 1.0  0.24320000(20000)  0.08980000(20000)  0.91020000(30000)  0.20800
 C9_6  C 1.0  0.08980000(20000)  0.24320000(20000)  0.91020000(30000)  0.20800
 C9_7  C 1.0  0.91020000(20000)  0.08980000(20000)  0.24320000(30000)  0.20800
 C9_8  C 1.0  0.75680000(20000)  0.08980000(20000)  0.08980000(30000)  0.20800
 C9_9  C 1.0  0.91020000(20000)  0.24320000(20000)  0.08980000(30000)  0.20800
 C9_10  C 1.0  0.91020000(20000)  0.08980000(20000)  0.75680000(30000)  0.20800
 C9_11  C 1.0  0.75680000(20000)  0.08980000(20000)  0.91020000(30000)  0.20800
 C9_12  C 1.0  0.91020000(20000)  0.24320000(20000)  0.91020000(30000)  0.20800
 C9_13  C 1.0  0.08980000(20000)  0.91020000(20000)  0.24320000(30000)  0.20800
 C9_14  C 1.0  0.08980000(20000)  0.75680000(20000)  0.08980000(30000)  0.20800
 C9_15  C 1.0  0.24320000(20000)  0.91020000(20000)  0.08980000(30000)  0.20800
 C9_16  C 1.0  0.08980000(20000)  0.91020000(20000)  0.75680000(30000)  0.20800
 C9_17  C 1.0  0.08980000(20000)  0.75680000(20000)  0.91020000(30000)  0.20800
 C9_18  C 1.0  0.24320000(20000)  0.91020000(20000)  0.91020000(30000)  0.20800
 C9_19  C 1.0  0.91020000(20000)  0.91020000(20000)  0.75680000(30000)  0.20800
 C9_20  C 1.0  0.75680000(20000)  0.91020000(20000)  0.91020000(30000)  0.20800
 C9_21  C 1.0  0.91020000(20000)  0.75680000(20000)  0.91020000(30000)  0.20800
 C9_22  C 1.0  0.91020000(20000)  0.91020000(20000)  0.24320000(30000)  0.20800
 C9_23  C 1.0  0.75680000(20000)  0.91020000(20000)  0.08980000(30000)  0.20800
 C9_24  C 1.0  0.91020000(20000)  0.75680000(20000)  0.08980000(30000)  0.20800
 C9_25  C 1.0  0.08980000(20000)  0.58980000(20000)  0.74320000(30000)  0.20800
 C9_26  C 1.0  0.58980000(20000)  0.58980000(20000)  0.24320000(30000)  0.20800
 C9_27  C 1.0  0.58980000(20000)  0.08980000(20000)  0.74320000(30000)  0.20800
 C9_28  C 1.0  0.24320000(20000)  0.58980000(20000)  0.58980000(30000)  0.20800
 C9_29  C 1.0  0.74320000(20000)  0.58980000(20000)  0.08980000(30000)  0.20800
 C9_30  C 1.0  0.74320000(20000)  0.08980000(20000)  0.58980000(30000)  0.20800
 C9_31  C 1.0  0.08980000(20000)  0.74320000(20000)  0.58980000(30000)  0.20800
 C9_32  C 1.0  0.58980000(20000)  0.74320000(20000)  0.08980000(30000)  0.20800
 C9_33  C 1.0  0.58980000(20000)  0.24320000(20000)  0.58980000(30000)  0.20800
 C9_34  C 1.0  0.08980000(20000)  0.58980000(20000)  0.25680000(30000)  0.20800
 C9_35  C 1.0  0.58980000(20000)  0.58980000(20000)  0.75680000(30000)  0.20800
 C9_36  C 1.0  0.58980000(20000)  0.08980000(20000)  0.25680000(30000)  0.20800
 C9_37  C 1.0  0.24320000(20000)  0.58980000(20000)  0.41020000(30000)  0.20800
 C9_38  C 1.0  0.74320000(20000)  0.58980000(20000)  0.91020000(30000)  0.20800
 C9_39  C 1.0  0.74320000(20000)  0.08980000(20000)  0.41020000(30000)  0.20800
 C9_40  C 1.0  0.08980000(20000)  0.74320000(20000)  0.41020000(30000)  0.20800
 C9_41  C 1.0  0.58980000(20000)  0.74320000(20000)  0.91020000(30000)  0.20800
 C9_42  C 1.0  0.58980000(20000)  0.24320000(20000)  0.41020000(30000)  0.20800
 C9_43  C 1.0  0.91020000(20000)  0.58980000(20000)  0.74320000(30000)  0.20800
 C9_44  C 1.0  0.41020000(20000)  0.58980000(20000)  0.24320000(30000)  0.20800
 C9_45  C 1.0  0.41020000(20000)  0.08980000(20000)  0.74320000(30000)  0.20800
 C9_46  C 1.0  0.75680000(20000)  0.58980000(20000)  0.58980000(30000)  0.20800
 C9_47  C 1.0  0.25680000(20000)  0.58980000(20000)  0.08980000(30000)  0.20800
 C9_48  C 1.0  0.25680000(20000)  0.08980000(20000)  0.58980000(30000)  0.20800
 C9_49  C 1.0  0.91020000(20000)  0.74320000(20000)  0.58980000(30000)  0.20800
 C9_50  C 1.0  0.41020000(20000)  0.74320000(20000)  0.08980000(30000)  0.20800
 C9_51  C 1.0  0.41020000(20000)  0.24320000(20000)  0.58980000(30000)  0.20800
 C9_52  C 1.0  0.91020000(20000)  0.58980000(20000)  0.25680000(30000)  0.20800
 C9_53  C 1.0  0.41020000(20000)  0.58980000(20000)  0.75680000(30000)  0.20800
 C9_54  C 1.0  0.41020000(20000)  0.08980000(20000)  0.25680000(30000)  0.20800
 C9_55  C 1.0  0.75680000(20000)  0.58980000(20000)  0.41020000(30000)  0.20800
 C9_56  C 1.0  0.25680000(20000)  0.58980000(20000)  0.91020000(30000)  0.20800
 C9_57  C 1.0  0.25680000(20000)  0.08980000(20000)  0.41020000(30000)  0.20800
 C9_58  C 1.0  0.91020000(20000)  0.74320000(20000)  0.41020000(30000)  0.20800
 C9_59  C 1.0  0.41020000(20000)  0.74320000(20000)  0.91020000(30000)  0.20800
 C9_60  C 1.0  0.41020000(20000)  0.24320000(20000)  0.41020000(30000)  0.20800
 C9_61  C 1.0  0.08980000(20000)  0.41020000(20000)  0.74320000(30000)  0.20800
 C9_62  C 1.0  0.58980000(20000)  0.41020000(20000)  0.24320000(30000)  0.20800
 C9_63  C 1.0  0.58980000(20000)  0.91020000(20000)  0.74320000(30000)  0.20800
 C9_64  C 1.0  0.08980000(20000)  0.25680000(20000)  0.58980000(30000)  0.20800
 C9_65  C 1.0  0.58980000(20000)  0.25680000(20000)  0.08980000(30000)  0.20800
 C9_66  C 1.0  0.58980000(20000)  0.75680000(20000)  0.58980000(30000)  0.20800
 C9_67  C 1.0  0.24320000(20000)  0.41020000(20000)  0.58980000(30000)  0.20800
 C9_68  C 1.0  0.74320000(20000)  0.41020000(20000)  0.08980000(30000)  0.20800
 C9_69  C 1.0  0.74320000(20000)  0.91020000(20000)  0.58980000(30000)  0.20800
 C9_70  C 1.0  0.08980000(20000)  0.41020000(20000)  0.25680000(30000)  0.20800
 C9_71  C 1.0  0.58980000(20000)  0.41020000(20000)  0.75680000(30000)  0.20800
 C9_72  C 1.0  0.58980000(20000)  0.91020000(20000)  0.25680000(30000)  0.20800
 C9_73  C 1.0  0.08980000(20000)  0.25680000(20000)  0.41020000(30000)  0.20800
 C9_74  C 1.0  0.58980000(20000)  0.25680000(20000)  0.91020000(30000)  0.20800
 C9_75  C 1.0  0.58980000(20000)  0.75680000(20000)  0.41020000(30000)  0.20800
 C9_76  C 1.0  0.24320000(20000)  0.41020000(20000)  0.41020000(30000)  0.20800
 C9_77  C 1.0  0.74320000(20000)  0.41020000(20000)  0.91020000(30000)  0.20800
 C9_78  C 1.0  0.74320000(20000)  0.91020000(20000)  0.41020000(30000)  0.20800
 C9_79  C 1.0  0.91020000(20000)  0.41020000(20000)  0.25680000(30000)  0.20800
 C9_80  C 1.0  0.41020000(20000)  0.41020000(20000)  0.75680000(30000)  0.20800
 C9_81  C 1.0  0.41020000(20000)  0.91020000(20000)  0.25680000(30000)  0.20800
 C9_82  C 1.0  0.75680000(20000)  0.41020000(20000)  0.41020000(30000)  0.20800
 C9_83  C 1.0  0.25680000(20000)  0.41020000(20000)  0.91020000(30000)  0.20800
 C9_84  C 1.0  0.25680000(20000)  0.91020000(20000)  0.41020000(30000)  0.20800
 C9_85  C 1.0  0.91020000(20000)  0.25680000(20000)  0.41020000(30000)  0.20800
 C9_86  C 1.0  0.41020000(20000)  0.25680000(20000)  0.91020000(30000)  0.20800
 C9_87  C 1.0  0.41020000(20000)  0.75680000(20000)  0.41020000(30000)  0.20800
 C9_88  C 1.0  0.91020000(20000)  0.41020000(20000)  0.74320000(30000)  0.20800
 C9_89  C 1.0  0.41020000(20000)  0.41020000(20000)  0.24320000(30000)  0.20800
 C9_90  C 1.0  0.41020000(20000)  0.91020000(20000)  0.74320000(30000)  0.20800
 C9_91  C 1.0  0.75680000(20000)  0.41020000(20000)  0.58980000(30000)  0.20800
 C9_92  C 1.0  0.25680000(20000)  0.41020000(20000)  0.08980000(30000)  0.20800
 C9_93  C 1.0  0.25680000(20000)  0.91020000(20000)  0.58980000(30000)  0.20800
 C9_94  C 1.0  0.91020000(20000)  0.25680000(20000)  0.58980000(30000)  0.20800
 C9_95  C 1.0  0.41020000(20000)  0.25680000(20000)  0.08980000(30000)  0.20800
 C9_96  C 1.0  0.41020000(20000)  0.75680000(20000)  0.58980000(30000)  0.20800
 C12  C 1.0  0.09575000(18000)  0.09575000(18000)  0.21670000(30000)  0.20800
 C12_2  C 1.0  0.21670000(18000)  0.09575000(18000)  0.09575000(30000)  0.20800
 C12_3  C 1.0  0.09575000(18000)  0.21670000(18000)  0.09575000(30000)  0.20800
 C12_4  C 1.0  0.09575000(18000)  0.09575000(18000)  0.78330000(30000)  0.20800
 C12_5  C 1.0  0.21670000(18000)  0.09575000(18000)  0.90425000(30000)  0.20800
 C12_6  C 1.0  0.09575000(18000)  0.21670000(18000)  0.90425000(30000)  0.20800
 C12_7  C 1.0  0.90425000(18000)  0.09575000(18000)  0.21670000(30000)  0.20800
 C12_8  C 1.0  0.78330000(18000)  0.09575000(18000)  0.09575000(30000)  0.20800
 C12_9  C 1.0  0.90425000(18000)  0.21670000(18000)  0.09575000(30000)  0.20800
 C12_10  C 1.0  0.90425000(18000)  0.09575000(18000)  0.78330000(30000)  0.20800
 C12_11  C 1.0  0.78330000(18000)  0.09575000(18000)  0.90425000(30000)  0.20800
 C12_12  C 1.0  0.90425000(18000)  0.21670000(18000)  0.90425000(30000)  0.20800
 C12_13  C 1.0  0.09575000(18000)  0.90425000(18000)  0.21670000(30000)  0.20800
 C12_14  C 1.0  0.09575000(18000)  0.78330000(18000)  0.09575000(30000)  0.20800
 C12_15  C 1.0  0.21670000(18000)  0.90425000(18000)  0.09575000(30000)  0.20800
 C12_16  C 1.0  0.09575000(18000)  0.90425000(18000)  0.78330000(30000)  0.20800
 C12_17  C 1.0  0.09575000(18000)  0.78330000(18000)  0.90425000(30000)  0.20800
 C12_18  C 1.0  0.21670000(18000)  0.90425000(18000)  0.90425000(30000)  0.20800
 C12_19  C 1.0  0.90425000(18000)  0.90425000(18000)  0.78330000(30000)  0.20800
 C12_20  C 1.0  0.78330000(18000)  0.90425000(18000)  0.90425000(30000)  0.20800
 C12_21  C 1.0  0.90425000(18000)  0.78330000(18000)  0.90425000(30000)  0.20800
 C12_22  C 1.0  0.90425000(18000)  0.90425000(18000)  0.21670000(30000)  0.20800
 C12_23  C 1.0  0.78330000(18000)  0.90425000(18000)  0.09575000(30000)  0.20800
 C12_24  C 1.0  0.90425000(18000)  0.78330000(18000)  0.09575000(30000)  0.20800
 C12_25  C 1.0  0.09575000(18000)  0.59575000(18000)  0.71670000(30000)  0.20800
 C12_26  C 1.0  0.59575000(18000)  0.59575000(18000)  0.21670000(30000)  0.20800
 C12_27  C 1.0  0.59575000(18000)  0.09575000(18000)  0.71670000(30000)  0.20800
 C12_28  C 1.0  0.21670000(18000)  0.59575000(18000)  0.59575000(30000)  0.20800
 C12_29  C 1.0  0.71670000(18000)  0.59575000(18000)  0.09575000(30000)  0.20800
 C12_30  C 1.0  0.71670000(18000)  0.09575000(18000)  0.59575000(30000)  0.20800
 C12_31  C 1.0  0.09575000(18000)  0.71670000(18000)  0.59575000(30000)  0.20800
 C12_32  C 1.0  0.59575000(18000)  0.71670000(18000)  0.09575000(30000)  0.20800
 C12_33  C 1.0  0.59575000(18000)  0.21670000(18000)  0.59575000(30000)  0.20800
 C12_34  C 1.0  0.09575000(18000)  0.59575000(18000)  0.28330000(30000)  0.20800
 C12_35  C 1.0  0.59575000(18000)  0.59575000(18000)  0.78330000(30000)  0.20800
 C12_36  C 1.0  0.59575000(18000)  0.09575000(18000)  0.28330000(30000)  0.20800
 C12_37  C 1.0  0.21670000(18000)  0.59575000(18000)  0.40425000(30000)  0.20800
 C12_38  C 1.0  0.71670000(18000)  0.59575000(18000)  0.90425000(30000)  0.20800
 C12_39  C 1.0  0.71670000(18000)  0.09575000(18000)  0.40425000(30000)  0.20800
 C12_40  C 1.0  0.09575000(18000)  0.71670000(18000)  0.40425000(30000)  0.20800
 C12_41  C 1.0  0.59575000(18000)  0.71670000(18000)  0.90425000(30000)  0.20800
 C12_42  C 1.0  0.59575000(18000)  0.21670000(18000)  0.40425000(30000)  0.20800
 C12_43  C 1.0  0.90425000(18000)  0.59575000(18000)  0.71670000(30000)  0.20800
 C12_44  C 1.0  0.40425000(18000)  0.59575000(18000)  0.21670000(30000)  0.20800
 C12_45  C 1.0  0.40425000(18000)  0.09575000(18000)  0.71670000(30000)  0.20800
 C12_46  C 1.0  0.78330000(18000)  0.59575000(18000)  0.59575000(30000)  0.20800
 C12_47  C 1.0  0.28330000(18000)  0.59575000(18000)  0.09575000(30000)  0.20800
 C12_48  C 1.0  0.28330000(18000)  0.09575000(18000)  0.59575000(30000)  0.20800
 C12_49  C 1.0  0.90425000(18000)  0.71670000(18000)  0.59575000(30000)  0.20800
 C12_50  C 1.0  0.40425000(18000)  0.71670000(18000)  0.09575000(30000)  0.20800
 C12_51  C 1.0  0.40425000(18000)  0.21670000(18000)  0.59575000(30000)  0.20800
 C12_52  C 1.0  0.90425000(18000)  0.59575000(18000)  0.28330000(30000)  0.20800
 C12_53  C 1.0  0.40425000(18000)  0.59575000(18000)  0.78330000(30000)  0.20800
 C12_54  C 1.0  0.40425000(18000)  0.09575000(18000)  0.28330000(30000)  0.20800
 C12_55  C 1.0  0.78330000(18000)  0.59575000(18000)  0.40425000(30000)  0.20800
 C12_56  C 1.0  0.28330000(18000)  0.59575000(18000)  0.90425000(30000)  0.20800
 C12_57  C 1.0  0.28330000(18000)  0.09575000(18000)  0.40425000(30000)  0.20800
 C12_58  C 1.0  0.90425000(18000)  0.71670000(18000)  0.40425000(30000)  0.20800
 C12_59  C 1.0  0.40425000(18000)  0.71670000(18000)  0.90425000(30000)  0.20800
 C12_60  C 1.0  0.40425000(18000)  0.21670000(18000)  0.40425000(30000)  0.20800
 C12_61  C 1.0  0.09575000(18000)  0.40425000(18000)  0.71670000(30000)  0.20800
 C12_62  C 1.0  0.59575000(18000)  0.40425000(18000)  0.21670000(30000)  0.20800
 C12_63  C 1.0  0.59575000(18000)  0.90425000(18000)  0.71670000(30000)  0.20800
 C12_64  C 1.0  0.09575000(18000)  0.28330000(18000)  0.59575000(30000)  0.20800
 C12_65  C 1.0  0.59575000(18000)  0.28330000(18000)  0.09575000(30000)  0.20800
 C12_66  C 1.0  0.59575000(18000)  0.78330000(18000)  0.59575000(30000)  0.20800
 C12_67  C 1.0  0.21670000(18000)  0.40425000(18000)  0.59575000(30000)  0.20800
 C12_68  C 1.0  0.71670000(18000)  0.40425000(18000)  0.09575000(30000)  0.20800
 C12_69  C 1.0  0.71670000(18000)  0.90425000(18000)  0.59575000(30000)  0.20800
 C12_70  C 1.0  0.09575000(18000)  0.40425000(18000)  0.28330000(30000)  0.20800
 C12_71  C 1.0  0.59575000(18000)  0.40425000(18000)  0.78330000(30000)  0.20800
 C12_72  C 1.0  0.59575000(18000)  0.90425000(18000)  0.28330000(30000)  0.20800
 C12_73  C 1.0  0.09575000(18000)  0.28330000(18000)  0.40425000(30000)  0.20800
 C12_74  C 1.0  0.59575000(18000)  0.28330000(18000)  0.90425000(30000)  0.20800
 C12_75  C 1.0  0.59575000(18000)  0.78330000(18000)  0.40425000(30000)  0.20800
 C12_76  C 1.0  0.21670000(18000)  0.40425000(18000)  0.40425000(30000)  0.20800
 C12_77  C 1.0  0.71670000(18000)  0.40425000(18000)  0.90425000(30000)  0.20800
 C12_78  C 1.0  0.71670000(18000)  0.90425000(18000)  0.40425000(30000)  0.20800
 C12_79  C 1.0  0.90425000(18000)  0.40425000(18000)  0.28330000(30000)  0.20800
 C12_80  C 1.0  0.40425000(18000)  0.40425000(18000)  0.78330000(30000)  0.20800
 C12_81  C 1.0  0.40425000(18000)  0.90425000(18000)  0.28330000(30000)  0.20800
 C12_82  C 1.0  0.78330000(18000)  0.40425000(18000)  0.40425000(30000)  0.20800
 C12_83  C 1.0  0.28330000(18000)  0.40425000(18000)  0.90425000(30000)  0.20800
 C12_84  C 1.0  0.28330000(18000)  0.90425000(18000)  0.40425000(30000)  0.20800
 C12_85  C 1.0  0.90425000(18000)  0.28330000(18000)  0.40425000(30000)  0.20800
 C12_86  C 1.0  0.40425000(18000)  0.28330000(18000)  0.90425000(30000)  0.20800
 C12_87  C 1.0  0.40425000(18000)  0.78330000(18000)  0.40425000(30000)  0.20800
 C12_88  C 1.0  0.90425000(18000)  0.40425000(18000)  0.71670000(30000)  0.20800
 C12_89  C 1.0  0.40425000(18000)  0.40425000(18000)  0.21670000(30000)  0.20800
 C12_90  C 1.0  0.40425000(18000)  0.90425000(18000)  0.71670000(30000)  0.20800
 C12_91  C 1.0  0.78330000(18000)  0.40425000(18000)  0.59575000(30000)  0.20800
 C12_92  C 1.0  0.28330000(18000)  0.40425000(18000)  0.09575000(30000)  0.20800
 C12_93  C 1.0  0.28330000(18000)  0.90425000(18000)  0.59575000(30000)  0.20800
 C12_94  C 1.0  0.90425000(18000)  0.28330000(18000)  0.59575000(30000)  0.20800
 C12_95  C 1.0  0.40425000(18000)  0.28330000(18000)  0.09575000(30000)  0.20800
 C12_96  C 1.0  0.40425000(18000)  0.78330000(18000)  0.59575000(30000)  0.20800
 C13  C 1.0  0.08455000(19000)  0.11331000(18000)  0.20460000(20000)  0.22000
 C13_2  C 1.0  0.20460000(19000)  0.08455000(18000)  0.11331000(20000)  0.22000
 C13_3  C 1.0  0.11331000(19000)  0.20460000(18000)  0.08455000(20000)  0.22000
 C13_4  C 1.0  0.08455000(19000)  0.11331000(18000)  0.79540000(20000)  0.22000
 C13_5  C 1.0  0.20460000(19000)  0.08455000(18000)  0.88669000(20000)  0.22000
 C13_6  C 1.0  0.11331000(19000)  0.20460000(18000)  0.91545000(20000)  0.22000
 C13_7  C 1.0  0.91545000(19000)  0.11331000(18000)  0.20460000(20000)  0.22000
 C13_8  C 1.0  0.79540000(19000)  0.08455000(18000)  0.11331000(20000)  0.22000
 C13_9  C 1.0  0.88669000(19000)  0.20460000(18000)  0.08455000(20000)  0.22000
 C13_10  C 1.0  0.91545000(19000)  0.11331000(18000)  0.79540000(20000)  0.22000
 C13_11  C 1.0  0.79540000(19000)  0.08455000(18000)  0.88669000(20000)  0.22000
 C13_12  C 1.0  0.88669000(19000)  0.20460000(18000)  0.91545000(20000)  0.22000
 C13_13  C 1.0  0.11331000(19000)  0.08455000(18000)  0.20460000(20000)  0.22000
 C13_14  C 1.0  0.08455000(19000)  0.20460000(18000)  0.11331000(20000)  0.22000
 C13_15  C 1.0  0.20460000(19000)  0.11331000(18000)  0.08455000(20000)  0.22000
 C13_16  C 1.0  0.11331000(19000)  0.08455000(18000)  0.79540000(20000)  0.22000
 C13_17  C 1.0  0.08455000(19000)  0.20460000(18000)  0.88669000(20000)  0.22000
 C13_18  C 1.0  0.20460000(19000)  0.11331000(18000)  0.91545000(20000)  0.22000
 C13_19  C 1.0  0.11331000(19000)  0.91545000(18000)  0.20460000(20000)  0.22000
 C13_20  C 1.0  0.08455000(19000)  0.79540000(18000)  0.11331000(20000)  0.22000
 C13_21  C 1.0  0.20460000(19000)  0.88669000(18000)  0.08455000(20000)  0.22000
 C13_22  C 1.0  0.11331000(19000)  0.91545000(18000)  0.79540000(20000)  0.22000
 C13_23  C 1.0  0.08455000(19000)  0.79540000(18000)  0.88669000(20000)  0.22000
 C13_24  C 1.0  0.20460000(19000)  0.88669000(18000)  0.91545000(20000)  0.22000
 C13_25  C 1.0  0.91545000(19000)  0.88669000(18000)  0.79540000(20000)  0.22000
 C13_26  C 1.0  0.79540000(19000)  0.91545000(18000)  0.88669000(20000)  0.22000
 C13_27  C 1.0  0.88669000(19000)  0.79540000(18000)  0.91545000(20000)  0.22000
 C13_28  C 1.0  0.91545000(19000)  0.88669000(18000)  0.20460000(20000)  0.22000
 C13_29  C 1.0  0.79540000(19000)  0.91545000(18000)  0.11331000(20000)  0.22000
 C13_30  C 1.0  0.88669000(19000)  0.79540000(18000)  0.08455000(20000)  0.22000
 C13_31  C 1.0  0.08455000(19000)  0.88669000(18000)  0.79540000(20000)  0.22000
 C13_32  C 1.0  0.20460000(19000)  0.91545000(18000)  0.88669000(20000)  0.22000
 C13_33  C 1.0  0.11331000(19000)  0.79540000(18000)  0.91545000(20000)  0.22000
 C13_34  C 1.0  0.08455000(19000)  0.88669000(18000)  0.20460000(20000)  0.22000
 C13_35  C 1.0  0.20460000(19000)  0.91545000(18000)  0.11331000(20000)  0.22000
 C13_36  C 1.0  0.11331000(19000)  0.79540000(18000)  0.08455000(20000)  0.22000
 C13_37  C 1.0  0.88669000(19000)  0.91545000(18000)  0.79540000(20000)  0.22000
 C13_38  C 1.0  0.91545000(19000)  0.79540000(18000)  0.88669000(20000)  0.22000
 C13_39  C 1.0  0.79540000(19000)  0.88669000(18000)  0.91545000(20000)  0.22000
 C13_40  C 1.0  0.88669000(19000)  0.91545000(18000)  0.20460000(20000)  0.22000
 C13_41  C 1.0  0.91545000(19000)  0.79540000(18000)  0.11331000(20000)  0.22000
 C13_42  C 1.0  0.79540000(19000)  0.88669000(18000)  0.08455000(20000)  0.22000
 C13_43  C 1.0  0.88669000(19000)  0.08455000(18000)  0.79540000(20000)  0.22000
 C13_44  C 1.0  0.91545000(19000)  0.20460000(18000)  0.88669000(20000)  0.22000
 C13_45  C 1.0  0.79540000(19000)  0.11331000(18000)  0.91545000(20000)  0.22000
 C13_46  C 1.0  0.88669000(19000)  0.08455000(18000)  0.20460000(20000)  0.22000
 C13_47  C 1.0  0.91545000(19000)  0.20460000(18000)  0.11331000(20000)  0.22000
 C13_48  C 1.0  0.79540000(19000)  0.11331000(18000)  0.08455000(20000)  0.22000
 C13_49  C 1.0  0.08455000(19000)  0.61331000(18000)  0.70460000(20000)  0.22000
 C13_50  C 1.0  0.58455000(19000)  0.61331000(18000)  0.20460000(20000)  0.22000
 C13_51  C 1.0  0.58455000(19000)  0.11331000(18000)  0.70460000(20000)  0.22000
 C13_52  C 1.0  0.20460000(19000)  0.58455000(18000)  0.61331000(20000)  0.22000
 C13_53  C 1.0  0.70460000(19000)  0.58455000(18000)  0.11331000(20000)  0.22000
 C13_54  C 1.0  0.70460000(19000)  0.08455000(18000)  0.61331000(20000)  0.22000
 C13_55  C 1.0  0.11331000(19000)  0.70460000(18000)  0.58455000(20000)  0.22000
 C13_56  C 1.0  0.61331000(19000)  0.70460000(18000)  0.08455000(20000)  0.22000
 C13_57  C 1.0  0.61331000(19000)  0.20460000(18000)  0.58455000(20000)  0.22000
 C13_58  C 1.0  0.08455000(19000)  0.61331000(18000)  0.29540000(20000)  0.22000
 C13_59  C 1.0  0.58455000(19000)  0.61331000(18000)  0.79540000(20000)  0.22000
 C13_60  C 1.0  0.58455000(19000)  0.11331000(18000)  0.29540000(20000)  0.22000
 C13_61  C 1.0  0.20460000(19000)  0.58455000(18000)  0.38669000(20000)  0.22000
 C13_62  C 1.0  0.70460000(19000)  0.58455000(18000)  0.88669000(20000)  0.22000
 C13_63  C 1.0  0.70460000(19000)  0.08455000(18000)  0.38669000(20000)  0.22000
 C13_64  C 1.0  0.11331000(19000)  0.70460000(18000)  0.41545000(20000)  0.22000
 C13_65  C 1.0  0.61331000(19000)  0.70460000(18000)  0.91545000(20000)  0.22000
 C13_66  C 1.0  0.61331000(19000)  0.20460000(18000)  0.41545000(20000)  0.22000
 C13_67  C 1.0  0.91545000(19000)  0.61331000(18000)  0.70460000(20000)  0.22000
 C13_68  C 1.0  0.41545000(19000)  0.61331000(18000)  0.20460000(20000)  0.22000
 C13_69  C 1.0  0.41545000(19000)  0.11331000(18000)  0.70460000(20000)  0.22000
 C13_70  C 1.0  0.79540000(19000)  0.58455000(18000)  0.61331000(20000)  0.22000
 C13_71  C 1.0  0.29540000(19000)  0.58455000(18000)  0.11331000(20000)  0.22000
 C13_72  C 1.0  0.29540000(19000)  0.08455000(18000)  0.61331000(20000)  0.22000
 C13_73  C 1.0  0.88669000(19000)  0.70460000(18000)  0.58455000(20000)  0.22000
 C13_74  C 1.0  0.38669000(19000)  0.70460000(18000)  0.08455000(20000)  0.22000
 C13_75  C 1.0  0.38669000(19000)  0.20460000(18000)  0.58455000(20000)  0.22000
 C13_76  C 1.0  0.91545000(19000)  0.61331000(18000)  0.29540000(20000)  0.22000
 C13_77  C 1.0  0.41545000(19000)  0.61331000(18000)  0.79540000(20000)  0.22000
 C13_78  C 1.0  0.41545000(19000)  0.11331000(18000)  0.29540000(20000)  0.22000
 C13_79  C 1.0  0.79540000(19000)  0.58455000(18000)  0.38669000(20000)  0.22000
 C13_80  C 1.0  0.29540000(19000)  0.58455000(18000)  0.88669000(20000)  0.22000
 C13_81  C 1.0  0.29540000(19000)  0.08455000(18000)  0.38669000(20000)  0.22000
 C13_82  C 1.0  0.88669000(19000)  0.70460000(18000)  0.41545000(20000)  0.22000
 C13_83  C 1.0  0.38669000(19000)  0.70460000(18000)  0.91545000(20000)  0.22000
 C13_84  C 1.0  0.38669000(19000)  0.20460000(18000)  0.41545000(20000)  0.22000
 C13_85  C 1.0  0.11331000(19000)  0.58455000(18000)  0.70460000(20000)  0.22000
 C13_86  C 1.0  0.61331000(19000)  0.58455000(18000)  0.20460000(20000)  0.22000
 C13_87  C 1.0  0.61331000(19000)  0.08455000(18000)  0.70460000(20000)  0.22000
 C13_88  C 1.0  0.08455000(19000)  0.70460000(18000)  0.61331000(20000)  0.22000
 C13_89  C 1.0  0.58455000(19000)  0.70460000(18000)  0.11331000(20000)  0.22000
 C13_90  C 1.0  0.58455000(19000)  0.20460000(18000)  0.61331000(20000)  0.22000
 C13_91  C 1.0  0.20460000(19000)  0.61331000(18000)  0.58455000(20000)  0.22000
 C13_92  C 1.0  0.70460000(19000)  0.61331000(18000)  0.08455000(20000)  0.22000
 C13_93  C 1.0  0.70460000(19000)  0.11331000(18000)  0.58455000(20000)  0.22000
 C13_94  C 1.0  0.11331000(19000)  0.58455000(18000)  0.29540000(20000)  0.22000
 C13_95  C 1.0  0.61331000(19000)  0.58455000(18000)  0.79540000(20000)  0.22000
 C13_96  C 1.0  0.61331000(19000)  0.08455000(18000)  0.29540000(20000)  0.22000
 C13_97  C 1.0  0.08455000(19000)  0.70460000(18000)  0.38669000(20000)  0.22000
 C13_98  C 1.0  0.58455000(19000)  0.70460000(18000)  0.88669000(20000)  0.22000
 C13_99  C 1.0  0.58455000(19000)  0.20460000(18000)  0.38669000(20000)  0.22000
 C13_100  C 1.0  0.20460000(19000)  0.61331000(18000)  0.41545000(20000)  0.22000
 C13_101  C 1.0  0.70460000(19000)  0.61331000(18000)  0.91545000(20000)  0.22000
 C13_102  C 1.0  0.70460000(19000)  0.11331000(18000)  0.41545000(20000)  0.22000
 C13_103  C 1.0  0.11331000(19000)  0.41545000(18000)  0.70460000(20000)  0.22000
 C13_104  C 1.0  0.61331000(19000)  0.41545000(18000)  0.20460000(20000)  0.22000
 C13_105  C 1.0  0.61331000(19000)  0.91545000(18000)  0.70460000(20000)  0.22000
 C13_106  C 1.0  0.08455000(19000)  0.29540000(18000)  0.61331000(20000)  0.22000
 C13_107  C 1.0  0.58455000(19000)  0.29540000(18000)  0.11331000(20000)  0.22000
 C13_108  C 1.0  0.58455000(19000)  0.79540000(18000)  0.61331000(20000)  0.22000
 C13_109  C 1.0  0.20460000(19000)  0.38669000(18000)  0.58455000(20000)  0.22000
 C13_110  C 1.0  0.70460000(19000)  0.38669000(18000)  0.08455000(20000)  0.22000
 C13_111  C 1.0  0.70460000(19000)  0.88669000(18000)  0.58455000(20000)  0.22000
 C13_112  C 1.0  0.11331000(19000)  0.41545000(18000)  0.29540000(20000)  0.22000
 C13_113  C 1.0  0.61331000(19000)  0.41545000(18000)  0.79540000(20000)  0.22000
 C13_114  C 1.0  0.61331000(19000)  0.91545000(18000)  0.29540000(20000)  0.22000
 C13_115  C 1.0  0.08455000(19000)  0.29540000(18000)  0.38669000(20000)  0.22000
 C13_116  C 1.0  0.58455000(19000)  0.29540000(18000)  0.88669000(20000)  0.22000
 C13_117  C 1.0  0.58455000(19000)  0.79540000(18000)  0.38669000(20000)  0.22000
 C13_118  C 1.0  0.20460000(19000)  0.38669000(18000)  0.41545000(20000)  0.22000
 C13_119  C 1.0  0.70460000(19000)  0.38669000(18000)  0.91545000(20000)  0.22000
 C13_120  C 1.0  0.70460000(19000)  0.88669000(18000)  0.41545000(20000)  0.22000
 C13_121  C 1.0  0.91545000(19000)  0.38669000(18000)  0.29540000(20000)  0.22000
 C13_122  C 1.0  0.41545000(19000)  0.38669000(18000)  0.79540000(20000)  0.22000
 C13_123  C 1.0  0.41545000(19000)  0.88669000(18000)  0.29540000(20000)  0.22000
 C13_124  C 1.0  0.79540000(19000)  0.41545000(18000)  0.38669000(20000)  0.22000
 C13_125  C 1.0  0.29540000(19000)  0.41545000(18000)  0.88669000(20000)  0.22000
 C13_126  C 1.0  0.29540000(19000)  0.91545000(18000)  0.38669000(20000)  0.22000
 C13_127  C 1.0  0.88669000(19000)  0.29540000(18000)  0.41545000(20000)  0.22000
 C13_128  C 1.0  0.38669000(19000)  0.29540000(18000)  0.91545000(20000)  0.22000
 C13_129  C 1.0  0.38669000(19000)  0.79540000(18000)  0.41545000(20000)  0.22000
 C13_130  C 1.0  0.91545000(19000)  0.38669000(18000)  0.70460000(20000)  0.22000
 C13_131  C 1.0  0.41545000(19000)  0.38669000(18000)  0.20460000(20000)  0.22000
 C13_132  C 1.0  0.41545000(19000)  0.88669000(18000)  0.70460000(20000)  0.22000
 C13_133  C 1.0  0.79540000(19000)  0.41545000(18000)  0.61331000(20000)  0.22000
 C13_134  C 1.0  0.29540000(19000)  0.41545000(18000)  0.11331000(20000)  0.22000
 C13_135  C 1.0  0.29540000(19000)  0.91545000(18000)  0.61331000(20000)  0.22000
 C13_136  C 1.0  0.88669000(19000)  0.29540000(18000)  0.58455000(20000)  0.22000
 C13_137  C 1.0  0.38669000(19000)  0.29540000(18000)  0.08455000(20000)  0.22000
 C13_138  C 1.0  0.38669000(19000)  0.79540000(18000)  0.58455000(20000)  0.22000
 C13_139  C 1.0  0.08455000(19000)  0.38669000(18000)  0.29540000(20000)  0.22000
 C13_140  C 1.0  0.58455000(19000)  0.38669000(18000)  0.79540000(20000)  0.22000
 C13_141  C 1.0  0.58455000(19000)  0.88669000(18000)  0.29540000(20000)  0.22000
 C13_142  C 1.0  0.20460000(19000)  0.41545000(18000)  0.38669000(20000)  0.22000
 C13_143  C 1.0  0.70460000(19000)  0.41545000(18000)  0.88669000(20000)  0.22000
 C13_144  C 1.0  0.70460000(19000)  0.91545000(18000)  0.38669000(20000)  0.22000
 C13_145  C 1.0  0.11331000(19000)  0.29540000(18000)  0.41545000(20000)  0.22000
 C13_146  C 1.0  0.61331000(19000)  0.29540000(18000)  0.91545000(20000)  0.22000
 C13_147  C 1.0  0.61331000(19000)  0.79540000(18000)  0.41545000(20000)  0.22000
 C13_148  C 1.0  0.08455000(19000)  0.38669000(18000)  0.70460000(20000)  0.22000
 C13_149  C 1.0  0.58455000(19000)  0.38669000(18000)  0.20460000(20000)  0.22000
 C13_150  C 1.0  0.58455000(19000)  0.88669000(18000)  0.70460000(20000)  0.22000
 C13_151  C 1.0  0.20460000(19000)  0.41545000(18000)  0.61331000(20000)  0.22000
 C13_152  C 1.0  0.70460000(19000)  0.41545000(18000)  0.11331000(20000)  0.22000
 C13_153  C 1.0  0.70460000(19000)  0.91545000(18000)  0.61331000(20000)  0.22000
 C13_154  C 1.0  0.11331000(19000)  0.29540000(18000)  0.58455000(20000)  0.22000
 C13_155  C 1.0  0.61331000(19000)  0.29540000(18000)  0.08455000(20000)  0.22000
 C13_156  C 1.0  0.61331000(19000)  0.79540000(18000)  0.58455000(20000)  0.22000
 C13_157  C 1.0  0.88669000(19000)  0.41545000(18000)  0.29540000(20000)  0.22000
 C13_158  C 1.0  0.38669000(19000)  0.41545000(18000)  0.79540000(20000)  0.22000
 C13_159  C 1.0  0.38669000(19000)  0.91545000(18000)  0.29540000(20000)  0.22000
 C13_160  C 1.0  0.91545000(19000)  0.29540000(18000)  0.38669000(20000)  0.22000
 C13_161  C 1.0  0.41545000(19000)  0.29540000(18000)  0.88669000(20000)  0.22000
 C13_162  C 1.0  0.41545000(19000)  0.79540000(18000)  0.38669000(20000)  0.22000
 C13_163  C 1.0  0.79540000(19000)  0.38669000(18000)  0.41545000(20000)  0.22000
 C13_164  C 1.0  0.29540000(19000)  0.38669000(18000)  0.91545000(20000)  0.22000
 C13_165  C 1.0  0.29540000(19000)  0.88669000(18000)  0.41545000(20000)  0.22000
 C13_166  C 1.0  0.88669000(19000)  0.41545000(18000)  0.70460000(20000)  0.22000
 C13_167  C 1.0  0.38669000(19000)  0.41545000(18000)  0.20460000(20000)  0.22000
 C13_168  C 1.0  0.38669000(19000)  0.91545000(18000)  0.70460000(20000)  0.22000
 C13_169  C 1.0  0.91545000(19000)  0.29540000(18000)  0.61331000(20000)  0.22000
 C13_170  C 1.0  0.41545000(19000)  0.29540000(18000)  0.11331000(20000)  0.22000
 C13_171  C 1.0  0.41545000(19000)  0.79540000(18000)  0.61331000(20000)  0.22000
 C13_172  C 1.0  0.79540000(19000)  0.38669000(18000)  0.58455000(20000)  0.22000
 C13_173  C 1.0  0.29540000(19000)  0.38669000(18000)  0.08455000(20000)  0.22000
 C13_174  C 1.0  0.29540000(19000)  0.88669000(18000)  0.58455000(20000)  0.22000
 C13_175  C 1.0  0.88669000(19000)  0.58455000(18000)  0.29540000(20000)  0.22000
 C13_176  C 1.0  0.38669000(19000)  0.58455000(18000)  0.79540000(20000)  0.22000
 C13_177  C 1.0  0.38669000(19000)  0.08455000(18000)  0.29540000(20000)  0.22000
 C13_178  C 1.0  0.91545000(19000)  0.70460000(18000)  0.38669000(20000)  0.22000
 C13_179  C 1.0  0.41545000(19000)  0.70460000(18000)  0.88669000(20000)  0.22000
 C13_180  C 1.0  0.41545000(19000)  0.20460000(18000)  0.38669000(20000)  0.22000
 C13_181  C 1.0  0.79540000(19000)  0.61331000(18000)  0.41545000(20000)  0.22000
 C13_182  C 1.0  0.29540000(19000)  0.61331000(18000)  0.91545000(20000)  0.22000
 C13_183  C 1.0  0.29540000(19000)  0.11331000(18000)  0.41545000(20000)  0.22000
 C13_184  C 1.0  0.88669000(19000)  0.58455000(18000)  0.70460000(20000)  0.22000
 C13_185  C 1.0  0.38669000(19000)  0.58455000(18000)  0.20460000(20000)  0.22000
 C13_186  C 1.0  0.38669000(19000)  0.08455000(18000)  0.70460000(20000)  0.22000
 C13_187  C 1.0  0.91545000(19000)  0.70460000(18000)  0.61331000(20000)  0.22000
 C13_188  C 1.0  0.41545000(19000)  0.70460000(18000)  0.11331000(20000)  0.22000
 C13_189  C 1.0  0.41545000(19000)  0.20460000(18000)  0.61331000(20000)  0.22000
 C13_190  C 1.0  0.79540000(19000)  0.61331000(18000)  0.58455000(20000)  0.22000
 C13_191  C 1.0  0.29540000(19000)  0.61331000(18000)  0.08455000(20000)  0.22000
 C13_192  C 1.0  0.29540000(19000)  0.11331000(18000)  0.58455000(20000)  0.22000
 C14  C 1.0  0.09070000(20000)  0.11920000(20000)  0.18210000(20000)  0.25200
 C14_2  C 1.0  0.18210000(20000)  0.09070000(20000)  0.11920000(20000)  0.25200
 C14_3  C 1.0  0.11920000(20000)  0.18210000(20000)  0.09070000(20000)  0.25200
 C14_4  C 1.0  0.09070000(20000)  0.11920000(20000)  0.81790000(20000)  0.25200
 C14_5  C 1.0  0.18210000(20000)  0.09070000(20000)  0.88080000(20000)  0.25200
 C14_6  C 1.0  0.11920000(20000)  0.18210000(20000)  0.90930000(20000)  0.25200
 C14_7  C 1.0  0.90930000(20000)  0.11920000(20000)  0.18210000(20000)  0.25200
 C14_8  C 1.0  0.81790000(20000)  0.09070000(20000)  0.11920000(20000)  0.25200
 C14_9  C 1.0  0.88080000(20000)  0.18210000(20000)  0.09070000(20000)  0.25200
 C14_10  C 1.0  0.90930000(20000)  0.11920000(20000)  0.81790000(20000)  0.25200
 C14_11  C 1.0  0.81790000(20000)  0.09070000(20000)  0.88080000(20000)  0.25200
 C14_12  C 1.0  0.88080000(20000)  0.18210000(20000)  0.90930000(20000)  0.25200
 C14_13  C 1.0  0.11920000(20000)  0.09070000(20000)  0.18210000(20000)  0.25200
 C14_14  C 1.0  0.09070000(20000)  0.18210000(20000)  0.11920000(20000)  0.25200
 C14_15  C 1.0  0.18210000(20000)  0.11920000(20000)  0.09070000(20000)  0.25200
 C14_16  C 1.0  0.11920000(20000)  0.09070000(20000)  0.81790000(20000)  0.25200
 C14_17  C 1.0  0.09070000(20000)  0.18210000(20000)  0.88080000(20000)  0.25200
 C14_18  C 1.0  0.18210000(20000)  0.11920000(20000)  0.90930000(20000)  0.25200
 C14_19  C 1.0  0.11920000(20000)  0.90930000(20000)  0.18210000(20000)  0.25200
 C14_20  C 1.0  0.09070000(20000)  0.81790000(20000)  0.11920000(20000)  0.25200
 C14_21  C 1.0  0.18210000(20000)  0.88080000(20000)  0.09070000(20000)  0.25200
 C14_22  C 1.0  0.11920000(20000)  0.90930000(20000)  0.81790000(20000)  0.25200
 C14_23  C 1.0  0.09070000(20000)  0.81790000(20000)  0.88080000(20000)  0.25200
 C14_24  C 1.0  0.18210000(20000)  0.88080000(20000)  0.90930000(20000)  0.25200
 C14_25  C 1.0  0.90930000(20000)  0.88080000(20000)  0.81790000(20000)  0.25200
 C14_26  C 1.0  0.81790000(20000)  0.90930000(20000)  0.88080000(20000)  0.25200
 C14_27  C 1.0  0.88080000(20000)  0.81790000(20000)  0.90930000(20000)  0.25200
 C14_28  C 1.0  0.90930000(20000)  0.88080000(20000)  0.18210000(20000)  0.25200
 C14_29  C 1.0  0.81790000(20000)  0.90930000(20000)  0.11920000(20000)  0.25200
 C14_30  C 1.0  0.88080000(20000)  0.81790000(20000)  0.09070000(20000)  0.25200
 C14_31  C 1.0  0.09070000(20000)  0.88080000(20000)  0.81790000(20000)  0.25200
 C14_32  C 1.0  0.18210000(20000)  0.90930000(20000)  0.88080000(20000)  0.25200
 C14_33  C 1.0  0.11920000(20000)  0.81790000(20000)  0.90930000(20000)  0.25200
 C14_34  C 1.0  0.09070000(20000)  0.88080000(20000)  0.18210000(20000)  0.25200
 C14_35  C 1.0  0.18210000(20000)  0.90930000(20000)  0.11920000(20000)  0.25200
 C14_36  C 1.0  0.11920000(20000)  0.81790000(20000)  0.09070000(20000)  0.25200
 C14_37  C 1.0  0.88080000(20000)  0.90930000(20000)  0.81790000(20000)  0.25200
 C14_38  C 1.0  0.90930000(20000)  0.81790000(20000)  0.88080000(20000)  0.25200
 C14_39  C 1.0  0.81790000(20000)  0.88080000(20000)  0.90930000(20000)  0.25200
 C14_40  C 1.0  0.88080000(20000)  0.90930000(20000)  0.18210000(20000)  0.25200
 C14_41  C 1.0  0.90930000(20000)  0.81790000(20000)  0.11920000(20000)  0.25200
 C14_42  C 1.0  0.81790000(20000)  0.88080000(20000)  0.09070000(20000)  0.25200
 C14_43  C 1.0  0.88080000(20000)  0.09070000(20000)  0.81790000(20000)  0.25200
 C14_44  C 1.0  0.90930000(20000)  0.18210000(20000)  0.88080000(20000)  0.25200
 C14_45  C 1.0  0.81790000(20000)  0.11920000(20000)  0.90930000(20000)  0.25200
 C14_46  C 1.0  0.88080000(20000)  0.09070000(20000)  0.18210000(20000)  0.25200
 C14_47  C 1.0  0.90930000(20000)  0.18210000(20000)  0.11920000(20000)  0.25200
 C14_48  C 1.0  0.81790000(20000)  0.11920000(20000)  0.09070000(20000)  0.25200
 C14_49  C 1.0  0.09070000(20000)  0.61920000(20000)  0.68210000(20000)  0.25200
 C14_50  C 1.0  0.59070000(20000)  0.61920000(20000)  0.18210000(20000)  0.25200
 C14_51  C 1.0  0.59070000(20000)  0.11920000(20000)  0.68210000(20000)  0.25200
 C14_52  C 1.0  0.18210000(20000)  0.59070000(20000)  0.61920000(20000)  0.25200
 C14_53  C 1.0  0.68210000(20000)  0.59070000(20000)  0.11920000(20000)  0.25200
 C14_54  C 1.0  0.68210000(20000)  0.09070000(20000)  0.61920000(20000)  0.25200
 C14_55  C 1.0  0.11920000(20000)  0.68210000(20000)  0.59070000(20000)  0.25200
 C14_56  C 1.0  0.61920000(20000)  0.68210000(20000)  0.09070000(20000)  0.25200
 C14_57  C 1.0  0.61920000(20000)  0.18210000(20000)  0.59070000(20000)  0.25200
 C14_58  C 1.0  0.09070000(20000)  0.61920000(20000)  0.31790000(20000)  0.25200
 C14_59  C 1.0  0.59070000(20000)  0.61920000(20000)  0.81790000(20000)  0.25200
 C14_60  C 1.0  0.59070000(20000)  0.11920000(20000)  0.31790000(20000)  0.25200
 C14_61  C 1.0  0.18210000(20000)  0.59070000(20000)  0.38080000(20000)  0.25200
 C14_62  C 1.0  0.68210000(20000)  0.59070000(20000)  0.88080000(20000)  0.25200
 C14_63  C 1.0  0.68210000(20000)  0.09070000(20000)  0.38080000(20000)  0.25200
 C14_64  C 1.0  0.11920000(20000)  0.68210000(20000)  0.40930000(20000)  0.25200
 C14_65  C 1.0  0.61920000(20000)  0.68210000(20000)  0.90930000(20000)  0.25200
 C14_66  C 1.0  0.61920000(20000)  0.18210000(20000)  0.40930000(20000)  0.25200
 C14_67  C 1.0  0.90930000(20000)  0.61920000(20000)  0.68210000(20000)  0.25200
 C14_68  C 1.0  0.40930000(20000)  0.61920000(20000)  0.18210000(20000)  0.25200
 C14_69  C 1.0  0.40930000(20000)  0.11920000(20000)  0.68210000(20000)  0.25200
 C14_70  C 1.0  0.81790000(20000)  0.59070000(20000)  0.61920000(20000)  0.25200
 C14_71  C 1.0  0.31790000(20000)  0.59070000(20000)  0.11920000(20000)  0.25200
 C14_72  C 1.0  0.31790000(20000)  0.09070000(20000)  0.61920000(20000)  0.25200
 C14_73  C 1.0  0.88080000(20000)  0.68210000(20000)  0.59070000(20000)  0.25200
 C14_74  C 1.0  0.38080000(20000)  0.68210000(20000)  0.09070000(20000)  0.25200
 C14_75  C 1.0  0.38080000(20000)  0.18210000(20000)  0.59070000(20000)  0.25200
 C14_76  C 1.0  0.90930000(20000)  0.61920000(20000)  0.31790000(20000)  0.25200
 C14_77  C 1.0  0.40930000(20000)  0.61920000(20000)  0.81790000(20000)  0.25200
 C14_78  C 1.0  0.40930000(20000)  0.11920000(20000)  0.31790000(20000)  0.25200
 C14_79  C 1.0  0.81790000(20000)  0.59070000(20000)  0.38080000(20000)  0.25200
 C14_80  C 1.0  0.31790000(20000)  0.59070000(20000)  0.88080000(20000)  0.25200
 C14_81  C 1.0  0.31790000(20000)  0.09070000(20000)  0.38080000(20000)  0.25200
 C14_82  C 1.0  0.88080000(20000)  0.68210000(20000)  0.40930000(20000)  0.25200
 C14_83  C 1.0  0.38080000(20000)  0.68210000(20000)  0.90930000(20000)  0.25200
 C14_84  C 1.0  0.38080000(20000)  0.18210000(20000)  0.40930000(20000)  0.25200
 C14_85  C 1.0  0.11920000(20000)  0.59070000(20000)  0.68210000(20000)  0.25200
 C14_86  C 1.0  0.61920000(20000)  0.59070000(20000)  0.18210000(20000)  0.25200
 C14_87  C 1.0  0.61920000(20000)  0.09070000(20000)  0.68210000(20000)  0.25200
 C14_88  C 1.0  0.09070000(20000)  0.68210000(20000)  0.61920000(20000)  0.25200
 C14_89  C 1.0  0.59070000(20000)  0.68210000(20000)  0.11920000(20000)  0.25200
 C14_90  C 1.0  0.59070000(20000)  0.18210000(20000)  0.61920000(20000)  0.25200
 C14_91  C 1.0  0.18210000(20000)  0.61920000(20000)  0.59070000(20000)  0.25200
 C14_92  C 1.0  0.68210000(20000)  0.61920000(20000)  0.09070000(20000)  0.25200
 C14_93  C 1.0  0.68210000(20000)  0.11920000(20000)  0.59070000(20000)  0.25200
 C14_94  C 1.0  0.11920000(20000)  0.59070000(20000)  0.31790000(20000)  0.25200
 C14_95  C 1.0  0.61920000(20000)  0.59070000(20000)  0.81790000(20000)  0.25200
 C14_96  C 1.0  0.61920000(20000)  0.09070000(20000)  0.31790000(20000)  0.25200
 C14_97  C 1.0  0.09070000(20000)  0.68210000(20000)  0.38080000(20000)  0.25200
 C14_98  C 1.0  0.59070000(20000)  0.68210000(20000)  0.88080000(20000)  0.25200
 C14_99  C 1.0  0.59070000(20000)  0.18210000(20000)  0.38080000(20000)  0.25200
 C14_100  C 1.0  0.18210000(20000)  0.61920000(20000)  0.40930000(20000)  0.25200
 C14_101  C 1.0  0.68210000(20000)  0.61920000(20000)  0.90930000(20000)  0.25200
 C14_102  C 1.0  0.68210000(20000)  0.11920000(20000)  0.40930000(20000)  0.25200
 C14_103  C 1.0  0.11920000(20000)  0.40930000(20000)  0.68210000(20000)  0.25200
 C14_104  C 1.0  0.61920000(20000)  0.40930000(20000)  0.18210000(20000)  0.25200
 C14_105  C 1.0  0.61920000(20000)  0.90930000(20000)  0.68210000(20000)  0.25200
 C14_106  C 1.0  0.09070000(20000)  0.31790000(20000)  0.61920000(20000)  0.25200
 C14_107  C 1.0  0.59070000(20000)  0.31790000(20000)  0.11920000(20000)  0.25200
 C14_108  C 1.0  0.59070000(20000)  0.81790000(20000)  0.61920000(20000)  0.25200
 C14_109  C 1.0  0.18210000(20000)  0.38080000(20000)  0.59070000(20000)  0.25200
 C14_110  C 1.0  0.68210000(20000)  0.38080000(20000)  0.09070000(20000)  0.25200
 C14_111  C 1.0  0.68210000(20000)  0.88080000(20000)  0.59070000(20000)  0.25200
 C14_112  C 1.0  0.11920000(20000)  0.40930000(20000)  0.31790000(20000)  0.25200
 C14_113  C 1.0  0.61920000(20000)  0.40930000(20000)  0.81790000(20000)  0.25200
 C14_114  C 1.0  0.61920000(20000)  0.90930000(20000)  0.31790000(20000)  0.25200
 C14_115  C 1.0  0.09070000(20000)  0.31790000(20000)  0.38080000(20000)  0.25200
 C14_116  C 1.0  0.59070000(20000)  0.31790000(20000)  0.88080000(20000)  0.25200
 C14_117  C 1.0  0.59070000(20000)  0.81790000(20000)  0.38080000(20000)  0.25200
 C14_118  C 1.0  0.18210000(20000)  0.38080000(20000)  0.40930000(20000)  0.25200
 C14_119  C 1.0  0.68210000(20000)  0.38080000(20000)  0.90930000(20000)  0.25200
 C14_120  C 1.0  0.68210000(20000)  0.88080000(20000)  0.40930000(20000)  0.25200
 C14_121  C 1.0  0.90930000(20000)  0.38080000(20000)  0.31790000(20000)  0.25200
 C14_122  C 1.0  0.40930000(20000)  0.38080000(20000)  0.81790000(20000)  0.25200
 C14_123  C 1.0  0.40930000(20000)  0.88080000(20000)  0.31790000(20000)  0.25200
 C14_124  C 1.0  0.81790000(20000)  0.40930000(20000)  0.38080000(20000)  0.25200
 C14_125  C 1.0  0.31790000(20000)  0.40930000(20000)  0.88080000(20000)  0.25200
 C14_126  C 1.0  0.31790000(20000)  0.90930000(20000)  0.38080000(20000)  0.25200
 C14_127  C 1.0  0.88080000(20000)  0.31790000(20000)  0.40930000(20000)  0.25200
 C14_128  C 1.0  0.38080000(20000)  0.31790000(20000)  0.90930000(20000)  0.25200
 C14_129  C 1.0  0.38080000(20000)  0.81790000(20000)  0.40930000(20000)  0.25200
 C14_130  C 1.0  0.90930000(20000)  0.38080000(20000)  0.68210000(20000)  0.25200
 C14_131  C 1.0  0.40930000(20000)  0.38080000(20000)  0.18210000(20000)  0.25200
 C14_132  C 1.0  0.40930000(20000)  0.88080000(20000)  0.68210000(20000)  0.25200
 C14_133  C 1.0  0.81790000(20000)  0.40930000(20000)  0.61920000(20000)  0.25200
 C14_134  C 1.0  0.31790000(20000)  0.40930000(20000)  0.11920000(20000)  0.25200
 C14_135  C 1.0  0.31790000(20000)  0.90930000(20000)  0.61920000(20000)  0.25200
 C14_136  C 1.0  0.88080000(20000)  0.31790000(20000)  0.59070000(20000)  0.25200
 C14_137  C 1.0  0.38080000(20000)  0.31790000(20000)  0.09070000(20000)  0.25200
 C14_138  C 1.0  0.38080000(20000)  0.81790000(20000)  0.59070000(20000)  0.25200
 C14_139  C 1.0  0.09070000(20000)  0.38080000(20000)  0.31790000(20000)  0.25200
 C14_140  C 1.0  0.59070000(20000)  0.38080000(20000)  0.81790000(20000)  0.25200
 C14_141  C 1.0  0.59070000(20000)  0.88080000(20000)  0.31790000(20000)  0.25200
 C14_142  C 1.0  0.18210000(20000)  0.40930000(20000)  0.38080000(20000)  0.25200
 C14_143  C 1.0  0.68210000(20000)  0.40930000(20000)  0.88080000(20000)  0.25200
 C14_144  C 1.0  0.68210000(20000)  0.90930000(20000)  0.38080000(20000)  0.25200
 C14_145  C 1.0  0.11920000(20000)  0.31790000(20000)  0.40930000(20000)  0.25200
 C14_146  C 1.0  0.61920000(20000)  0.31790000(20000)  0.90930000(20000)  0.25200
 C14_147  C 1.0  0.61920000(20000)  0.81790000(20000)  0.40930000(20000)  0.25200
 C14_148  C 1.0  0.09070000(20000)  0.38080000(20000)  0.68210000(20000)  0.25200
 C14_149  C 1.0  0.59070000(20000)  0.38080000(20000)  0.18210000(20000)  0.25200
 C14_150  C 1.0  0.59070000(20000)  0.88080000(20000)  0.68210000(20000)  0.25200
 C14_151  C 1.0  0.18210000(20000)  0.40930000(20000)  0.61920000(20000)  0.25200
 C14_152  C 1.0  0.68210000(20000)  0.40930000(20000)  0.11920000(20000)  0.25200
 C14_153  C 1.0  0.68210000(20000)  0.90930000(20000)  0.61920000(20000)  0.25200
 C14_154  C 1.0  0.11920000(20000)  0.31790000(20000)  0.59070000(20000)  0.25200
 C14_155  C 1.0  0.61920000(20000)  0.31790000(20000)  0.09070000(20000)  0.25200
 C14_156  C 1.0  0.61920000(20000)  0.81790000(20000)  0.59070000(20000)  0.25200
 C14_157  C 1.0  0.88080000(20000)  0.40930000(20000)  0.31790000(20000)  0.25200
 C14_158  C 1.0  0.38080000(20000)  0.40930000(20000)  0.81790000(20000)  0.25200
 C14_159  C 1.0  0.38080000(20000)  0.90930000(20000)  0.31790000(20000)  0.25200
 C14_160  C 1.0  0.90930000(20000)  0.31790000(20000)  0.38080000(20000)  0.25200
 C14_161  C 1.0  0.40930000(20000)  0.31790000(20000)  0.88080000(20000)  0.25200
 C14_162  C 1.0  0.40930000(20000)  0.81790000(20000)  0.38080000(20000)  0.25200
 C14_163  C 1.0  0.81790000(20000)  0.38080000(20000)  0.40930000(20000)  0.25200
 C14_164  C 1.0  0.31790000(20000)  0.38080000(20000)  0.90930000(20000)  0.25200
 C14_165  C 1.0  0.31790000(20000)  0.88080000(20000)  0.40930000(20000)  0.25200
 C14_166  C 1.0  0.88080000(20000)  0.40930000(20000)  0.68210000(20000)  0.25200
 C14_167  C 1.0  0.38080000(20000)  0.40930000(20000)  0.18210000(20000)  0.25200
 C14_168  C 1.0  0.38080000(20000)  0.90930000(20000)  0.68210000(20000)  0.25200
 C14_169  C 1.0  0.90930000(20000)  0.31790000(20000)  0.61920000(20000)  0.25200
 C14_170  C 1.0  0.40930000(20000)  0.31790000(20000)  0.11920000(20000)  0.25200
 C14_171  C 1.0  0.40930000(20000)  0.81790000(20000)  0.61920000(20000)  0.25200
 C14_172  C 1.0  0.81790000(20000)  0.38080000(20000)  0.59070000(20000)  0.25200
 C14_173  C 1.0  0.31790000(20000)  0.38080000(20000)  0.09070000(20000)  0.25200
 C14_174  C 1.0  0.31790000(20000)  0.88080000(20000)  0.59070000(20000)  0.25200
 C14_175  C 1.0  0.88080000(20000)  0.59070000(20000)  0.31790000(20000)  0.25200
 C14_176  C 1.0  0.38080000(20000)  0.59070000(20000)  0.81790000(20000)  0.25200
 C14_177  C 1.0  0.38080000(20000)  0.09070000(20000)  0.31790000(20000)  0.25200
 C14_178  C 1.0  0.90930000(20000)  0.68210000(20000)  0.38080000(20000)  0.25200
 C14_179  C 1.0  0.40930000(20000)  0.68210000(20000)  0.88080000(20000)  0.25200
 C14_180  C 1.0  0.40930000(20000)  0.18210000(20000)  0.38080000(20000)  0.25200
 C14_181  C 1.0  0.81790000(20000)  0.61920000(20000)  0.40930000(20000)  0.25200
 C14_182  C 1.0  0.31790000(20000)  0.61920000(20000)  0.90930000(20000)  0.25200
 C14_183  C 1.0  0.31790000(20000)  0.11920000(20000)  0.40930000(20000)  0.25200
 C14_184  C 1.0  0.88080000(20000)  0.59070000(20000)  0.68210000(20000)  0.25200
 C14_185  C 1.0  0.38080000(20000)  0.59070000(20000)  0.18210000(20000)  0.25200
 C14_186  C 1.0  0.38080000(20000)  0.09070000(20000)  0.68210000(20000)  0.25200
 C14_187  C 1.0  0.90930000(20000)  0.68210000(20000)  0.61920000(20000)  0.25200
 C14_188  C 1.0  0.40930000(20000)  0.68210000(20000)  0.11920000(20000)  0.25200
 C14_189  C 1.0  0.40930000(20000)  0.18210000(20000)  0.61920000(20000)  0.25200
 C14_190  C 1.0  0.81790000(20000)  0.61920000(20000)  0.59070000(20000)  0.25200
 C14_191  C 1.0  0.31790000(20000)  0.61920000(20000)  0.09070000(20000)  0.25200
 C14_192  C 1.0  0.31790000(20000)  0.11920000(20000)  0.59070000(20000)  0.25200
 C15  C 1.0  0.10830000(20000)  0.10830000(20000)  0.16950000(40000)  0.26300
 C15_2  C 1.0  0.16950000(20000)  0.10830000(20000)  0.10830000(40000)  0.26300
 C15_3  C 1.0  0.10830000(20000)  0.16950000(20000)  0.10830000(40000)  0.26300
 C15_4  C 1.0  0.10830000(20000)  0.10830000(20000)  0.83050000(40000)  0.26300
 C15_5  C 1.0  0.16950000(20000)  0.10830000(20000)  0.89170000(40000)  0.26300
 C15_6  C 1.0  0.10830000(20000)  0.16950000(20000)  0.89170000(40000)  0.26300
 C15_7  C 1.0  0.89170000(20000)  0.10830000(20000)  0.16950000(40000)  0.26300
 C15_8  C 1.0  0.83050000(20000)  0.10830000(20000)  0.10830000(40000)  0.26300
 C15_9  C 1.0  0.89170000(20000)  0.16950000(20000)  0.10830000(40000)  0.26300
 C15_10  C 1.0  0.89170000(20000)  0.10830000(20000)  0.83050000(40000)  0.26300
 C15_11  C 1.0  0.83050000(20000)  0.10830000(20000)  0.89170000(40000)  0.26300
 C15_12  C 1.0  0.89170000(20000)  0.16950000(20000)  0.89170000(40000)  0.26300
 C15_13  C 1.0  0.10830000(20000)  0.89170000(20000)  0.16950000(40000)  0.26300
 C15_14  C 1.0  0.10830000(20000)  0.83050000(20000)  0.10830000(40000)  0.26300
 C15_15  C 1.0  0.16950000(20000)  0.89170000(20000)  0.10830000(40000)  0.26300
 C15_16  C 1.0  0.10830000(20000)  0.89170000(20000)  0.83050000(40000)  0.26300
 C15_17  C 1.0  0.10830000(20000)  0.83050000(20000)  0.89170000(40000)  0.26300
 C15_18  C 1.0  0.16950000(20000)  0.89170000(20000)  0.89170000(40000)  0.26300
 C15_19  C 1.0  0.89170000(20000)  0.89170000(20000)  0.83050000(40000)  0.26300
 C15_20  C 1.0  0.83050000(20000)  0.89170000(20000)  0.89170000(40000)  0.26300
 C15_21  C 1.0  0.89170000(20000)  0.83050000(20000)  0.89170000(40000)  0.26300
 C15_22  C 1.0  0.89170000(20000)  0.89170000(20000)  0.16950000(40000)  0.26300
 C15_23  C 1.0  0.83050000(20000)  0.89170000(20000)  0.10830000(40000)  0.26300
 C15_24  C 1.0  0.89170000(20000)  0.83050000(20000)  0.10830000(40000)  0.26300
 C15_25  C 1.0  0.10830000(20000)  0.60830000(20000)  0.66950000(40000)  0.26300
 C15_26  C 1.0  0.60830000(20000)  0.60830000(20000)  0.16950000(40000)  0.26300
 C15_27  C 1.0  0.60830000(20000)  0.10830000(20000)  0.66950000(40000)  0.26300
 C15_28  C 1.0  0.16950000(20000)  0.60830000(20000)  0.60830000(40000)  0.26300
 C15_29  C 1.0  0.66950000(20000)  0.60830000(20000)  0.10830000(40000)  0.26300
 C15_30  C 1.0  0.66950000(20000)  0.10830000(20000)  0.60830000(40000)  0.26300
 C15_31  C 1.0  0.10830000(20000)  0.66950000(20000)  0.60830000(40000)  0.26300
 C15_32  C 1.0  0.60830000(20000)  0.66950000(20000)  0.10830000(40000)  0.26300
 C15_33  C 1.0  0.60830000(20000)  0.16950000(20000)  0.60830000(40000)  0.26300
 C15_34  C 1.0  0.10830000(20000)  0.60830000(20000)  0.33050000(40000)  0.26300
 C15_35  C 1.0  0.60830000(20000)  0.60830000(20000)  0.83050000(40000)  0.26300
 C15_36  C 1.0  0.60830000(20000)  0.10830000(20000)  0.33050000(40000)  0.26300
 C15_37  C 1.0  0.16950000(20000)  0.60830000(20000)  0.39170000(40000)  0.26300
 C15_38  C 1.0  0.66950000(20000)  0.60830000(20000)  0.89170000(40000)  0.26300
 C15_39  C 1.0  0.66950000(20000)  0.10830000(20000)  0.39170000(40000)  0.26300
 C15_40  C 1.0  0.10830000(20000)  0.66950000(20000)  0.39170000(40000)  0.26300
 C15_41  C 1.0  0.60830000(20000)  0.66950000(20000)  0.89170000(40000)  0.26300
 C15_42  C 1.0  0.60830000(20000)  0.16950000(20000)  0.39170000(40000)  0.26300
 C15_43  C 1.0  0.89170000(20000)  0.60830000(20000)  0.66950000(40000)  0.26300
 C15_44  C 1.0  0.39170000(20000)  0.60830000(20000)  0.16950000(40000)  0.26300
 C15_45  C 1.0  0.39170000(20000)  0.10830000(20000)  0.66950000(40000)  0.26300
 C15_46  C 1.0  0.83050000(20000)  0.60830000(20000)  0.60830000(40000)  0.26300
 C15_47  C 1.0  0.33050000(20000)  0.60830000(20000)  0.10830000(40000)  0.26300
 C15_48  C 1.0  0.33050000(20000)  0.10830000(20000)  0.60830000(40000)  0.26300
 C15_49  C 1.0  0.89170000(20000)  0.66950000(20000)  0.60830000(40000)  0.26300
 C15_50  C 1.0  0.39170000(20000)  0.66950000(20000)  0.10830000(40000)  0.26300
 C15_51  C 1.0  0.39170000(20000)  0.16950000(20000)  0.60830000(40000)  0.26300
 C15_52  C 1.0  0.89170000(20000)  0.60830000(20000)  0.33050000(40000)  0.26300
 C15_53  C 1.0  0.39170000(20000)  0.60830000(20000)  0.83050000(40000)  0.26300
 C15_54  C 1.0  0.39170000(20000)  0.10830000(20000)  0.33050000(40000)  0.26300
 C15_55  C 1.0  0.83050000(20000)  0.60830000(20000)  0.39170000(40000)  0.26300
 C15_56  C 1.0  0.33050000(20000)  0.60830000(20000)  0.89170000(40000)  0.26300
 C15_57  C 1.0  0.33050000(20000)  0.10830000(20000)  0.39170000(40000)  0.26300
 C15_58  C 1.0  0.89170000(20000)  0.66950000(20000)  0.39170000(40000)  0.26300
 C15_59  C 1.0  0.39170000(20000)  0.66950000(20000)  0.89170000(40000)  0.26300
 C15_60  C 1.0  0.39170000(20000)  0.16950000(20000)  0.39170000(40000)  0.26300
 C15_61  C 1.0  0.10830000(20000)  0.39170000(20000)  0.66950000(40000)  0.26300
 C15_62  C 1.0  0.60830000(20000)  0.39170000(20000)  0.16950000(40000)  0.26300
 C15_63  C 1.0  0.60830000(20000)  0.89170000(20000)  0.66950000(40000)  0.26300
 C15_64  C 1.0  0.10830000(20000)  0.33050000(20000)  0.60830000(40000)  0.26300
 C15_65  C 1.0  0.60830000(20000)  0.33050000(20000)  0.10830000(40000)  0.26300
 C15_66  C 1.0  0.60830000(20000)  0.83050000(20000)  0.60830000(40000)  0.26300
 C15_67  C 1.0  0.16950000(20000)  0.39170000(20000)  0.60830000(40000)  0.26300
 C15_68  C 1.0  0.66950000(20000)  0.39170000(20000)  0.10830000(40000)  0.26300
 C15_69  C 1.0  0.66950000(20000)  0.89170000(20000)  0.60830000(40000)  0.26300
 C15_70  C 1.0  0.10830000(20000)  0.39170000(20000)  0.33050000(40000)  0.26300
 C15_71  C 1.0  0.60830000(20000)  0.39170000(20000)  0.83050000(40000)  0.26300
 C15_72  C 1.0  0.60830000(20000)  0.89170000(20000)  0.33050000(40000)  0.26300
 C15_73  C 1.0  0.10830000(20000)  0.33050000(20000)  0.39170000(40000)  0.26300
 C15_74  C 1.0  0.60830000(20000)  0.33050000(20000)  0.89170000(40000)  0.26300
 C15_75  C 1.0  0.60830000(20000)  0.83050000(20000)  0.39170000(40000)  0.26300
 C15_76  C 1.0  0.16950000(20000)  0.39170000(20000)  0.39170000(40000)  0.26300
 C15_77  C 1.0  0.66950000(20000)  0.39170000(20000)  0.89170000(40000)  0.26300
 C15_78  C 1.0  0.66950000(20000)  0.89170000(20000)  0.39170000(40000)  0.26300
 C15_79  C 1.0  0.89170000(20000)  0.39170000(20000)  0.33050000(40000)  0.26300
 C15_80  C 1.0  0.39170000(20000)  0.39170000(20000)  0.83050000(40000)  0.26300
 C15_81  C 1.0  0.39170000(20000)  0.89170000(20000)  0.33050000(40000)  0.26300
 C15_82  C 1.0  0.83050000(20000)  0.39170000(20000)  0.39170000(40000)  0.26300
 C15_83  C 1.0  0.33050000(20000)  0.39170000(20000)  0.89170000(40000)  0.26300
 C15_84  C 1.0  0.33050000(20000)  0.89170000(20000)  0.39170000(40000)  0.26300
 C15_85  C 1.0  0.89170000(20000)  0.33050000(20000)  0.39170000(40000)  0.26300
 C15_86  C 1.0  0.39170000(20000)  0.33050000(20000)  0.89170000(40000)  0.26300
 C15_87  C 1.0  0.39170000(20000)  0.83050000(20000)  0.39170000(40000)  0.26300
 C15_88  C 1.0  0.89170000(20000)  0.39170000(20000)  0.66950000(40000)  0.26300
 C15_89  C 1.0  0.39170000(20000)  0.39170000(20000)  0.16950000(40000)  0.26300
 C15_90  C 1.0  0.39170000(20000)  0.89170000(20000)  0.66950000(40000)  0.26300
 C15_91  C 1.0  0.83050000(20000)  0.39170000(20000)  0.60830000(40000)  0.26300
 C15_92  C 1.0  0.33050000(20000)  0.39170000(20000)  0.10830000(40000)  0.26300
 C15_93  C 1.0  0.33050000(20000)  0.89170000(20000)  0.60830000(40000)  0.26300
 C15_94  C 1.0  0.89170000(20000)  0.33050000(20000)  0.60830000(40000)  0.26300
 C15_95  C 1.0  0.39170000(20000)  0.33050000(20000)  0.10830000(40000)  0.26300
 C15_96  C 1.0  0.39170000(20000)  0.83050000(20000)  0.60830000(40000)  0.26300
 C16  C 1.0  0.11720000(30000)  0.11720000(30000)  0.14710000(30000)  0.20400
 C16_2  C 1.0  0.14710000(30000)  0.11720000(30000)  0.11720000(30000)  0.20400
 C16_3  C 1.0  0.11720000(30000)  0.14710000(30000)  0.11720000(30000)  0.20400
 C16_4  C 1.0  0.11720000(30000)  0.11720000(30000)  0.85290000(30000)  0.20400
 C16_5  C 1.0  0.14710000(30000)  0.11720000(30000)  0.88280000(30000)  0.20400
 C16_6  C 1.0  0.11720000(30000)  0.14710000(30000)  0.88280000(30000)  0.20400
 C16_7  C 1.0  0.88280000(30000)  0.11720000(30000)  0.14710000(30000)  0.20400
 C16_8  C 1.0  0.85290000(30000)  0.11720000(30000)  0.11720000(30000)  0.20400
 C16_9  C 1.0  0.88280000(30000)  0.14710000(30000)  0.11720000(30000)  0.20400
 C16_10  C 1.0  0.88280000(30000)  0.11720000(30000)  0.85290000(30000)  0.20400
 C16_11  C 1.0  0.85290000(30000)  0.11720000(30000)  0.88280000(30000)  0.20400
 C16_12  C 1.0  0.88280000(30000)  0.14710000(30000)  0.88280000(30000)  0.20400
 C16_13  C 1.0  0.11720000(30000)  0.88280000(30000)  0.14710000(30000)  0.20400
 C16_14  C 1.0  0.11720000(30000)  0.85290000(30000)  0.11720000(30000)  0.20400
 C16_15  C 1.0  0.14710000(30000)  0.88280000(30000)  0.11720000(30000)  0.20400
 C16_16  C 1.0  0.11720000(30000)  0.88280000(30000)  0.85290000(30000)  0.20400
 C16_17  C 1.0  0.11720000(30000)  0.85290000(30000)  0.88280000(30000)  0.20400
 C16_18  C 1.0  0.14710000(30000)  0.88280000(30000)  0.88280000(30000)  0.20400
 C16_19  C 1.0  0.88280000(30000)  0.88280000(30000)  0.85290000(30000)  0.20400
 C16_20  C 1.0  0.85290000(30000)  0.88280000(30000)  0.88280000(30000)  0.20400
 C16_21  C 1.0  0.88280000(30000)  0.85290000(30000)  0.88280000(30000)  0.20400
 C16_22  C 1.0  0.88280000(30000)  0.88280000(30000)  0.14710000(30000)  0.20400
 C16_23  C 1.0  0.85290000(30000)  0.88280000(30000)  0.11720000(30000)  0.20400
 C16_24  C 1.0  0.88280000(30000)  0.85290000(30000)  0.11720000(30000)  0.20400
 C16_25  C 1.0  0.11720000(30000)  0.61720000(30000)  0.64710000(30000)  0.20400
 C16_26  C 1.0  0.61720000(30000)  0.61720000(30000)  0.14710000(30000)  0.20400
 C16_27  C 1.0  0.61720000(30000)  0.11720000(30000)  0.64710000(30000)  0.20400
 C16_28  C 1.0  0.14710000(30000)  0.61720000(30000)  0.61720000(30000)  0.20400
 C16_29  C 1.0  0.64710000(30000)  0.61720000(30000)  0.11720000(30000)  0.20400
 C16_30  C 1.0  0.64710000(30000)  0.11720000(30000)  0.61720000(30000)  0.20400
 C16_31  C 1.0  0.11720000(30000)  0.64710000(30000)  0.61720000(30000)  0.20400
 C16_32  C 1.0  0.61720000(30000)  0.64710000(30000)  0.11720000(30000)  0.20400
 C16_33  C 1.0  0.61720000(30000)  0.14710000(30000)  0.61720000(30000)  0.20400
 C16_34  C 1.0  0.11720000(30000)  0.61720000(30000)  0.35290000(30000)  0.20400
 C16_35  C 1.0  0.61720000(30000)  0.61720000(30000)  0.85290000(30000)  0.20400
 C16_36  C 1.0  0.61720000(30000)  0.11720000(30000)  0.35290000(30000)  0.20400
 C16_37  C 1.0  0.14710000(30000)  0.61720000(30000)  0.38280000(30000)  0.20400
 C16_38  C 1.0  0.64710000(30000)  0.61720000(30000)  0.88280000(30000)  0.20400
 C16_39  C 1.0  0.64710000(30000)  0.11720000(30000)  0.38280000(30000)  0.20400
 C16_40  C 1.0  0.11720000(30000)  0.64710000(30000)  0.38280000(30000)  0.20400
 C16_41  C 1.0  0.61720000(30000)  0.64710000(30000)  0.88280000(30000)  0.20400
 C16_42  C 1.0  0.61720000(30000)  0.14710000(30000)  0.38280000(30000)  0.20400
 C16_43  C 1.0  0.88280000(30000)  0.61720000(30000)  0.64710000(30000)  0.20400
 C16_44  C 1.0  0.38280000(30000)  0.61720000(30000)  0.14710000(30000)  0.20400
 C16_45  C 1.0  0.38280000(30000)  0.11720000(30000)  0.64710000(30000)  0.20400
 C16_46  C 1.0  0.85290000(30000)  0.61720000(30000)  0.61720000(30000)  0.20400
 C16_47  C 1.0  0.35290000(30000)  0.61720000(30000)  0.11720000(30000)  0.20400
 C16_48  C 1.0  0.35290000(30000)  0.11720000(30000)  0.61720000(30000)  0.20400
 C16_49  C 1.0  0.88280000(30000)  0.64710000(30000)  0.61720000(30000)  0.20400
 C16_50  C 1.0  0.38280000(30000)  0.64710000(30000)  0.11720000(30000)  0.20400
 C16_51  C 1.0  0.38280000(30000)  0.14710000(30000)  0.61720000(30000)  0.20400
 C16_52  C 1.0  0.88280000(30000)  0.61720000(30000)  0.35290000(30000)  0.20400
 C16_53  C 1.0  0.38280000(30000)  0.61720000(30000)  0.85290000(30000)  0.20400
 C16_54  C 1.0  0.38280000(30000)  0.11720000(30000)  0.35290000(30000)  0.20400
 C16_55  C 1.0  0.85290000(30000)  0.61720000(30000)  0.38280000(30000)  0.20400
 C16_56  C 1.0  0.35290000(30000)  0.61720000(30000)  0.88280000(30000)  0.20400
 C16_57  C 1.0  0.35290000(30000)  0.11720000(30000)  0.38280000(30000)  0.20400
 C16_58  C 1.0  0.88280000(30000)  0.64710000(30000)  0.38280000(30000)  0.20400
 C16_59  C 1.0  0.38280000(30000)  0.64710000(30000)  0.88280000(30000)  0.20400
 C16_60  C 1.0  0.38280000(30000)  0.14710000(30000)  0.38280000(30000)  0.20400
 C16_61  C 1.0  0.11720000(30000)  0.38280000(30000)  0.64710000(30000)  0.20400
 C16_62  C 1.0  0.61720000(30000)  0.38280000(30000)  0.14710000(30000)  0.20400
 C16_63  C 1.0  0.61720000(30000)  0.88280000(30000)  0.64710000(30000)  0.20400
 C16_64  C 1.0  0.11720000(30000)  0.35290000(30000)  0.61720000(30000)  0.20400
 C16_65  C 1.0  0.61720000(30000)  0.35290000(30000)  0.11720000(30000)  0.20400
 C16_66  C 1.0  0.61720000(30000)  0.85290000(30000)  0.61720000(30000)  0.20400
 C16_67  C 1.0  0.14710000(30000)  0.38280000(30000)  0.61720000(30000)  0.20400
 C16_68  C 1.0  0.64710000(30000)  0.38280000(30000)  0.11720000(30000)  0.20400
 C16_69  C 1.0  0.64710000(30000)  0.88280000(30000)  0.61720000(30000)  0.20400
 C16_70  C 1.0  0.11720000(30000)  0.38280000(30000)  0.35290000(30000)  0.20400
 C16_71  C 1.0  0.61720000(30000)  0.38280000(30000)  0.85290000(30000)  0.20400
 C16_72  C 1.0  0.61720000(30000)  0.88280000(30000)  0.35290000(30000)  0.20400
 C16_73  C 1.0  0.11720000(30000)  0.35290000(30000)  0.38280000(30000)  0.20400
 C16_74  C 1.0  0.61720000(30000)  0.35290000(30000)  0.88280000(30000)  0.20400
 C16_75  C 1.0  0.61720000(30000)  0.85290000(30000)  0.38280000(30000)  0.20400
 C16_76  C 1.0  0.14710000(30000)  0.38280000(30000)  0.38280000(30000)  0.20400
 C16_77  C 1.0  0.64710000(30000)  0.38280000(30000)  0.88280000(30000)  0.20400
 C16_78  C 1.0  0.64710000(30000)  0.88280000(30000)  0.38280000(30000)  0.20400
 C16_79  C 1.0  0.88280000(30000)  0.38280000(30000)  0.35290000(30000)  0.20400
 C16_80  C 1.0  0.38280000(30000)  0.38280000(30000)  0.85290000(30000)  0.20400
 C16_81  C 1.0  0.38280000(30000)  0.88280000(30000)  0.35290000(30000)  0.20400
 C16_82  C 1.0  0.85290000(30000)  0.38280000(30000)  0.38280000(30000)  0.20400
 C16_83  C 1.0  0.35290000(30000)  0.38280000(30000)  0.88280000(30000)  0.20400
 C16_84  C 1.0  0.35290000(30000)  0.88280000(30000)  0.38280000(30000)  0.20400
 C16_85  C 1.0  0.88280000(30000)  0.35290000(30000)  0.38280000(30000)  0.20400
 C16_86  C 1.0  0.38280000(30000)  0.35290000(30000)  0.88280000(30000)  0.20400
 C16_87  C 1.0  0.38280000(30000)  0.85290000(30000)  0.38280000(30000)  0.20400
 C16_88  C 1.0  0.88280000(30000)  0.38280000(30000)  0.64710000(30000)  0.20400
 C16_89  C 1.0  0.38280000(30000)  0.38280000(30000)  0.14710000(30000)  0.20400
 C16_90  C 1.0  0.38280000(30000)  0.88280000(30000)  0.64710000(30000)  0.20400
 C16_91  C 1.0  0.85290000(30000)  0.38280000(30000)  0.61720000(30000)  0.20400
 C16_92  C 1.0  0.35290000(30000)  0.38280000(30000)  0.11720000(30000)  0.20400
 C16_93  C 1.0  0.35290000(30000)  0.88280000(30000)  0.61720000(30000)  0.20400
 C16_94  C 1.0  0.88280000(30000)  0.35290000(30000)  0.61720000(30000)  0.20400
 C16_95  C 1.0  0.38280000(30000)  0.35290000(30000)  0.11720000(30000)  0.20400
 C16_96  C 1.0  0.38280000(30000)  0.85290000(30000)  0.61720000(30000)  0.20400
 C17  C 1.0  0.10750000(30000)  0.13840000(20000)  0.13840000(20000)  0.19100
 C17_2  C 1.0  0.13840000(30000)  0.10750000(20000)  0.13840000(20000)  0.19100
 C17_3  C 1.0  0.13840000(30000)  0.13840000(20000)  0.10750000(20000)  0.19100
 C17_4  C 1.0  0.10750000(30000)  0.13840000(20000)  0.86160000(20000)  0.19100
 C17_5  C 1.0  0.13840000(30000)  0.10750000(20000)  0.86160000(20000)  0.19100
 C17_6  C 1.0  0.13840000(30000)  0.13840000(20000)  0.89250000(20000)  0.19100
 C17_7  C 1.0  0.89250000(30000)  0.13840000(20000)  0.13840000(20000)  0.19100
 C17_8  C 1.0  0.86160000(30000)  0.10750000(20000)  0.13840000(20000)  0.19100
 C17_9  C 1.0  0.86160000(30000)  0.13840000(20000)  0.10750000(20000)  0.19100
 C17_10  C 1.0  0.89250000(30000)  0.13840000(20000)  0.86160000(20000)  0.19100
 C17_11  C 1.0  0.86160000(30000)  0.10750000(20000)  0.86160000(20000)  0.19100
 C17_12  C 1.0  0.86160000(30000)  0.13840000(20000)  0.89250000(20000)  0.19100
 C17_13  C 1.0  0.13840000(30000)  0.89250000(20000)  0.13840000(20000)  0.19100
 C17_14  C 1.0  0.10750000(30000)  0.86160000(20000)  0.13840000(20000)  0.19100
 C17_15  C 1.0  0.13840000(30000)  0.86160000(20000)  0.10750000(20000)  0.19100
 C17_16  C 1.0  0.13840000(30000)  0.89250000(20000)  0.86160000(20000)  0.19100
 C17_17  C 1.0  0.10750000(30000)  0.86160000(20000)  0.86160000(20000)  0.19100
 C17_18  C 1.0  0.13840000(30000)  0.86160000(20000)  0.89250000(20000)  0.19100
 C17_19  C 1.0  0.89250000(30000)  0.86160000(20000)  0.86160000(20000)  0.19100
 C17_20  C 1.0  0.86160000(30000)  0.89250000(20000)  0.86160000(20000)  0.19100
 C17_21  C 1.0  0.86160000(30000)  0.86160000(20000)  0.89250000(20000)  0.19100
 C17_22  C 1.0  0.89250000(30000)  0.86160000(20000)  0.13840000(20000)  0.19100
 C17_23  C 1.0  0.86160000(30000)  0.89250000(20000)  0.13840000(20000)  0.19100
 C17_24  C 1.0  0.86160000(30000)  0.86160000(20000)  0.10750000(20000)  0.19100
 C17_25  C 1.0  0.10750000(30000)  0.63840000(20000)  0.63840000(20000)  0.19100
 C17_26  C 1.0  0.60750000(30000)  0.63840000(20000)  0.13840000(20000)  0.19100
 C17_27  C 1.0  0.60750000(30000)  0.13840000(20000)  0.63840000(20000)  0.19100
 C17_28  C 1.0  0.13840000(30000)  0.60750000(20000)  0.63840000(20000)  0.19100
 C17_29  C 1.0  0.63840000(30000)  0.60750000(20000)  0.13840000(20000)  0.19100
 C17_30  C 1.0  0.63840000(30000)  0.10750000(20000)  0.63840000(20000)  0.19100
 C17_31  C 1.0  0.13840000(30000)  0.63840000(20000)  0.60750000(20000)  0.19100
 C17_32  C 1.0  0.63840000(30000)  0.63840000(20000)  0.10750000(20000)  0.19100
 C17_33  C 1.0  0.63840000(30000)  0.13840000(20000)  0.60750000(20000)  0.19100
 C17_34  C 1.0  0.10750000(30000)  0.63840000(20000)  0.36160000(20000)  0.19100
 C17_35  C 1.0  0.60750000(30000)  0.63840000(20000)  0.86160000(20000)  0.19100
 C17_36  C 1.0  0.60750000(30000)  0.13840000(20000)  0.36160000(20000)  0.19100
 C17_37  C 1.0  0.13840000(30000)  0.60750000(20000)  0.36160000(20000)  0.19100
 C17_38  C 1.0  0.63840000(30000)  0.60750000(20000)  0.86160000(20000)  0.19100
 C17_39  C 1.0  0.63840000(30000)  0.10750000(20000)  0.36160000(20000)  0.19100
 C17_40  C 1.0  0.13840000(30000)  0.63840000(20000)  0.39250000(20000)  0.19100
 C17_41  C 1.0  0.63840000(30000)  0.63840000(20000)  0.89250000(20000)  0.19100
 C17_42  C 1.0  0.63840000(30000)  0.13840000(20000)  0.39250000(20000)  0.19100
 C17_43  C 1.0  0.89250000(30000)  0.63840000(20000)  0.63840000(20000)  0.19100
 C17_44  C 1.0  0.39250000(30000)  0.63840000(20000)  0.13840000(20000)  0.19100
 C17_45  C 1.0  0.39250000(30000)  0.13840000(20000)  0.63840000(20000)  0.19100
 C17_46  C 1.0  0.86160000(30000)  0.60750000(20000)  0.63840000(20000)  0.19100
 C17_47  C 1.0  0.36160000(30000)  0.60750000(20000)  0.13840000(20000)  0.19100
 C17_48  C 1.0  0.36160000(30000)  0.10750000(20000)  0.63840000(20000)  0.19100
 C17_49  C 1.0  0.86160000(30000)  0.63840000(20000)  0.60750000(20000)  0.19100
 C17_50  C 1.0  0.36160000(30000)  0.63840000(20000)  0.10750000(20000)  0.19100
 C17_51  C 1.0  0.36160000(30000)  0.13840000(20000)  0.60750000(20000)  0.19100
 C17_52  C 1.0  0.89250000(30000)  0.63840000(20000)  0.36160000(20000)  0.19100
 C17_53  C 1.0  0.39250000(30000)  0.63840000(20000)  0.86160000(20000)  0.19100
 C17_54  C 1.0  0.39250000(30000)  0.13840000(20000)  0.36160000(20000)  0.19100
 C17_55  C 1.0  0.86160000(30000)  0.60750000(20000)  0.36160000(20000)  0.19100
 C17_56  C 1.0  0.36160000(30000)  0.60750000(20000)  0.86160000(20000)  0.19100
 C17_57  C 1.0  0.36160000(30000)  0.10750000(20000)  0.36160000(20000)  0.19100
 C17_58  C 1.0  0.86160000(30000)  0.63840000(20000)  0.39250000(20000)  0.19100
 C17_59  C 1.0  0.36160000(30000)  0.63840000(20000)  0.89250000(20000)  0.19100
 C17_60  C 1.0  0.36160000(30000)  0.13840000(20000)  0.39250000(20000)  0.19100
 C17_61  C 1.0  0.13840000(30000)  0.39250000(20000)  0.63840000(20000)  0.19100
 C17_62  C 1.0  0.63840000(30000)  0.39250000(20000)  0.13840000(20000)  0.19100
 C17_63  C 1.0  0.63840000(30000)  0.89250000(20000)  0.63840000(20000)  0.19100
 C17_64  C 1.0  0.10750000(30000)  0.36160000(20000)  0.63840000(20000)  0.19100
 C17_65  C 1.0  0.60750000(30000)  0.36160000(20000)  0.13840000(20000)  0.19100
 C17_66  C 1.0  0.60750000(30000)  0.86160000(20000)  0.63840000(20000)  0.19100
 C17_67  C 1.0  0.13840000(30000)  0.36160000(20000)  0.60750000(20000)  0.19100
 C17_68  C 1.0  0.63840000(30000)  0.36160000(20000)  0.10750000(20000)  0.19100
 C17_69  C 1.0  0.63840000(30000)  0.86160000(20000)  0.60750000(20000)  0.19100
 C17_70  C 1.0  0.13840000(30000)  0.39250000(20000)  0.36160000(20000)  0.19100
 C17_71  C 1.0  0.63840000(30000)  0.39250000(20000)  0.86160000(20000)  0.19100
 C17_72  C 1.0  0.63840000(30000)  0.89250000(20000)  0.36160000(20000)  0.19100
 C17_73  C 1.0  0.10750000(30000)  0.36160000(20000)  0.36160000(20000)  0.19100
 C17_74  C 1.0  0.60750000(30000)  0.36160000(20000)  0.86160000(20000)  0.19100
 C17_75  C 1.0  0.60750000(30000)  0.86160000(20000)  0.36160000(20000)  0.19100
 C17_76  C 1.0  0.13840000(30000)  0.36160000(20000)  0.39250000(20000)  0.19100
 C17_77  C 1.0  0.63840000(30000)  0.36160000(20000)  0.89250000(20000)  0.19100
 C17_78  C 1.0  0.63840000(30000)  0.86160000(20000)  0.39250000(20000)  0.19100
 C17_79  C 1.0  0.89250000(30000)  0.36160000(20000)  0.36160000(20000)  0.19100
 C17_80  C 1.0  0.39250000(30000)  0.36160000(20000)  0.86160000(20000)  0.19100
 C17_81  C 1.0  0.39250000(30000)  0.86160000(20000)  0.36160000(20000)  0.19100
 C17_82  C 1.0  0.86160000(30000)  0.39250000(20000)  0.36160000(20000)  0.19100
 C17_83  C 1.0  0.36160000(30000)  0.39250000(20000)  0.86160000(20000)  0.19100
 C17_84  C 1.0  0.36160000(30000)  0.89250000(20000)  0.36160000(20000)  0.19100
 C17_85  C 1.0  0.86160000(30000)  0.36160000(20000)  0.39250000(20000)  0.19100
 C17_86  C 1.0  0.36160000(30000)  0.36160000(20000)  0.89250000(20000)  0.19100
 C17_87  C 1.0  0.36160000(30000)  0.86160000(20000)  0.39250000(20000)  0.19100
 C17_88  C 1.0  0.89250000(30000)  0.36160000(20000)  0.63840000(20000)  0.19100
 C17_89  C 1.0  0.39250000(30000)  0.36160000(20000)  0.13840000(20000)  0.19100
 C17_90  C 1.0  0.39250000(30000)  0.86160000(20000)  0.63840000(20000)  0.19100
 C17_91  C 1.0  0.86160000(30000)  0.39250000(20000)  0.63840000(20000)  0.19100
 C17_92  C 1.0  0.36160000(30000)  0.39250000(20000)  0.13840000(20000)  0.19100
 C17_93  C 1.0  0.36160000(30000)  0.89250000(20000)  0.63840000(20000)  0.19100
 C17_94  C 1.0  0.86160000(30000)  0.36160000(20000)  0.60750000(20000)  0.19100
 C17_95  C 1.0  0.36160000(30000)  0.36160000(20000)  0.10750000(20000)  0.19100
 C17_96  C 1.0  0.36160000(30000)  0.86160000(20000)  0.60750000(20000)  0.19100
 Cu1  Cu 1.0  0.00000000(0)  0.13256700(1500)  0.36743300(1500)  0.06900
 Cu1_2  Cu 1.0  0.36743300(0)  0.00000000(1500)  0.13256700(1500)  0.06900
 Cu1_3  Cu 1.0  0.13256700(0)  0.36743300(1500)  0.00000000(1500)  0.06900
 Cu1_4  Cu 1.0  0.00000000(0)  0.13256700(1500)  0.63256700(1500)  0.06900
 Cu1_5  Cu 1.0  0.36743300(0)  0.00000000(1500)  0.86743300(1500)  0.06900
 Cu1_6  Cu 1.0  0.63256700(0)  0.00000000(1500)  0.13256700(1500)  0.06900
 Cu1_7  Cu 1.0  0.86743300(0)  0.36743300(1500)  0.00000000(1500)  0.06900
 Cu1_8  Cu 1.0  0.63256700(0)  0.00000000(1500)  0.86743300(1500)  0.06900
 Cu1_9  Cu 1.0  0.13256700(0)  0.00000000(1500)  0.36743300(1500)  0.06900
 Cu1_10  Cu 1.0  0.00000000(0)  0.36743300(1500)  0.13256700(1500)  0.06900
 Cu1_11  Cu 1.0  0.36743300(0)  0.13256700(1500)  0.00000000(1500)  0.06900
 Cu1_12  Cu 1.0  0.13256700(0)  0.00000000(1500)  0.63256700(1500)  0.06900
 Cu1_13  Cu 1.0  0.00000000(0)  0.36743300(1500)  0.86743300(1500)  0.06900
 Cu1_14  Cu 1.0  0.00000000(0)  0.63256700(1500)  0.13256700(1500)  0.06900
 Cu1_15  Cu 1.0  0.36743300(0)  0.86743300(1500)  0.00000000(1500)  0.06900
 Cu1_16  Cu 1.0  0.00000000(0)  0.63256700(1500)  0.86743300(1500)  0.06900
 Cu1_17  Cu 1.0  0.00000000(0)  0.86743300(1500)  0.63256700(1500)  0.06900
 Cu1_18  Cu 1.0  0.86743300(0)  0.63256700(1500)  0.00000000(1500)  0.06900
 Cu1_19  Cu 1.0  0.00000000(0)  0.86743300(1500)  0.36743300(1500)  0.06900
 Cu1_20  Cu 1.0  0.13256700(0)  0.63256700(1500)  0.00000000(1500)  0.06900
 Cu1_21  Cu 1.0  0.86743300(0)  0.00000000(1500)  0.63256700(1500)  0.06900
 Cu1_22  Cu 1.0  0.63256700(0)  0.86743300(1500)  0.00000000(1500)  0.06900
 Cu1_23  Cu 1.0  0.86743300(0)  0.00000000(1500)  0.36743300(1500)  0.06900
 Cu1_24  Cu 1.0  0.63256700(0)  0.13256700(1500)  0.00000000(1500)  0.06900
 Cu1_25  Cu 1.0  0.50000000(0)  0.63256700(1500)  0.36743300(1500)  0.06900
 Cu1_26  Cu 1.0  0.50000000(0)  0.13256700(1500)  0.86743300(1500)  0.06900
 Cu1_27  Cu 1.0  0.36743300(0)  0.50000000(1500)  0.63256700(1500)  0.06900
 Cu1_28  Cu 1.0  0.86743300(0)  0.50000000(1500)  0.13256700(1500)  0.06900
 Cu1_29  Cu 1.0  0.13256700(0)  0.86743300(1500)  0.50000000(1500)  0.06900
 Cu1_30  Cu 1.0  0.63256700(0)  0.36743300(1500)  0.50000000(1500)  0.06900
 Cu1_31  Cu 1.0  0.50000000(0)  0.63256700(1500)  0.63256700(1500)  0.06900
 Cu1_32  Cu 1.0  0.50000000(0)  0.13256700(1500)  0.13256700(1500)  0.06900
 Cu1_33  Cu 1.0  0.36743300(0)  0.50000000(1500)  0.36743300(1500)  0.06900
 Cu1_34  Cu 1.0  0.86743300(0)  0.50000000(1500)  0.86743300(1500)  0.06900
 Cu1_35  Cu 1.0  0.63256700(0)  0.50000000(1500)  0.63256700(1500)  0.06900
 Cu1_36  Cu 1.0  0.13256700(0)  0.50000000(1500)  0.13256700(1500)  0.06900
 Cu1_37  Cu 1.0  0.86743300(0)  0.86743300(1500)  0.50000000(1500)  0.06900
 Cu1_38  Cu 1.0  0.36743300(0)  0.36743300(1500)  0.50000000(1500)  0.06900
 Cu1_39  Cu 1.0  0.63256700(0)  0.50000000(1500)  0.36743300(1500)  0.06900
 Cu1_40  Cu 1.0  0.13256700(0)  0.50000000(1500)  0.86743300(1500)  0.06900
 Cu1_41  Cu 1.0  0.50000000(0)  0.86743300(1500)  0.13256700(1500)  0.06900
 Cu1_42  Cu 1.0  0.50000000(0)  0.36743300(1500)  0.63256700(1500)  0.06900
 Cu1_43  Cu 1.0  0.36743300(0)  0.63256700(1500)  0.50000000(1500)  0.06900
 Cu1_44  Cu 1.0  0.86743300(0)  0.13256700(1500)  0.50000000(1500)  0.06900
 Cu1_45  Cu 1.0  0.50000000(0)  0.86743300(1500)  0.86743300(1500)  0.06900
 Cu1_46  Cu 1.0  0.50000000(0)  0.36743300(1500)  0.36743300(1500)  0.06900
 Cu1_47  Cu 1.0  0.13256700(0)  0.13256700(1500)  0.50000000(1500)  0.06900
 Cu1_48  Cu 1.0  0.63256700(0)  0.63256700(1500)  0.50000000(1500)  0.06900
 Cu2  Cu 1.0  0.00000000(0)  0.09935200(1400)  0.40064800(1400)  0.06320
 Cu2_2  Cu 1.0  0.40064800(0)  0.00000000(1400)  0.09935200(1400)  0.06320
 Cu2_3  Cu 1.0  0.09935200(0)  0.40064800(1400)  0.00000000(1400)  0.06320
 Cu2_4  Cu 1.0  0.00000000(0)  0.09935200(1400)  0.59935200(1400)  0.06320
 Cu2_5  Cu 1.0  0.40064800(0)  0.00000000(1400)  0.90064800(1400)  0.06320
 Cu2_6  Cu 1.0  0.59935200(0)  0.00000000(1400)  0.09935200(1400)  0.06320
 Cu2_7  Cu 1.0  0.90064800(0)  0.40064800(1400)  0.00000000(1400)  0.06320
 Cu2_8  Cu 1.0  0.59935200(0)  0.00000000(1400)  0.90064800(1400)  0.06320
 Cu2_9  Cu 1.0  0.09935200(0)  0.00000000(1400)  0.40064800(1400)  0.06320
 Cu2_10  Cu 1.0  0.00000000(0)  0.40064800(1400)  0.09935200(1400)  0.06320
 Cu2_11  Cu 1.0  0.40064800(0)  0.09935200(1400)  0.00000000(1400)  0.06320
 Cu2_12  Cu 1.0  0.09935200(0)  0.00000000(1400)  0.59935200(1400)  0.06320
 Cu2_13  Cu 1.0  0.00000000(0)  0.40064800(1400)  0.90064800(1400)  0.06320
 Cu2_14  Cu 1.0  0.00000000(0)  0.59935200(1400)  0.09935200(1400)  0.06320
 Cu2_15  Cu 1.0  0.40064800(0)  0.90064800(1400)  0.00000000(1400)  0.06320
 Cu2_16  Cu 1.0  0.00000000(0)  0.59935200(1400)  0.90064800(1400)  0.06320
 Cu2_17  Cu 1.0  0.00000000(0)  0.90064800(1400)  0.59935200(1400)  0.06320
 Cu2_18  Cu 1.0  0.90064800(0)  0.59935200(1400)  0.00000000(1400)  0.06320
 Cu2_19  Cu 1.0  0.00000000(0)  0.90064800(1400)  0.40064800(1400)  0.06320
 Cu2_20  Cu 1.0  0.09935200(0)  0.59935200(1400)  0.00000000(1400)  0.06320
 Cu2_21  Cu 1.0  0.90064800(0)  0.00000000(1400)  0.59935200(1400)  0.06320
 Cu2_22  Cu 1.0  0.59935200(0)  0.90064800(1400)  0.00000000(1400)  0.06320
 Cu2_23  Cu 1.0  0.90064800(0)  0.00000000(1400)  0.40064800(1400)  0.06320
 Cu2_24  Cu 1.0  0.59935200(0)  0.09935200(1400)  0.00000000(1400)  0.06320
 Cu2_25  Cu 1.0  0.50000000(0)  0.59935200(1400)  0.40064800(1400)  0.06320
 Cu2_26  Cu 1.0  0.50000000(0)  0.09935200(1400)  0.90064800(1400)  0.06320
 Cu2_27  Cu 1.0  0.40064800(0)  0.50000000(1400)  0.59935200(1400)  0.06320
 Cu2_28  Cu 1.0  0.90064800(0)  0.50000000(1400)  0.09935200(1400)  0.06320
 Cu2_29  Cu 1.0  0.09935200(0)  0.90064800(1400)  0.50000000(1400)  0.06320
 Cu2_30  Cu 1.0  0.59935200(0)  0.40064800(1400)  0.50000000(1400)  0.06320
 Cu2_31  Cu 1.0  0.50000000(0)  0.59935200(1400)  0.59935200(1400)  0.06320
 Cu2_32  Cu 1.0  0.50000000(0)  0.09935200(1400)  0.09935200(1400)  0.06320
 Cu2_33  Cu 1.0  0.40064800(0)  0.50000000(1400)  0.40064800(1400)  0.06320
 Cu2_34  Cu 1.0  0.90064800(0)  0.50000000(1400)  0.90064800(1400)  0.06320
 Cu2_35  Cu 1.0  0.59935200(0)  0.50000000(1400)  0.59935200(1400)  0.06320
 Cu2_36  Cu 1.0  0.09935200(0)  0.50000000(1400)  0.09935200(1400)  0.06320
 Cu2_37  Cu 1.0  0.90064800(0)  0.90064800(1400)  0.50000000(1400)  0.06320
 Cu2_38  Cu 1.0  0.40064800(0)  0.40064800(1400)  0.50000000(1400)  0.06320
 Cu2_39  Cu 1.0  0.59935200(0)  0.50000000(1400)  0.40064800(1400)  0.06320
 Cu2_40  Cu 1.0  0.09935200(0)  0.50000000(1400)  0.90064800(1400)  0.06320
 Cu2_41  Cu 1.0  0.50000000(0)  0.90064800(1400)  0.09935200(1400)  0.06320
 Cu2_42  Cu 1.0  0.50000000(0)  0.40064800(1400)  0.59935200(1400)  0.06320
 Cu2_43  Cu 1.0  0.40064800(0)  0.59935200(1400)  0.50000000(1400)  0.06320
 Cu2_44  Cu 1.0  0.90064800(0)  0.09935200(1400)  0.50000000(1400)  0.06320
 Cu2_45  Cu 1.0  0.50000000(0)  0.90064800(1400)  0.90064800(1400)  0.06320
 Cu2_46  Cu 1.0  0.50000000(0)  0.40064800(1400)  0.40064800(1400)  0.06320
 Cu2_47  Cu 1.0  0.09935200(0)  0.09935200(1400)  0.50000000(1400)  0.06320
 Cu2_48  Cu 1.0  0.59935200(0)  0.59935200(1400)  0.50000000(1400)  0.06320
 H3  H 1.0  0.05850000(0)  0.05850000(0)  0.37750000(0)  0.08900
 H3_2  H 1.0  0.37750000(0)  0.05850000(0)  0.05850000(0)  0.08900
 H3_3  H 1.0  0.05850000(0)  0.37750000(0)  0.05850000(0)  0.08900
 H3_4  H 1.0  0.05850000(0)  0.05850000(0)  0.62250000(0)  0.08900
 H3_5  H 1.0  0.37750000(0)  0.05850000(0)  0.94150000(0)  0.08900
 H3_6  H 1.0  0.05850000(0)  0.37750000(0)  0.94150000(0)  0.08900
 H3_7  H 1.0  0.94150000(0)  0.05850000(0)  0.37750000(0)  0.08900
 H3_8  H 1.0  0.62250000(0)  0.05850000(0)  0.05850000(0)  0.08900
 H3_9  H 1.0  0.94150000(0)  0.37750000(0)  0.05850000(0)  0.08900
 H3_10  H 1.0  0.94150000(0)  0.05850000(0)  0.62250000(0)  0.08900
 H3_11  H 1.0  0.62250000(0)  0.05850000(0)  0.94150000(0)  0.08900
 H3_12  H 1.0  0.94150000(0)  0.37750000(0)  0.94150000(0)  0.08900
 H3_13  H 1.0  0.05850000(0)  0.94150000(0)  0.37750000(0)  0.08900
 H3_14  H 1.0  0.05850000(0)  0.62250000(0)  0.05850000(0)  0.08900
 H3_15  H 1.0  0.37750000(0)  0.94150000(0)  0.05850000(0)  0.08900
 H3_16  H 1.0  0.05850000(0)  0.94150000(0)  0.62250000(0)  0.08900
 H3_17  H 1.0  0.05850000(0)  0.62250000(0)  0.94150000(0)  0.08900
 H3_18  H 1.0  0.37750000(0)  0.94150000(0)  0.94150000(0)  0.08900
 H3_19  H 1.0  0.94150000(0)  0.94150000(0)  0.62250000(0)  0.08900
 H3_20  H 1.0  0.62250000(0)  0.94150000(0)  0.94150000(0)  0.08900
 H3_21  H 1.0  0.94150000(0)  0.62250000(0)  0.94150000(0)  0.08900
 H3_22  H 1.0  0.94150000(0)  0.94150000(0)  0.37750000(0)  0.08900
 H3_23  H 1.0  0.62250000(0)  0.94150000(0)  0.05850000(0)  0.08900
 H3_24  H 1.0  0.94150000(0)  0.62250000(0)  0.05850000(0)  0.08900
 H3_25  H 1.0  0.05850000(0)  0.55850000(0)  0.87750000(0)  0.08900
 H3_26  H 1.0  0.55850000(0)  0.55850000(0)  0.37750000(0)  0.08900
 H3_27  H 1.0  0.55850000(0)  0.05850000(0)  0.87750000(0)  0.08900
 H3_28  H 1.0  0.37750000(0)  0.55850000(0)  0.55850000(0)  0.08900
 H3_29  H 1.0  0.87750000(0)  0.55850000(0)  0.05850000(0)  0.08900
 H3_30  H 1.0  0.87750000(0)  0.05850000(0)  0.55850000(0)  0.08900
 H3_31  H 1.0  0.05850000(0)  0.87750000(0)  0.55850000(0)  0.08900
 H3_32  H 1.0  0.55850000(0)  0.87750000(0)  0.05850000(0)  0.08900
 H3_33  H 1.0  0.55850000(0)  0.37750000(0)  0.55850000(0)  0.08900
 H3_34  H 1.0  0.05850000(0)  0.55850000(0)  0.12250000(0)  0.08900
 H3_35  H 1.0  0.55850000(0)  0.55850000(0)  0.62250000(0)  0.08900
 H3_36  H 1.0  0.55850000(0)  0.05850000(0)  0.12250000(0)  0.08900
 H3_37  H 1.0  0.37750000(0)  0.55850000(0)  0.44150000(0)  0.08900
 H3_38  H 1.0  0.87750000(0)  0.55850000(0)  0.94150000(0)  0.08900
 H3_39  H 1.0  0.87750000(0)  0.05850000(0)  0.44150000(0)  0.08900
 H3_40  H 1.0  0.05850000(0)  0.87750000(0)  0.44150000(0)  0.08900
 H3_41  H 1.0  0.55850000(0)  0.87750000(0)  0.94150000(0)  0.08900
 H3_42  H 1.0  0.55850000(0)  0.37750000(0)  0.44150000(0)  0.08900
 H3_43  H 1.0  0.94150000(0)  0.55850000(0)  0.87750000(0)  0.08900
 H3_44  H 1.0  0.44150000(0)  0.55850000(0)  0.37750000(0)  0.08900
 H3_45  H 1.0  0.44150000(0)  0.05850000(0)  0.87750000(0)  0.08900
 H3_46  H 1.0  0.62250000(0)  0.55850000(0)  0.55850000(0)  0.08900
 H3_47  H 1.0  0.12250000(0)  0.55850000(0)  0.05850000(0)  0.08900
 H3_48  H 1.0  0.12250000(0)  0.05850000(0)  0.55850000(0)  0.08900
 H3_49  H 1.0  0.94150000(0)  0.87750000(0)  0.55850000(0)  0.08900
 H3_50  H 1.0  0.44150000(0)  0.87750000(0)  0.05850000(0)  0.08900
 H3_51  H 1.0  0.44150000(0)  0.37750000(0)  0.55850000(0)  0.08900
 H3_52  H 1.0  0.94150000(0)  0.55850000(0)  0.12250000(0)  0.08900
 H3_53  H 1.0  0.44150000(0)  0.55850000(0)  0.62250000(0)  0.08900
 H3_54  H 1.0  0.44150000(0)  0.05850000(0)  0.12250000(0)  0.08900
 H3_55  H 1.0  0.62250000(0)  0.55850000(0)  0.44150000(0)  0.08900
 H3_56  H 1.0  0.12250000(0)  0.55850000(0)  0.94150000(0)  0.08900
 H3_57  H 1.0  0.12250000(0)  0.05850000(0)  0.44150000(0)  0.08900
 H3_58  H 1.0  0.94150000(0)  0.87750000(0)  0.44150000(0)  0.08900
 H3_59  H 1.0  0.44150000(0)  0.87750000(0)  0.94150000(0)  0.08900
 H3_60  H 1.0  0.44150000(0)  0.37750000(0)  0.44150000(0)  0.08900
 H3_61  H 1.0  0.05850000(0)  0.44150000(0)  0.87750000(0)  0.08900
 H3_62  H 1.0  0.55850000(0)  0.44150000(0)  0.37750000(0)  0.08900
 H3_63  H 1.0  0.55850000(0)  0.94150000(0)  0.87750000(0)  0.08900
 H3_64  H 1.0  0.05850000(0)  0.12250000(0)  0.55850000(0)  0.08900
 H3_65  H 1.0  0.55850000(0)  0.12250000(0)  0.05850000(0)  0.08900
 H3_66  H 1.0  0.55850000(0)  0.62250000(0)  0.55850000(0)  0.08900
 H3_67  H 1.0  0.37750000(0)  0.44150000(0)  0.55850000(0)  0.08900
 H3_68  H 1.0  0.87750000(0)  0.44150000(0)  0.05850000(0)  0.08900
 H3_69  H 1.0  0.87750000(0)  0.94150000(0)  0.55850000(0)  0.08900
 H3_70  H 1.0  0.05850000(0)  0.44150000(0)  0.12250000(0)  0.08900
 H3_71  H 1.0  0.55850000(0)  0.44150000(0)  0.62250000(0)  0.08900
 H3_72  H 1.0  0.55850000(0)  0.94150000(0)  0.12250000(0)  0.08900
 H3_73  H 1.0  0.05850000(0)  0.12250000(0)  0.44150000(0)  0.08900
 H3_74  H 1.0  0.55850000(0)  0.12250000(0)  0.94150000(0)  0.08900
 H3_75  H 1.0  0.55850000(0)  0.62250000(0)  0.44150000(0)  0.08900
 H3_76  H 1.0  0.37750000(0)  0.44150000(0)  0.44150000(0)  0.08900
 H3_77  H 1.0  0.87750000(0)  0.44150000(0)  0.94150000(0)  0.08900
 H3_78  H 1.0  0.87750000(0)  0.94150000(0)  0.44150000(0)  0.08900
 H3_79  H 1.0  0.94150000(0)  0.44150000(0)  0.12250000(0)  0.08900
 H3_80  H 1.0  0.44150000(0)  0.44150000(0)  0.62250000(0)  0.08900
 H3_81  H 1.0  0.44150000(0)  0.94150000(0)  0.12250000(0)  0.08900
 H3_82  H 1.0  0.62250000(0)  0.44150000(0)  0.44150000(0)  0.08900
 H3_83  H 1.0  0.12250000(0)  0.44150000(0)  0.94150000(0)  0.08900
 H3_84  H 1.0  0.12250000(0)  0.94150000(0)  0.44150000(0)  0.08900
 H3_85  H 1.0  0.94150000(0)  0.12250000(0)  0.44150000(0)  0.08900
 H3_86  H 1.0  0.44150000(0)  0.12250000(0)  0.94150000(0)  0.08900
 H3_87  H 1.0  0.44150000(0)  0.62250000(0)  0.44150000(0)  0.08900
 H3_88  H 1.0  0.94150000(0)  0.44150000(0)  0.87750000(0)  0.08900
 H3_89  H 1.0  0.44150000(0)  0.44150000(0)  0.37750000(0)  0.08900
 H3_90  H 1.0  0.44150000(0)  0.94150000(0)  0.87750000(0)  0.08900
 H3_91  H 1.0  0.62250000(0)  0.44150000(0)  0.55850000(0)  0.08900
 H3_92  H 1.0  0.12250000(0)  0.44150000(0)  0.05850000(0)  0.08900
 H3_93  H 1.0  0.12250000(0)  0.94150000(0)  0.55850000(0)  0.08900
 H3_94  H 1.0  0.94150000(0)  0.12250000(0)  0.55850000(0)  0.08900
 H3_95  H 1.0  0.44150000(0)  0.12250000(0)  0.05850000(0)  0.08900
 H3_96  H 1.0  0.44150000(0)  0.62250000(0)  0.55850000(0)  0.08900
 H4  H 1.0  0.04770000(0)  0.09890000(0)  0.31850000(0)  0.14700
 H4_2  H 1.0  0.31850000(0)  0.04770000(0)  0.09890000(0)  0.14700
 H4_3  H 1.0  0.09890000(0)  0.31850000(0)  0.04770000(0)  0.14700
 H4_4  H 1.0  0.04770000(0)  0.09890000(0)  0.68150000(0)  0.14700
 H4_5  H 1.0  0.31850000(0)  0.04770000(0)  0.90110000(0)  0.14700
 H4_6  H 1.0  0.09890000(0)  0.31850000(0)  0.95230000(0)  0.14700
 H4_7  H 1.0  0.95230000(0)  0.09890000(0)  0.31850000(0)  0.14700
 H4_8  H 1.0  0.68150000(0)  0.04770000(0)  0.09890000(0)  0.14700
 H4_9  H 1.0  0.90110000(0)  0.31850000(0)  0.04770000(0)  0.14700
 H4_10  H 1.0  0.95230000(0)  0.09890000(0)  0.68150000(0)  0.14700
 H4_11  H 1.0  0.68150000(0)  0.04770000(0)  0.90110000(0)  0.14700
 H4_12  H 1.0  0.90110000(0)  0.31850000(0)  0.95230000(0)  0.14700
 H4_13  H 1.0  0.09890000(0)  0.04770000(0)  0.31850000(0)  0.14700
 H4_14  H 1.0  0.04770000(0)  0.31850000(0)  0.09890000(0)  0.14700
 H4_15  H 1.0  0.31850000(0)  0.09890000(0)  0.04770000(0)  0.14700
 H4_16  H 1.0  0.09890000(0)  0.04770000(0)  0.68150000(0)  0.14700
 H4_17  H 1.0  0.04770000(0)  0.31850000(0)  0.90110000(0)  0.14700
 H4_18  H 1.0  0.31850000(0)  0.09890000(0)  0.95230000(0)  0.14700
 H4_19  H 1.0  0.09890000(0)  0.95230000(0)  0.31850000(0)  0.14700
 H4_20  H 1.0  0.04770000(0)  0.68150000(0)  0.09890000(0)  0.14700
 H4_21  H 1.0  0.31850000(0)  0.90110000(0)  0.04770000(0)  0.14700
 H4_22  H 1.0  0.09890000(0)  0.95230000(0)  0.68150000(0)  0.14700
 H4_23  H 1.0  0.04770000(0)  0.68150000(0)  0.90110000(0)  0.14700
 H4_24  H 1.0  0.31850000(0)  0.90110000(0)  0.95230000(0)  0.14700
 H4_25  H 1.0  0.95230000(0)  0.90110000(0)  0.68150000(0)  0.14700
 H4_26  H 1.0  0.68150000(0)  0.95230000(0)  0.90110000(0)  0.14700
 H4_27  H 1.0  0.90110000(0)  0.68150000(0)  0.95230000(0)  0.14700
 H4_28  H 1.0  0.95230000(0)  0.90110000(0)  0.31850000(0)  0.14700
 H4_29  H 1.0  0.68150000(0)  0.95230000(0)  0.09890000(0)  0.14700
 H4_30  H 1.0  0.90110000(0)  0.68150000(0)  0.04770000(0)  0.14700
 H4_31  H 1.0  0.04770000(0)  0.90110000(0)  0.68150000(0)  0.14700
 H4_32  H 1.0  0.31850000(0)  0.95230000(0)  0.90110000(0)  0.14700
 H4_33  H 1.0  0.09890000(0)  0.68150000(0)  0.95230000(0)  0.14700
 H4_34  H 1.0  0.04770000(0)  0.90110000(0)  0.31850000(0)  0.14700
 H4_35  H 1.0  0.31850000(0)  0.95230000(0)  0.09890000(0)  0.14700
 H4_36  H 1.0  0.09890000(0)  0.68150000(0)  0.04770000(0)  0.14700
 H4_37  H 1.0  0.90110000(0)  0.95230000(0)  0.68150000(0)  0.14700
 H4_38  H 1.0  0.95230000(0)  0.68150000(0)  0.90110000(0)  0.14700
 H4_39  H 1.0  0.68150000(0)  0.90110000(0)  0.95230000(0)  0.14700
 H4_40  H 1.0  0.90110000(0)  0.95230000(0)  0.31850000(0)  0.14700
 H4_41  H 1.0  0.95230000(0)  0.68150000(0)  0.09890000(0)  0.14700
 H4_42  H 1.0  0.68150000(0)  0.90110000(0)  0.04770000(0)  0.14700
 H4_43  H 1.0  0.90110000(0)  0.04770000(0)  0.68150000(0)  0.14700
 H4_44  H 1.0  0.95230000(0)  0.31850000(0)  0.90110000(0)  0.14700
 H4_45  H 1.0  0.68150000(0)  0.09890000(0)  0.95230000(0)  0.14700
 H4_46  H 1.0  0.90110000(0)  0.04770000(0)  0.31850000(0)  0.14700
 H4_47  H 1.0  0.95230000(0)  0.31850000(0)  0.09890000(0)  0.14700
 H4_48  H 1.0  0.68150000(0)  0.09890000(0)  0.04770000(0)  0.14700
 H4_49  H 1.0  0.04770000(0)  0.59890000(0)  0.81850000(0)  0.14700
 H4_50  H 1.0  0.54770000(0)  0.59890000(0)  0.31850000(0)  0.14700
 H4_51  H 1.0  0.54770000(0)  0.09890000(0)  0.81850000(0)  0.14700
 H4_52  H 1.0  0.31850000(0)  0.54770000(0)  0.59890000(0)  0.14700
 H4_53  H 1.0  0.81850000(0)  0.54770000(0)  0.09890000(0)  0.14700
 H4_54  H 1.0  0.81850000(0)  0.04770000(0)  0.59890000(0)  0.14700
 H4_55  H 1.0  0.09890000(0)  0.81850000(0)  0.54770000(0)  0.14700
 H4_56  H 1.0  0.59890000(0)  0.81850000(0)  0.04770000(0)  0.14700
 H4_57  H 1.0  0.59890000(0)  0.31850000(0)  0.54770000(0)  0.14700
 H4_58  H 1.0  0.04770000(0)  0.59890000(0)  0.18150000(0)  0.14700
 H4_59  H 1.0  0.54770000(0)  0.59890000(0)  0.68150000(0)  0.14700
 H4_60  H 1.0  0.54770000(0)  0.09890000(0)  0.18150000(0)  0.14700
 H4_61  H 1.0  0.31850000(0)  0.54770000(0)  0.40110000(0)  0.14700
 H4_62  H 1.0  0.81850000(0)  0.54770000(0)  0.90110000(0)  0.14700
 H4_63  H 1.0  0.81850000(0)  0.04770000(0)  0.40110000(0)  0.14700
 H4_64  H 1.0  0.09890000(0)  0.81850000(0)  0.45230000(0)  0.14700
 H4_65  H 1.0  0.59890000(0)  0.81850000(0)  0.95230000(0)  0.14700
 H4_66  H 1.0  0.59890000(0)  0.31850000(0)  0.45230000(0)  0.14700
 H4_67  H 1.0  0.95230000(0)  0.59890000(0)  0.81850000(0)  0.14700
 H4_68  H 1.0  0.45230000(0)  0.59890000(0)  0.31850000(0)  0.14700
 H4_69  H 1.0  0.45230000(0)  0.09890000(0)  0.81850000(0)  0.14700
 H4_70  H 1.0  0.68150000(0)  0.54770000(0)  0.59890000(0)  0.14700
 H4_71  H 1.0  0.18150000(0)  0.54770000(0)  0.09890000(0)  0.14700
 H4_72  H 1.0  0.18150000(0)  0.04770000(0)  0.59890000(0)  0.14700
 H4_73  H 1.0  0.90110000(0)  0.81850000(0)  0.54770000(0)  0.14700
 H4_74  H 1.0  0.40110000(0)  0.81850000(0)  0.04770000(0)  0.14700
 H4_75  H 1.0  0.40110000(0)  0.31850000(0)  0.54770000(0)  0.14700
 H4_76  H 1.0  0.95230000(0)  0.59890000(0)  0.18150000(0)  0.14700
 H4_77  H 1.0  0.45230000(0)  0.59890000(0)  0.68150000(0)  0.14700
 H4_78  H 1.0  0.45230000(0)  0.09890000(0)  0.18150000(0)  0.14700
 H4_79  H 1.0  0.68150000(0)  0.54770000(0)  0.40110000(0)  0.14700
 H4_80  H 1.0  0.18150000(0)  0.54770000(0)  0.90110000(0)  0.14700
 H4_81  H 1.0  0.18150000(0)  0.04770000(0)  0.40110000(0)  0.14700
 H4_82  H 1.0  0.90110000(0)  0.81850000(0)  0.45230000(0)  0.14700
 H4_83  H 1.0  0.40110000(0)  0.81850000(0)  0.95230000(0)  0.14700
 H4_84  H 1.0  0.40110000(0)  0.31850000(0)  0.45230000(0)  0.14700
 H4_85  H 1.0  0.09890000(0)  0.54770000(0)  0.81850000(0)  0.14700
 H4_86  H 1.0  0.59890000(0)  0.54770000(0)  0.31850000(0)  0.14700
 H4_87  H 1.0  0.59890000(0)  0.04770000(0)  0.81850000(0)  0.14700
 H4_88  H 1.0  0.04770000(0)  0.81850000(0)  0.59890000(0)  0.14700
 H4_89  H 1.0  0.54770000(0)  0.81850000(0)  0.09890000(0)  0.14700
 H4_90  H 1.0  0.54770000(0)  0.31850000(0)  0.59890000(0)  0.14700
 H4_91  H 1.0  0.31850000(0)  0.59890000(0)  0.54770000(0)  0.14700
 H4_92  H 1.0  0.81850000(0)  0.59890000(0)  0.04770000(0)  0.14700
 H4_93  H 1.0  0.81850000(0)  0.09890000(0)  0.54770000(0)  0.14700
 H4_94  H 1.0  0.09890000(0)  0.54770000(0)  0.18150000(0)  0.14700
 H4_95  H 1.0  0.59890000(0)  0.54770000(0)  0.68150000(0)  0.14700
 H4_96  H 1.0  0.59890000(0)  0.04770000(0)  0.18150000(0)  0.14700
 H4_97  H 1.0  0.04770000(0)  0.81850000(0)  0.40110000(0)  0.14700
 H4_98  H 1.0  0.54770000(0)  0.81850000(0)  0.90110000(0)  0.14700
 H4_99  H 1.0  0.54770000(0)  0.31850000(0)  0.40110000(0)  0.14700
 H4_100  H 1.0  0.31850000(0)  0.59890000(0)  0.45230000(0)  0.14700
 H4_101  H 1.0  0.81850000(0)  0.59890000(0)  0.95230000(0)  0.14700
 H4_102  H 1.0  0.81850000(0)  0.09890000(0)  0.45230000(0)  0.14700
 H4_103  H 1.0  0.09890000(0)  0.45230000(0)  0.81850000(0)  0.14700
 H4_104  H 1.0  0.59890000(0)  0.45230000(0)  0.31850000(0)  0.14700
 H4_105  H 1.0  0.59890000(0)  0.95230000(0)  0.81850000(0)  0.14700
 H4_106  H 1.0  0.04770000(0)  0.18150000(0)  0.59890000(0)  0.14700
 H4_107  H 1.0  0.54770000(0)  0.18150000(0)  0.09890000(0)  0.14700
 H4_108  H 1.0  0.54770000(0)  0.68150000(0)  0.59890000(0)  0.14700
 H4_109  H 1.0  0.31850000(0)  0.40110000(0)  0.54770000(0)  0.14700
 H4_110  H 1.0  0.81850000(0)  0.40110000(0)  0.04770000(0)  0.14700
 H4_111  H 1.0  0.81850000(0)  0.90110000(0)  0.54770000(0)  0.14700
 H4_112  H 1.0  0.09890000(0)  0.45230000(0)  0.18150000(0)  0.14700
 H4_113  H 1.0  0.59890000(0)  0.45230000(0)  0.68150000(0)  0.14700
 H4_114  H 1.0  0.59890000(0)  0.95230000(0)  0.18150000(0)  0.14700
 H4_115  H 1.0  0.04770000(0)  0.18150000(0)  0.40110000(0)  0.14700
 H4_116  H 1.0  0.54770000(0)  0.18150000(0)  0.90110000(0)  0.14700
 H4_117  H 1.0  0.54770000(0)  0.68150000(0)  0.40110000(0)  0.14700
 H4_118  H 1.0  0.31850000(0)  0.40110000(0)  0.45230000(0)  0.14700
 H4_119  H 1.0  0.81850000(0)  0.40110000(0)  0.95230000(0)  0.14700
 H4_120  H 1.0  0.81850000(0)  0.90110000(0)  0.45230000(0)  0.14700
 H4_121  H 1.0  0.95230000(0)  0.40110000(0)  0.18150000(0)  0.14700
 H4_122  H 1.0  0.45230000(0)  0.40110000(0)  0.68150000(0)  0.14700
 H4_123  H 1.0  0.45230000(0)  0.90110000(0)  0.18150000(0)  0.14700
 H4_124  H 1.0  0.68150000(0)  0.45230000(0)  0.40110000(0)  0.14700
 H4_125  H 1.0  0.18150000(0)  0.45230000(0)  0.90110000(0)  0.14700
 H4_126  H 1.0  0.18150000(0)  0.95230000(0)  0.40110000(0)  0.14700
 H4_127  H 1.0  0.90110000(0)  0.18150000(0)  0.45230000(0)  0.14700
 H4_128  H 1.0  0.40110000(0)  0.18150000(0)  0.95230000(0)  0.14700
 H4_129  H 1.0  0.40110000(0)  0.68150000(0)  0.45230000(0)  0.14700
 H4_130  H 1.0  0.95230000(0)  0.40110000(0)  0.81850000(0)  0.14700
 H4_131  H 1.0  0.45230000(0)  0.40110000(0)  0.31850000(0)  0.14700
 H4_132  H 1.0  0.45230000(0)  0.90110000(0)  0.81850000(0)  0.14700
 H4_133  H 1.0  0.68150000(0)  0.45230000(0)  0.59890000(0)  0.14700
 H4_134  H 1.0  0.18150000(0)  0.45230000(0)  0.09890000(0)  0.14700
 H4_135  H 1.0  0.18150000(0)  0.95230000(0)  0.59890000(0)  0.14700
 H4_136  H 1.0  0.90110000(0)  0.18150000(0)  0.54770000(0)  0.14700
 H4_137  H 1.0  0.40110000(0)  0.18150000(0)  0.04770000(0)  0.14700
 H4_138  H 1.0  0.40110000(0)  0.68150000(0)  0.54770000(0)  0.14700
 H4_139  H 1.0  0.04770000(0)  0.40110000(0)  0.18150000(0)  0.14700
 H4_140  H 1.0  0.54770000(0)  0.40110000(0)  0.68150000(0)  0.14700
 H4_141  H 1.0  0.54770000(0)  0.90110000(0)  0.18150000(0)  0.14700
 H4_142  H 1.0  0.31850000(0)  0.45230000(0)  0.40110000(0)  0.14700
 H4_143  H 1.0  0.81850000(0)  0.45230000(0)  0.90110000(0)  0.14700
 H4_144  H 1.0  0.81850000(0)  0.95230000(0)  0.40110000(0)  0.14700
 H4_145  H 1.0  0.09890000(0)  0.18150000(0)  0.45230000(0)  0.14700
 H4_146  H 1.0  0.59890000(0)  0.18150000(0)  0.95230000(0)  0.14700
 H4_147  H 1.0  0.59890000(0)  0.68150000(0)  0.45230000(0)  0.14700
 H4_148  H 1.0  0.04770000(0)  0.40110000(0)  0.81850000(0)  0.14700
 H4_149  H 1.0  0.54770000(0)  0.40110000(0)  0.31850000(0)  0.14700
 H4_150  H 1.0  0.54770000(0)  0.90110000(0)  0.81850000(0)  0.14700
 H4_151  H 1.0  0.31850000(0)  0.45230000(0)  0.59890000(0)  0.14700
 H4_152  H 1.0  0.81850000(0)  0.45230000(0)  0.09890000(0)  0.14700
 H4_153  H 1.0  0.81850000(0)  0.95230000(0)  0.59890000(0)  0.14700
 H4_154  H 1.0  0.09890000(0)  0.18150000(0)  0.54770000(0)  0.14700
 H4_155  H 1.0  0.59890000(0)  0.18150000(0)  0.04770000(0)  0.14700
 H4_156  H 1.0  0.59890000(0)  0.68150000(0)  0.54770000(0)  0.14700
 H4_157  H 1.0  0.90110000(0)  0.45230000(0)  0.18150000(0)  0.14700
 H4_158  H 1.0  0.40110000(0)  0.45230000(0)  0.68150000(0)  0.14700
 H4_159  H 1.0  0.40110000(0)  0.95230000(0)  0.18150000(0)  0.14700
 H4_160  H 1.0  0.95230000(0)  0.18150000(0)  0.40110000(0)  0.14700
 H4_161  H 1.0  0.45230000(0)  0.18150000(0)  0.90110000(0)  0.14700
 H4_162  H 1.0  0.45230000(0)  0.68150000(0)  0.40110000(0)  0.14700
 H4_163  H 1.0  0.68150000(0)  0.40110000(0)  0.45230000(0)  0.14700
 H4_164  H 1.0  0.18150000(0)  0.40110000(0)  0.95230000(0)  0.14700
 H4_165  H 1.0  0.18150000(0)  0.90110000(0)  0.45230000(0)  0.14700
 H4_166  H 1.0  0.90110000(0)  0.45230000(0)  0.81850000(0)  0.14700
 H4_167  H 1.0  0.40110000(0)  0.45230000(0)  0.31850000(0)  0.14700
 H4_168  H 1.0  0.40110000(0)  0.95230000(0)  0.81850000(0)  0.14700
 H4_169  H 1.0  0.95230000(0)  0.18150000(0)  0.59890000(0)  0.14700
 H4_170  H 1.0  0.45230000(0)  0.18150000(0)  0.09890000(0)  0.14700
 H4_171  H 1.0  0.45230000(0)  0.68150000(0)  0.59890000(0)  0.14700
 H4_172  H 1.0  0.68150000(0)  0.40110000(0)  0.54770000(0)  0.14700
 H4_173  H 1.0  0.18150000(0)  0.40110000(0)  0.04770000(0)  0.14700
 H4_174  H 1.0  0.18150000(0)  0.90110000(0)  0.54770000(0)  0.14700
 H4_175  H 1.0  0.90110000(0)  0.54770000(0)  0.18150000(0)  0.14700
 H4_176  H 1.0  0.40110000(0)  0.54770000(0)  0.68150000(0)  0.14700
 H4_177  H 1.0  0.40110000(0)  0.04770000(0)  0.18150000(0)  0.14700
 H4_178  H 1.0  0.95230000(0)  0.81850000(0)  0.40110000(0)  0.14700
 H4_179  H 1.0  0.45230000(0)  0.81850000(0)  0.90110000(0)  0.14700
 H4_180  H 1.0  0.45230000(0)  0.31850000(0)  0.40110000(0)  0.14700
 H4_181  H 1.0  0.68150000(0)  0.59890000(0)  0.45230000(0)  0.14700
 H4_182  H 1.0  0.18150000(0)  0.59890000(0)  0.95230000(0)  0.14700
 H4_183  H 1.0  0.18150000(0)  0.09890000(0)  0.45230000(0)  0.14700
 H4_184  H 1.0  0.90110000(0)  0.54770000(0)  0.81850000(0)  0.14700
 H4_185  H 1.0  0.40110000(0)  0.54770000(0)  0.31850000(0)  0.14700
 H4_186  H 1.0  0.40110000(0)  0.04770000(0)  0.81850000(0)  0.14700
 H4_187  H 1.0  0.95230000(0)  0.81850000(0)  0.59890000(0)  0.14700
 H4_188  H 1.0  0.45230000(0)  0.81850000(0)  0.09890000(0)  0.14700
 H4_189  H 1.0  0.45230000(0)  0.31850000(0)  0.59890000(0)  0.14700
 H4_190  H 1.0  0.68150000(0)  0.59890000(0)  0.54770000(0)  0.14700
 H4_191  H 1.0  0.18150000(0)  0.59890000(0)  0.04770000(0)  0.14700
 H4_192  H 1.0  0.18150000(0)  0.09890000(0)  0.54770000(0)  0.14700
 H13  H 1.0  0.07210000(0)  0.12170000(0)  0.21220000(0)  0.26500
 H13_2  H 1.0  0.21220000(0)  0.07210000(0)  0.12170000(0)  0.26500
 H13_3  H 1.0  0.12170000(0)  0.21220000(0)  0.07210000(0)  0.26500
 H13_4  H 1.0  0.07210000(0)  0.12170000(0)  0.78780000(0)  0.26500
 H13_5  H 1.0  0.21220000(0)  0.07210000(0)  0.87830000(0)  0.26500
 H13_6  H 1.0  0.12170000(0)  0.21220000(0)  0.92790000(0)  0.26500
 H13_7  H 1.0  0.92790000(0)  0.12170000(0)  0.21220000(0)  0.26500
 H13_8  H 1.0  0.78780000(0)  0.07210000(0)  0.12170000(0)  0.26500
 H13_9  H 1.0  0.87830000(0)  0.21220000(0)  0.07210000(0)  0.26500
 H13_10  H 1.0  0.92790000(0)  0.12170000(0)  0.78780000(0)  0.26500
 H13_11  H 1.0  0.78780000(0)  0.07210000(0)  0.87830000(0)  0.26500
 H13_12  H 1.0  0.87830000(0)  0.21220000(0)  0.92790000(0)  0.26500
 H13_13  H 1.0  0.12170000(0)  0.07210000(0)  0.21220000(0)  0.26500
 H13_14  H 1.0  0.07210000(0)  0.21220000(0)  0.12170000(0)  0.26500
 H13_15  H 1.0  0.21220000(0)  0.12170000(0)  0.07210000(0)  0.26500
 H13_16  H 1.0  0.12170000(0)  0.07210000(0)  0.78780000(0)  0.26500
 H13_17  H 1.0  0.07210000(0)  0.21220000(0)  0.87830000(0)  0.26500
 H13_18  H 1.0  0.21220000(0)  0.12170000(0)  0.92790000(0)  0.26500
 H13_19  H 1.0  0.12170000(0)  0.92790000(0)  0.21220000(0)  0.26500
 H13_20  H 1.0  0.07210000(0)  0.78780000(0)  0.12170000(0)  0.26500
 H13_21  H 1.0  0.21220000(0)  0.87830000(0)  0.07210000(0)  0.26500
 H13_22  H 1.0  0.12170000(0)  0.92790000(0)  0.78780000(0)  0.26500
 H13_23  H 1.0  0.07210000(0)  0.78780000(0)  0.87830000(0)  0.26500
 H13_24  H 1.0  0.21220000(0)  0.87830000(0)  0.92790000(0)  0.26500
 H13_25  H 1.0  0.92790000(0)  0.87830000(0)  0.78780000(0)  0.26500
 H13_26  H 1.0  0.78780000(0)  0.92790000(0)  0.87830000(0)  0.26500
 H13_27  H 1.0  0.87830000(0)  0.78780000(0)  0.92790000(0)  0.26500
 H13_28  H 1.0  0.92790000(0)  0.87830000(0)  0.21220000(0)  0.26500
 H13_29  H 1.0  0.78780000(0)  0.92790000(0)  0.12170000(0)  0.26500
 H13_30  H 1.0  0.87830000(0)  0.78780000(0)  0.07210000(0)  0.26500
 H13_31  H 1.0  0.07210000(0)  0.87830000(0)  0.78780000(0)  0.26500
 H13_32  H 1.0  0.21220000(0)  0.92790000(0)  0.87830000(0)  0.26500
 H13_33  H 1.0  0.12170000(0)  0.78780000(0)  0.92790000(0)  0.26500
 H13_34  H 1.0  0.07210000(0)  0.87830000(0)  0.21220000(0)  0.26500
 H13_35  H 1.0  0.21220000(0)  0.92790000(0)  0.12170000(0)  0.26500
 H13_36  H 1.0  0.12170000(0)  0.78780000(0)  0.07210000(0)  0.26500
 H13_37  H 1.0  0.87830000(0)  0.92790000(0)  0.78780000(0)  0.26500
 H13_38  H 1.0  0.92790000(0)  0.78780000(0)  0.87830000(0)  0.26500
 H13_39  H 1.0  0.78780000(0)  0.87830000(0)  0.92790000(0)  0.26500
 H13_40  H 1.0  0.87830000(0)  0.92790000(0)  0.21220000(0)  0.26500
 H13_41  H 1.0  0.92790000(0)  0.78780000(0)  0.12170000(0)  0.26500
 H13_42  H 1.0  0.78780000(0)  0.87830000(0)  0.07210000(0)  0.26500
 H13_43  H 1.0  0.87830000(0)  0.07210000(0)  0.78780000(0)  0.26500
 H13_44  H 1.0  0.92790000(0)  0.21220000(0)  0.87830000(0)  0.26500
 H13_45  H 1.0  0.78780000(0)  0.12170000(0)  0.92790000(0)  0.26500
 H13_46  H 1.0  0.87830000(0)  0.07210000(0)  0.21220000(0)  0.26500
 H13_47  H 1.0  0.92790000(0)  0.21220000(0)  0.12170000(0)  0.26500
 H13_48  H 1.0  0.78780000(0)  0.12170000(0)  0.07210000(0)  0.26500
 H13_49  H 1.0  0.07210000(0)  0.62170000(0)  0.71220000(0)  0.26500
 H13_50  H 1.0  0.57210000(0)  0.62170000(0)  0.21220000(0)  0.26500
 H13_51  H 1.0  0.57210000(0)  0.12170000(0)  0.71220000(0)  0.26500
 H13_52  H 1.0  0.21220000(0)  0.57210000(0)  0.62170000(0)  0.26500
 H13_53  H 1.0  0.71220000(0)  0.57210000(0)  0.12170000(0)  0.26500
 H13_54  H 1.0  0.71220000(0)  0.07210000(0)  0.62170000(0)  0.26500
 H13_55  H 1.0  0.12170000(0)  0.71220000(0)  0.57210000(0)  0.26500
 H13_56  H 1.0  0.62170000(0)  0.71220000(0)  0.07210000(0)  0.26500
 H13_57  H 1.0  0.62170000(0)  0.21220000(0)  0.57210000(0)  0.26500
 H13_58  H 1.0  0.07210000(0)  0.62170000(0)  0.28780000(0)  0.26500
 H13_59  H 1.0  0.57210000(0)  0.62170000(0)  0.78780000(0)  0.26500
 H13_60  H 1.0  0.57210000(0)  0.12170000(0)  0.28780000(0)  0.26500
 H13_61  H 1.0  0.21220000(0)  0.57210000(0)  0.37830000(0)  0.26500
 H13_62  H 1.0  0.71220000(0)  0.57210000(0)  0.87830000(0)  0.26500
 H13_63  H 1.0  0.71220000(0)  0.07210000(0)  0.37830000(0)  0.26500
 H13_64  H 1.0  0.12170000(0)  0.71220000(0)  0.42790000(0)  0.26500
 H13_65  H 1.0  0.62170000(0)  0.71220000(0)  0.92790000(0)  0.26500
 H13_66  H 1.0  0.62170000(0)  0.21220000(0)  0.42790000(0)  0.26500
 H13_67  H 1.0  0.92790000(0)  0.62170000(0)  0.71220000(0)  0.26500
 H13_68  H 1.0  0.42790000(0)  0.62170000(0)  0.21220000(0)  0.26500
 H13_69  H 1.0  0.42790000(0)  0.12170000(0)  0.71220000(0)  0.26500
 H13_70  H 1.0  0.78780000(0)  0.57210000(0)  0.62170000(0)  0.26500
 H13_71  H 1.0  0.28780000(0)  0.57210000(0)  0.12170000(0)  0.26500
 H13_72  H 1.0  0.28780000(0)  0.07210000(0)  0.62170000(0)  0.26500
 H13_73  H 1.0  0.87830000(0)  0.71220000(0)  0.57210000(0)  0.26500
 H13_74  H 1.0  0.37830000(0)  0.71220000(0)  0.07210000(0)  0.26500
 H13_75  H 1.0  0.37830000(0)  0.21220000(0)  0.57210000(0)  0.26500
 H13_76  H 1.0  0.92790000(0)  0.62170000(0)  0.28780000(0)  0.26500
 H13_77  H 1.0  0.42790000(0)  0.62170000(0)  0.78780000(0)  0.26500
 H13_78  H 1.0  0.42790000(0)  0.12170000(0)  0.28780000(0)  0.26500
 H13_79  H 1.0  0.78780000(0)  0.57210000(0)  0.37830000(0)  0.26500
 H13_80  H 1.0  0.28780000(0)  0.57210000(0)  0.87830000(0)  0.26500
 H13_81  H 1.0  0.28780000(0)  0.07210000(0)  0.37830000(0)  0.26500
 H13_82  H 1.0  0.87830000(0)  0.71220000(0)  0.42790000(0)  0.26500
 H13_83  H 1.0  0.37830000(0)  0.71220000(0)  0.92790000(0)  0.26500
 H13_84  H 1.0  0.37830000(0)  0.21220000(0)  0.42790000(0)  0.26500
 H13_85  H 1.0  0.12170000(0)  0.57210000(0)  0.71220000(0)  0.26500
 H13_86  H 1.0  0.62170000(0)  0.57210000(0)  0.21220000(0)  0.26500
 H13_87  H 1.0  0.62170000(0)  0.07210000(0)  0.71220000(0)  0.26500
 H13_88  H 1.0  0.07210000(0)  0.71220000(0)  0.62170000(0)  0.26500
 H13_89  H 1.0  0.57210000(0)  0.71220000(0)  0.12170000(0)  0.26500
 H13_90  H 1.0  0.57210000(0)  0.21220000(0)  0.62170000(0)  0.26500
 H13_91  H 1.0  0.21220000(0)  0.62170000(0)  0.57210000(0)  0.26500
 H13_92  H 1.0  0.71220000(0)  0.62170000(0)  0.07210000(0)  0.26500
 H13_93  H 1.0  0.71220000(0)  0.12170000(0)  0.57210000(0)  0.26500
 H13_94  H 1.0  0.12170000(0)  0.57210000(0)  0.28780000(0)  0.26500
 H13_95  H 1.0  0.62170000(0)  0.57210000(0)  0.78780000(0)  0.26500
 H13_96  H 1.0  0.62170000(0)  0.07210000(0)  0.28780000(0)  0.26500
 H13_97  H 1.0  0.07210000(0)  0.71220000(0)  0.37830000(0)  0.26500
 H13_98  H 1.0  0.57210000(0)  0.71220000(0)  0.87830000(0)  0.26500
 H13_99  H 1.0  0.57210000(0)  0.21220000(0)  0.37830000(0)  0.26500
 H13_100  H 1.0  0.21220000(0)  0.62170000(0)  0.42790000(0)  0.26500
 H13_101  H 1.0  0.71220000(0)  0.62170000(0)  0.92790000(0)  0.26500
 H13_102  H 1.0  0.71220000(0)  0.12170000(0)  0.42790000(0)  0.26500
 H13_103  H 1.0  0.12170000(0)  0.42790000(0)  0.71220000(0)  0.26500
 H13_104  H 1.0  0.62170000(0)  0.42790000(0)  0.21220000(0)  0.26500
 H13_105  H 1.0  0.62170000(0)  0.92790000(0)  0.71220000(0)  0.26500
 H13_106  H 1.0  0.07210000(0)  0.28780000(0)  0.62170000(0)  0.26500
 H13_107  H 1.0  0.57210000(0)  0.28780000(0)  0.12170000(0)  0.26500
 H13_108  H 1.0  0.57210000(0)  0.78780000(0)  0.62170000(0)  0.26500
 H13_109  H 1.0  0.21220000(0)  0.37830000(0)  0.57210000(0)  0.26500
 H13_110  H 1.0  0.71220000(0)  0.37830000(0)  0.07210000(0)  0.26500
 H13_111  H 1.0  0.71220000(0)  0.87830000(0)  0.57210000(0)  0.26500
 H13_112  H 1.0  0.12170000(0)  0.42790000(0)  0.28780000(0)  0.26500
 H13_113  H 1.0  0.62170000(0)  0.42790000(0)  0.78780000(0)  0.26500
 H13_114  H 1.0  0.62170000(0)  0.92790000(0)  0.28780000(0)  0.26500
 H13_115  H 1.0  0.07210000(0)  0.28780000(0)  0.37830000(0)  0.26500
 H13_116  H 1.0  0.57210000(0)  0.28780000(0)  0.87830000(0)  0.26500
 H13_117  H 1.0  0.57210000(0)  0.78780000(0)  0.37830000(0)  0.26500
 H13_118  H 1.0  0.21220000(0)  0.37830000(0)  0.42790000(0)  0.26500
 H13_119  H 1.0  0.71220000(0)  0.37830000(0)  0.92790000(0)  0.26500
 H13_120  H 1.0  0.71220000(0)  0.87830000(0)  0.42790000(0)  0.26500
 H13_121  H 1.0  0.92790000(0)  0.37830000(0)  0.28780000(0)  0.26500
 H13_122  H 1.0  0.42790000(0)  0.37830000(0)  0.78780000(0)  0.26500
 H13_123  H 1.0  0.42790000(0)  0.87830000(0)  0.28780000(0)  0.26500
 H13_124  H 1.0  0.78780000(0)  0.42790000(0)  0.37830000(0)  0.26500
 H13_125  H 1.0  0.28780000(0)  0.42790000(0)  0.87830000(0)  0.26500
 H13_126  H 1.0  0.28780000(0)  0.92790000(0)  0.37830000(0)  0.26500
 H13_127  H 1.0  0.87830000(0)  0.28780000(0)  0.42790000(0)  0.26500
 H13_128  H 1.0  0.37830000(0)  0.28780000(0)  0.92790000(0)  0.26500
 H13_129  H 1.0  0.37830000(0)  0.78780000(0)  0.42790000(0)  0.26500
 H13_130  H 1.0  0.92790000(0)  0.37830000(0)  0.71220000(0)  0.26500
 H13_131  H 1.0  0.42790000(0)  0.37830000(0)  0.21220000(0)  0.26500
 H13_132  H 1.0  0.42790000(0)  0.87830000(0)  0.71220000(0)  0.26500
 H13_133  H 1.0  0.78780000(0)  0.42790000(0)  0.62170000(0)  0.26500
 H13_134  H 1.0  0.28780000(0)  0.42790000(0)  0.12170000(0)  0.26500
 H13_135  H 1.0  0.28780000(0)  0.92790000(0)  0.62170000(0)  0.26500
 H13_136  H 1.0  0.87830000(0)  0.28780000(0)  0.57210000(0)  0.26500
 H13_137  H 1.0  0.37830000(0)  0.28780000(0)  0.07210000(0)  0.26500
 H13_138  H 1.0  0.37830000(0)  0.78780000(0)  0.57210000(0)  0.26500
 H13_139  H 1.0  0.07210000(0)  0.37830000(0)  0.28780000(0)  0.26500
 H13_140  H 1.0  0.57210000(0)  0.37830000(0)  0.78780000(0)  0.26500
 H13_141  H 1.0  0.57210000(0)  0.87830000(0)  0.28780000(0)  0.26500
 H13_142  H 1.0  0.21220000(0)  0.42790000(0)  0.37830000(0)  0.26500
 H13_143  H 1.0  0.71220000(0)  0.42790000(0)  0.87830000(0)  0.26500
 H13_144  H 1.0  0.71220000(0)  0.92790000(0)  0.37830000(0)  0.26500
 H13_145  H 1.0  0.12170000(0)  0.28780000(0)  0.42790000(0)  0.26500
 H13_146  H 1.0  0.62170000(0)  0.28780000(0)  0.92790000(0)  0.26500
 H13_147  H 1.0  0.62170000(0)  0.78780000(0)  0.42790000(0)  0.26500
 H13_148  H 1.0  0.07210000(0)  0.37830000(0)  0.71220000(0)  0.26500
 H13_149  H 1.0  0.57210000(0)  0.37830000(0)  0.21220000(0)  0.26500
 H13_150  H 1.0  0.57210000(0)  0.87830000(0)  0.71220000(0)  0.26500
 H13_151  H 1.0  0.21220000(0)  0.42790000(0)  0.62170000(0)  0.26500
 H13_152  H 1.0  0.71220000(0)  0.42790000(0)  0.12170000(0)  0.26500
 H13_153  H 1.0  0.71220000(0)  0.92790000(0)  0.62170000(0)  0.26500
 H13_154  H 1.0  0.12170000(0)  0.28780000(0)  0.57210000(0)  0.26500
 H13_155  H 1.0  0.62170000(0)  0.28780000(0)  0.07210000(0)  0.26500
 H13_156  H 1.0  0.62170000(0)  0.78780000(0)  0.57210000(0)  0.26500
 H13_157  H 1.0  0.87830000(0)  0.42790000(0)  0.28780000(0)  0.26500
 H13_158  H 1.0  0.37830000(0)  0.42790000(0)  0.78780000(0)  0.26500
 H13_159  H 1.0  0.37830000(0)  0.92790000(0)  0.28780000(0)  0.26500
 H13_160  H 1.0  0.92790000(0)  0.28780000(0)  0.37830000(0)  0.26500
 H13_161  H 1.0  0.42790000(0)  0.28780000(0)  0.87830000(0)  0.26500
 H13_162  H 1.0  0.42790000(0)  0.78780000(0)  0.37830000(0)  0.26500
 H13_163  H 1.0  0.78780000(0)  0.37830000(0)  0.42790000(0)  0.26500
 H13_164  H 1.0  0.28780000(0)  0.37830000(0)  0.92790000(0)  0.26500
 H13_165  H 1.0  0.28780000(0)  0.87830000(0)  0.42790000(0)  0.26500
 H13_166  H 1.0  0.87830000(0)  0.42790000(0)  0.71220000(0)  0.26500
 H13_167  H 1.0  0.37830000(0)  0.42790000(0)  0.21220000(0)  0.26500
 H13_168  H 1.0  0.37830000(0)  0.92790000(0)  0.71220000(0)  0.26500
 H13_169  H 1.0  0.92790000(0)  0.28780000(0)  0.62170000(0)  0.26500
 H13_170  H 1.0  0.42790000(0)  0.28780000(0)  0.12170000(0)  0.26500
 H13_171  H 1.0  0.42790000(0)  0.78780000(0)  0.62170000(0)  0.26500
 H13_172  H 1.0  0.78780000(0)  0.37830000(0)  0.57210000(0)  0.26500
 H13_173  H 1.0  0.28780000(0)  0.37830000(0)  0.07210000(0)  0.26500
 H13_174  H 1.0  0.28780000(0)  0.87830000(0)  0.57210000(0)  0.26500
 H13_175  H 1.0  0.87830000(0)  0.57210000(0)  0.28780000(0)  0.26500
 H13_176  H 1.0  0.37830000(0)  0.57210000(0)  0.78780000(0)  0.26500
 H13_177  H 1.0  0.37830000(0)  0.07210000(0)  0.28780000(0)  0.26500
 H13_178  H 1.0  0.92790000(0)  0.71220000(0)  0.37830000(0)  0.26500
 H13_179  H 1.0  0.42790000(0)  0.71220000(0)  0.87830000(0)  0.26500
 H13_180  H 1.0  0.42790000(0)  0.21220000(0)  0.37830000(0)  0.26500
 H13_181  H 1.0  0.78780000(0)  0.62170000(0)  0.42790000(0)  0.26500
 H13_182  H 1.0  0.28780000(0)  0.62170000(0)  0.92790000(0)  0.26500
 H13_183  H 1.0  0.28780000(0)  0.12170000(0)  0.42790000(0)  0.26500
 H13_184  H 1.0  0.87830000(0)  0.57210000(0)  0.71220000(0)  0.26500
 H13_185  H 1.0  0.37830000(0)  0.57210000(0)  0.21220000(0)  0.26500
 H13_186  H 1.0  0.37830000(0)  0.07210000(0)  0.71220000(0)  0.26500
 H13_187  H 1.0  0.92790000(0)  0.71220000(0)  0.62170000(0)  0.26500
 H13_188  H 1.0  0.42790000(0)  0.71220000(0)  0.12170000(0)  0.26500
 H13_189  H 1.0  0.42790000(0)  0.21220000(0)  0.62170000(0)  0.26500
 H13_190  H 1.0  0.78780000(0)  0.62170000(0)  0.57210000(0)  0.26500
 H13_191  H 1.0  0.28780000(0)  0.62170000(0)  0.07210000(0)  0.26500
 H13_192  H 1.0  0.28780000(0)  0.12170000(0)  0.57210000(0)  0.26500
 H14  H 1.0  0.08220000(0)  0.13160000(0)  0.17460000(0)  0.30300
 H14_2  H 1.0  0.17460000(0)  0.08220000(0)  0.13160000(0)  0.30300
 H14_3  H 1.0  0.13160000(0)  0.17460000(0)  0.08220000(0)  0.30300
 H14_4  H 1.0  0.08220000(0)  0.13160000(0)  0.82540000(0)  0.30300
 H14_5  H 1.0  0.17460000(0)  0.08220000(0)  0.86840000(0)  0.30300
 H14_6  H 1.0  0.13160000(0)  0.17460000(0)  0.91780000(0)  0.30300
 H14_7  H 1.0  0.91780000(0)  0.13160000(0)  0.17460000(0)  0.30300
 H14_8  H 1.0  0.82540000(0)  0.08220000(0)  0.13160000(0)  0.30300
 H14_9  H 1.0  0.86840000(0)  0.17460000(0)  0.08220000(0)  0.30300
 H14_10  H 1.0  0.91780000(0)  0.13160000(0)  0.82540000(0)  0.30300
 H14_11  H 1.0  0.82540000(0)  0.08220000(0)  0.86840000(0)  0.30300
 H14_12  H 1.0  0.86840000(0)  0.17460000(0)  0.91780000(0)  0.30300
 H14_13  H 1.0  0.13160000(0)  0.08220000(0)  0.17460000(0)  0.30300
 H14_14  H 1.0  0.08220000(0)  0.17460000(0)  0.13160000(0)  0.30300
 H14_15  H 1.0  0.17460000(0)  0.13160000(0)  0.08220000(0)  0.30300
 H14_16  H 1.0  0.13160000(0)  0.08220000(0)  0.82540000(0)  0.30300
 H14_17  H 1.0  0.08220000(0)  0.17460000(0)  0.86840000(0)  0.30300
 H14_18  H 1.0  0.17460000(0)  0.13160000(0)  0.91780000(0)  0.30300
 H14_19  H 1.0  0.13160000(0)  0.91780000(0)  0.17460000(0)  0.30300
 H14_20  H 1.0  0.08220000(0)  0.82540000(0)  0.13160000(0)  0.30300
 H14_21  H 1.0  0.17460000(0)  0.86840000(0)  0.08220000(0)  0.30300
 H14_22  H 1.0  0.13160000(0)  0.91780000(0)  0.82540000(0)  0.30300
 H14_23  H 1.0  0.08220000(0)  0.82540000(0)  0.86840000(0)  0.30300
 H14_24  H 1.0  0.17460000(0)  0.86840000(0)  0.91780000(0)  0.30300
 H14_25  H 1.0  0.91780000(0)  0.86840000(0)  0.82540000(0)  0.30300
 H14_26  H 1.0  0.82540000(0)  0.91780000(0)  0.86840000(0)  0.30300
 H14_27  H 1.0  0.86840000(0)  0.82540000(0)  0.91780000(0)  0.30300
 H14_28  H 1.0  0.91780000(0)  0.86840000(0)  0.17460000(0)  0.30300
 H14_29  H 1.0  0.82540000(0)  0.91780000(0)  0.13160000(0)  0.30300
 H14_30  H 1.0  0.86840000(0)  0.82540000(0)  0.08220000(0)  0.30300
 H14_31  H 1.0  0.08220000(0)  0.86840000(0)  0.82540000(0)  0.30300
 H14_32  H 1.0  0.17460000(0)  0.91780000(0)  0.86840000(0)  0.30300
 H14_33  H 1.0  0.13160000(0)  0.82540000(0)  0.91780000(0)  0.30300
 H14_34  H 1.0  0.08220000(0)  0.86840000(0)  0.17460000(0)  0.30300
 H14_35  H 1.0  0.17460000(0)  0.91780000(0)  0.13160000(0)  0.30300
 H14_36  H 1.0  0.13160000(0)  0.82540000(0)  0.08220000(0)  0.30300
 H14_37  H 1.0  0.86840000(0)  0.91780000(0)  0.82540000(0)  0.30300
 H14_38  H 1.0  0.91780000(0)  0.82540000(0)  0.86840000(0)  0.30300
 H14_39  H 1.0  0.82540000(0)  0.86840000(0)  0.91780000(0)  0.30300
 H14_40  H 1.0  0.86840000(0)  0.91780000(0)  0.17460000(0)  0.30300
 H14_41  H 1.0  0.91780000(0)  0.82540000(0)  0.13160000(0)  0.30300
 H14_42  H 1.0  0.82540000(0)  0.86840000(0)  0.08220000(0)  0.30300
 H14_43  H 1.0  0.86840000(0)  0.08220000(0)  0.82540000(0)  0.30300
 H14_44  H 1.0  0.91780000(0)  0.17460000(0)  0.86840000(0)  0.30300
 H14_45  H 1.0  0.82540000(0)  0.13160000(0)  0.91780000(0)  0.30300
 H14_46  H 1.0  0.86840000(0)  0.08220000(0)  0.17460000(0)  0.30300
 H14_47  H 1.0  0.91780000(0)  0.17460000(0)  0.13160000(0)  0.30300
 H14_48  H 1.0  0.82540000(0)  0.13160000(0)  0.08220000(0)  0.30300
 H14_49  H 1.0  0.08220000(0)  0.63160000(0)  0.67460000(0)  0.30300
 H14_50  H 1.0  0.58220000(0)  0.63160000(0)  0.17460000(0)  0.30300
 H14_51  H 1.0  0.58220000(0)  0.13160000(0)  0.67460000(0)  0.30300
 H14_52  H 1.0  0.17460000(0)  0.58220000(0)  0.63160000(0)  0.30300
 H14_53  H 1.0  0.67460000(0)  0.58220000(0)  0.13160000(0)  0.30300
 H14_54  H 1.0  0.67460000(0)  0.08220000(0)  0.63160000(0)  0.30300
 H14_55  H 1.0  0.13160000(0)  0.67460000(0)  0.58220000(0)  0.30300
 H14_56  H 1.0  0.63160000(0)  0.67460000(0)  0.08220000(0)  0.30300
 H14_57  H 1.0  0.63160000(0)  0.17460000(0)  0.58220000(0)  0.30300
 H14_58  H 1.0  0.08220000(0)  0.63160000(0)  0.32540000(0)  0.30300
 H14_59  H 1.0  0.58220000(0)  0.63160000(0)  0.82540000(0)  0.30300
 H14_60  H 1.0  0.58220000(0)  0.13160000(0)  0.32540000(0)  0.30300
 H14_61  H 1.0  0.17460000(0)  0.58220000(0)  0.36840000(0)  0.30300
 H14_62  H 1.0  0.67460000(0)  0.58220000(0)  0.86840000(0)  0.30300
 H14_63  H 1.0  0.67460000(0)  0.08220000(0)  0.36840000(0)  0.30300
 H14_64  H 1.0  0.13160000(0)  0.67460000(0)  0.41780000(0)  0.30300
 H14_65  H 1.0  0.63160000(0)  0.67460000(0)  0.91780000(0)  0.30300
 H14_66  H 1.0  0.63160000(0)  0.17460000(0)  0.41780000(0)  0.30300
 H14_67  H 1.0  0.91780000(0)  0.63160000(0)  0.67460000(0)  0.30300
 H14_68  H 1.0  0.41780000(0)  0.63160000(0)  0.17460000(0)  0.30300
 H14_69  H 1.0  0.41780000(0)  0.13160000(0)  0.67460000(0)  0.30300
 H14_70  H 1.0  0.82540000(0)  0.58220000(0)  0.63160000(0)  0.30300
 H14_71  H 1.0  0.32540000(0)  0.58220000(0)  0.13160000(0)  0.30300
 H14_72  H 1.0  0.32540000(0)  0.08220000(0)  0.63160000(0)  0.30300
 H14_73  H 1.0  0.86840000(0)  0.67460000(0)  0.58220000(0)  0.30300
 H14_74  H 1.0  0.36840000(0)  0.67460000(0)  0.08220000(0)  0.30300
 H14_75  H 1.0  0.36840000(0)  0.17460000(0)  0.58220000(0)  0.30300
 H14_76  H 1.0  0.91780000(0)  0.63160000(0)  0.32540000(0)  0.30300
 H14_77  H 1.0  0.41780000(0)  0.63160000(0)  0.82540000(0)  0.30300
 H14_78  H 1.0  0.41780000(0)  0.13160000(0)  0.32540000(0)  0.30300
 H14_79  H 1.0  0.82540000(0)  0.58220000(0)  0.36840000(0)  0.30300
 H14_80  H 1.0  0.32540000(0)  0.58220000(0)  0.86840000(0)  0.30300
 H14_81  H 1.0  0.32540000(0)  0.08220000(0)  0.36840000(0)  0.30300
 H14_82  H 1.0  0.86840000(0)  0.67460000(0)  0.41780000(0)  0.30300
 H14_83  H 1.0  0.36840000(0)  0.67460000(0)  0.91780000(0)  0.30300
 H14_84  H 1.0  0.36840000(0)  0.17460000(0)  0.41780000(0)  0.30300
 H14_85  H 1.0  0.13160000(0)  0.58220000(0)  0.67460000(0)  0.30300
 H14_86  H 1.0  0.63160000(0)  0.58220000(0)  0.17460000(0)  0.30300
 H14_87  H 1.0  0.63160000(0)  0.08220000(0)  0.67460000(0)  0.30300
 H14_88  H 1.0  0.08220000(0)  0.67460000(0)  0.63160000(0)  0.30300
 H14_89  H 1.0  0.58220000(0)  0.67460000(0)  0.13160000(0)  0.30300
 H14_90  H 1.0  0.58220000(0)  0.17460000(0)  0.63160000(0)  0.30300
 H14_91  H 1.0  0.17460000(0)  0.63160000(0)  0.58220000(0)  0.30300
 H14_92  H 1.0  0.67460000(0)  0.63160000(0)  0.08220000(0)  0.30300
 H14_93  H 1.0  0.67460000(0)  0.13160000(0)  0.58220000(0)  0.30300
 H14_94  H 1.0  0.13160000(0)  0.58220000(0)  0.32540000(0)  0.30300
 H14_95  H 1.0  0.63160000(0)  0.58220000(0)  0.82540000(0)  0.30300
 H14_96  H 1.0  0.63160000(0)  0.08220000(0)  0.32540000(0)  0.30300
 H14_97  H 1.0  0.08220000(0)  0.67460000(0)  0.36840000(0)  0.30300
 H14_98  H 1.0  0.58220000(0)  0.67460000(0)  0.86840000(0)  0.30300
 H14_99  H 1.0  0.58220000(0)  0.17460000(0)  0.36840000(0)  0.30300
 H14_100  H 1.0  0.17460000(0)  0.63160000(0)  0.41780000(0)  0.30300
 H14_101  H 1.0  0.67460000(0)  0.63160000(0)  0.91780000(0)  0.30300
 H14_102  H 1.0  0.67460000(0)  0.13160000(0)  0.41780000(0)  0.30300
 H14_103  H 1.0  0.13160000(0)  0.41780000(0)  0.67460000(0)  0.30300
 H14_104  H 1.0  0.63160000(0)  0.41780000(0)  0.17460000(0)  0.30300
 H14_105  H 1.0  0.63160000(0)  0.91780000(0)  0.67460000(0)  0.30300
 H14_106  H 1.0  0.08220000(0)  0.32540000(0)  0.63160000(0)  0.30300
 H14_107  H 1.0  0.58220000(0)  0.32540000(0)  0.13160000(0)  0.30300
 H14_108  H 1.0  0.58220000(0)  0.82540000(0)  0.63160000(0)  0.30300
 H14_109  H 1.0  0.17460000(0)  0.36840000(0)  0.58220000(0)  0.30300
 H14_110  H 1.0  0.67460000(0)  0.36840000(0)  0.08220000(0)  0.30300
 H14_111  H 1.0  0.67460000(0)  0.86840000(0)  0.58220000(0)  0.30300
 H14_112  H 1.0  0.13160000(0)  0.41780000(0)  0.32540000(0)  0.30300
 H14_113  H 1.0  0.63160000(0)  0.41780000(0)  0.82540000(0)  0.30300
 H14_114  H 1.0  0.63160000(0)  0.91780000(0)  0.32540000(0)  0.30300
 H14_115  H 1.0  0.08220000(0)  0.32540000(0)  0.36840000(0)  0.30300
 H14_116  H 1.0  0.58220000(0)  0.32540000(0)  0.86840000(0)  0.30300
 H14_117  H 1.0  0.58220000(0)  0.82540000(0)  0.36840000(0)  0.30300
 H14_118  H 1.0  0.17460000(0)  0.36840000(0)  0.41780000(0)  0.30300
 H14_119  H 1.0  0.67460000(0)  0.36840000(0)  0.91780000(0)  0.30300
 H14_120  H 1.0  0.67460000(0)  0.86840000(0)  0.41780000(0)  0.30300
 H14_121  H 1.0  0.91780000(0)  0.36840000(0)  0.32540000(0)  0.30300
 H14_122  H 1.0  0.41780000(0)  0.36840000(0)  0.82540000(0)  0.30300
 H14_123  H 1.0  0.41780000(0)  0.86840000(0)  0.32540000(0)  0.30300
 H14_124  H 1.0  0.82540000(0)  0.41780000(0)  0.36840000(0)  0.30300
 H14_125  H 1.0  0.32540000(0)  0.41780000(0)  0.86840000(0)  0.30300
 H14_126  H 1.0  0.32540000(0)  0.91780000(0)  0.36840000(0)  0.30300
 H14_127  H 1.0  0.86840000(0)  0.32540000(0)  0.41780000(0)  0.30300
 H14_128  H 1.0  0.36840000(0)  0.32540000(0)  0.91780000(0)  0.30300
 H14_129  H 1.0  0.36840000(0)  0.82540000(0)  0.41780000(0)  0.30300
 H14_130  H 1.0  0.91780000(0)  0.36840000(0)  0.67460000(0)  0.30300
 H14_131  H 1.0  0.41780000(0)  0.36840000(0)  0.17460000(0)  0.30300
 H14_132  H 1.0  0.41780000(0)  0.86840000(0)  0.67460000(0)  0.30300
 H14_133  H 1.0  0.82540000(0)  0.41780000(0)  0.63160000(0)  0.30300
 H14_134  H 1.0  0.32540000(0)  0.41780000(0)  0.13160000(0)  0.30300
 H14_135  H 1.0  0.32540000(0)  0.91780000(0)  0.63160000(0)  0.30300
 H14_136  H 1.0  0.86840000(0)  0.32540000(0)  0.58220000(0)  0.30300
 H14_137  H 1.0  0.36840000(0)  0.32540000(0)  0.08220000(0)  0.30300
 H14_138  H 1.0  0.36840000(0)  0.82540000(0)  0.58220000(0)  0.30300
 H14_139  H 1.0  0.08220000(0)  0.36840000(0)  0.32540000(0)  0.30300
 H14_140  H 1.0  0.58220000(0)  0.36840000(0)  0.82540000(0)  0.30300
 H14_141  H 1.0  0.58220000(0)  0.86840000(0)  0.32540000(0)  0.30300
 H14_142  H 1.0  0.17460000(0)  0.41780000(0)  0.36840000(0)  0.30300
 H14_143  H 1.0  0.67460000(0)  0.41780000(0)  0.86840000(0)  0.30300
 H14_144  H 1.0  0.67460000(0)  0.91780000(0)  0.36840000(0)  0.30300
 H14_145  H 1.0  0.13160000(0)  0.32540000(0)  0.41780000(0)  0.30300
 H14_146  H 1.0  0.63160000(0)  0.32540000(0)  0.91780000(0)  0.30300
 H14_147  H 1.0  0.63160000(0)  0.82540000(0)  0.41780000(0)  0.30300
 H14_148  H 1.0  0.08220000(0)  0.36840000(0)  0.67460000(0)  0.30300
 H14_149  H 1.0  0.58220000(0)  0.36840000(0)  0.17460000(0)  0.30300
 H14_150  H 1.0  0.58220000(0)  0.86840000(0)  0.67460000(0)  0.30300
 H14_151  H 1.0  0.17460000(0)  0.41780000(0)  0.63160000(0)  0.30300
 H14_152  H 1.0  0.67460000(0)  0.41780000(0)  0.13160000(0)  0.30300
 H14_153  H 1.0  0.67460000(0)  0.91780000(0)  0.63160000(0)  0.30300
 H14_154  H 1.0  0.13160000(0)  0.32540000(0)  0.58220000(0)  0.30300
 H14_155  H 1.0  0.63160000(0)  0.32540000(0)  0.08220000(0)  0.30300
 H14_156  H 1.0  0.63160000(0)  0.82540000(0)  0.58220000(0)  0.30300
 H14_157  H 1.0  0.86840000(0)  0.41780000(0)  0.32540000(0)  0.30300
 H14_158  H 1.0  0.36840000(0)  0.41780000(0)  0.82540000(0)  0.30300
 H14_159  H 1.0  0.36840000(0)  0.91780000(0)  0.32540000(0)  0.30300
 H14_160  H 1.0  0.91780000(0)  0.32540000(0)  0.36840000(0)  0.30300
 H14_161  H 1.0  0.41780000(0)  0.32540000(0)  0.86840000(0)  0.30300
 H14_162  H 1.0  0.41780000(0)  0.82540000(0)  0.36840000(0)  0.30300
 H14_163  H 1.0  0.82540000(0)  0.36840000(0)  0.41780000(0)  0.30300
 H14_164  H 1.0  0.32540000(0)  0.36840000(0)  0.91780000(0)  0.30300
 H14_165  H 1.0  0.32540000(0)  0.86840000(0)  0.41780000(0)  0.30300
 H14_166  H 1.0  0.86840000(0)  0.41780000(0)  0.67460000(0)  0.30300
 H14_167  H 1.0  0.36840000(0)  0.41780000(0)  0.17460000(0)  0.30300
 H14_168  H 1.0  0.36840000(0)  0.91780000(0)  0.67460000(0)  0.30300
 H14_169  H 1.0  0.91780000(0)  0.32540000(0)  0.63160000(0)  0.30300
 H14_170  H 1.0  0.41780000(0)  0.32540000(0)  0.13160000(0)  0.30300
 H14_171  H 1.0  0.41780000(0)  0.82540000(0)  0.63160000(0)  0.30300
 H14_172  H 1.0  0.82540000(0)  0.36840000(0)  0.58220000(0)  0.30300
 H14_173  H 1.0  0.32540000(0)  0.36840000(0)  0.08220000(0)  0.30300
 H14_174  H 1.0  0.32540000(0)  0.86840000(0)  0.58220000(0)  0.30300
 H14_175  H 1.0  0.86840000(0)  0.58220000(0)  0.32540000(0)  0.30300
 H14_176  H 1.0  0.36840000(0)  0.58220000(0)  0.82540000(0)  0.30300
 H14_177  H 1.0  0.36840000(0)  0.08220000(0)  0.32540000(0)  0.30300
 H14_178  H 1.0  0.91780000(0)  0.67460000(0)  0.36840000(0)  0.30300
 H14_179  H 1.0  0.41780000(0)  0.67460000(0)  0.86840000(0)  0.30300
 H14_180  H 1.0  0.41780000(0)  0.17460000(0)  0.36840000(0)  0.30300
 H14_181  H 1.0  0.82540000(0)  0.63160000(0)  0.41780000(0)  0.30300
 H14_182  H 1.0  0.32540000(0)  0.63160000(0)  0.91780000(0)  0.30300
 H14_183  H 1.0  0.32540000(0)  0.13160000(0)  0.41780000(0)  0.30300
 H14_184  H 1.0  0.86840000(0)  0.58220000(0)  0.67460000(0)  0.30300
 H14_185  H 1.0  0.36840000(0)  0.58220000(0)  0.17460000(0)  0.30300
 H14_186  H 1.0  0.36840000(0)  0.08220000(0)  0.67460000(0)  0.30300
 H14_187  H 1.0  0.91780000(0)  0.67460000(0)  0.63160000(0)  0.30300
 H14_188  H 1.0  0.41780000(0)  0.67460000(0)  0.13160000(0)  0.30300
 H14_189  H 1.0  0.41780000(0)  0.17460000(0)  0.63160000(0)  0.30300
 H14_190  H 1.0  0.82540000(0)  0.63160000(0)  0.58220000(0)  0.30300
 H14_191  H 1.0  0.32540000(0)  0.63160000(0)  0.08220000(0)  0.30300
 H14_192  H 1.0  0.32540000(0)  0.13160000(0)  0.58220000(0)  0.30300
 H17  H 1.0  0.09510000(0)  0.14640000(0)  0.14640000(0)  0.22900
 H17_2  H 1.0  0.14640000(0)  0.09510000(0)  0.14640000(0)  0.22900
 H17_3  H 1.0  0.14640000(0)  0.14640000(0)  0.09510000(0)  0.22900
 H17_4  H 1.0  0.09510000(0)  0.14640000(0)  0.85360000(0)  0.22900
 H17_5  H 1.0  0.14640000(0)  0.09510000(0)  0.85360000(0)  0.22900
 H17_6  H 1.0  0.14640000(0)  0.14640000(0)  0.90490000(0)  0.22900
 H17_7  H 1.0  0.90490000(0)  0.14640000(0)  0.14640000(0)  0.22900
 H17_8  H 1.0  0.85360000(0)  0.09510000(0)  0.14640000(0)  0.22900
 H17_9  H 1.0  0.85360000(0)  0.14640000(0)  0.09510000(0)  0.22900
 H17_10  H 1.0  0.90490000(0)  0.14640000(0)  0.85360000(0)  0.22900
 H17_11  H 1.0  0.85360000(0)  0.09510000(0)  0.85360000(0)  0.22900
 H17_12  H 1.0  0.85360000(0)  0.14640000(0)  0.90490000(0)  0.22900
 H17_13  H 1.0  0.14640000(0)  0.90490000(0)  0.14640000(0)  0.22900
 H17_14  H 1.0  0.09510000(0)  0.85360000(0)  0.14640000(0)  0.22900
 H17_15  H 1.0  0.14640000(0)  0.85360000(0)  0.09510000(0)  0.22900
 H17_16  H 1.0  0.14640000(0)  0.90490000(0)  0.85360000(0)  0.22900
 H17_17  H 1.0  0.09510000(0)  0.85360000(0)  0.85360000(0)  0.22900
 H17_18  H 1.0  0.14640000(0)  0.85360000(0)  0.90490000(0)  0.22900
 H17_19  H 1.0  0.90490000(0)  0.85360000(0)  0.85360000(0)  0.22900
 H17_20  H 1.0  0.85360000(0)  0.90490000(0)  0.85360000(0)  0.22900
 H17_21  H 1.0  0.85360000(0)  0.85360000(0)  0.90490000(0)  0.22900
 H17_22  H 1.0  0.90490000(0)  0.85360000(0)  0.14640000(0)  0.22900
 H17_23  H 1.0  0.85360000(0)  0.90490000(0)  0.14640000(0)  0.22900
 H17_24  H 1.0  0.85360000(0)  0.85360000(0)  0.09510000(0)  0.22900
 H17_25  H 1.0  0.09510000(0)  0.64640000(0)  0.64640000(0)  0.22900
 H17_26  H 1.0  0.59510000(0)  0.64640000(0)  0.14640000(0)  0.22900
 H17_27  H 1.0  0.59510000(0)  0.14640000(0)  0.64640000(0)  0.22900
 H17_28  H 1.0  0.14640000(0)  0.59510000(0)  0.64640000(0)  0.22900
 H17_29  H 1.0  0.64640000(0)  0.59510000(0)  0.14640000(0)  0.22900
 H17_30  H 1.0  0.64640000(0)  0.09510000(0)  0.64640000(0)  0.22900
 H17_31  H 1.0  0.14640000(0)  0.64640000(0)  0.59510000(0)  0.22900
 H17_32  H 1.0  0.64640000(0)  0.64640000(0)  0.09510000(0)  0.22900
 H17_33  H 1.0  0.64640000(0)  0.14640000(0)  0.59510000(0)  0.22900
 H17_34  H 1.0  0.09510000(0)  0.64640000(0)  0.35360000(0)  0.22900
 H17_35  H 1.0  0.59510000(0)  0.64640000(0)  0.85360000(0)  0.22900
 H17_36  H 1.0  0.59510000(0)  0.14640000(0)  0.35360000(0)  0.22900
 H17_37  H 1.0  0.14640000(0)  0.59510000(0)  0.35360000(0)  0.22900
 H17_38  H 1.0  0.64640000(0)  0.59510000(0)  0.85360000(0)  0.22900
 H17_39  H 1.0  0.64640000(0)  0.09510000(0)  0.35360000(0)  0.22900
 H17_40  H 1.0  0.14640000(0)  0.64640000(0)  0.40490000(0)  0.22900
 H17_41  H 1.0  0.64640000(0)  0.64640000(0)  0.90490000(0)  0.22900
 H17_42  H 1.0  0.64640000(0)  0.14640000(0)  0.40490000(0)  0.22900
 H17_43  H 1.0  0.90490000(0)  0.64640000(0)  0.64640000(0)  0.22900
 H17_44  H 1.0  0.40490000(0)  0.64640000(0)  0.14640000(0)  0.22900
 H17_45  H 1.0  0.40490000(0)  0.14640000(0)  0.64640000(0)  0.22900
 H17_46  H 1.0  0.85360000(0)  0.59510000(0)  0.64640000(0)  0.22900
 H17_47  H 1.0  0.35360000(0)  0.59510000(0)  0.14640000(0)  0.22900
 H17_48  H 1.0  0.35360000(0)  0.09510000(0)  0.64640000(0)  0.22900
 H17_49  H 1.0  0.85360000(0)  0.64640000(0)  0.59510000(0)  0.22900
 H17_50  H 1.0  0.35360000(0)  0.64640000(0)  0.09510000(0)  0.22900
 H17_51  H 1.0  0.35360000(0)  0.14640000(0)  0.59510000(0)  0.22900
 H17_52  H 1.0  0.90490000(0)  0.64640000(0)  0.35360000(0)  0.22900
 H17_53  H 1.0  0.40490000(0)  0.64640000(0)  0.85360000(0)  0.22900
 H17_54  H 1.0  0.40490000(0)  0.14640000(0)  0.35360000(0)  0.22900
 H17_55  H 1.0  0.85360000(0)  0.59510000(0)  0.35360000(0)  0.22900
 H17_56  H 1.0  0.35360000(0)  0.59510000(0)  0.85360000(0)  0.22900
 H17_57  H 1.0  0.35360000(0)  0.09510000(0)  0.35360000(0)  0.22900
 H17_58  H 1.0  0.85360000(0)  0.64640000(0)  0.40490000(0)  0.22900
 H17_59  H 1.0  0.35360000(0)  0.64640000(0)  0.90490000(0)  0.22900
 H17_60  H 1.0  0.35360000(0)  0.14640000(0)  0.40490000(0)  0.22900
 H17_61  H 1.0  0.14640000(0)  0.40490000(0)  0.64640000(0)  0.22900
 H17_62  H 1.0  0.64640000(0)  0.40490000(0)  0.14640000(0)  0.22900
 H17_63  H 1.0  0.64640000(0)  0.90490000(0)  0.64640000(0)  0.22900
 H17_64  H 1.0  0.09510000(0)  0.35360000(0)  0.64640000(0)  0.22900
 H17_65  H 1.0  0.59510000(0)  0.35360000(0)  0.14640000(0)  0.22900
 H17_66  H 1.0  0.59510000(0)  0.85360000(0)  0.64640000(0)  0.22900
 H17_67  H 1.0  0.14640000(0)  0.35360000(0)  0.59510000(0)  0.22900
 H17_68  H 1.0  0.64640000(0)  0.35360000(0)  0.09510000(0)  0.22900
 H17_69  H 1.0  0.64640000(0)  0.85360000(0)  0.59510000(0)  0.22900
 H17_70  H 1.0  0.14640000(0)  0.40490000(0)  0.35360000(0)  0.22900
 H17_71  H 1.0  0.64640000(0)  0.40490000(0)  0.85360000(0)  0.22900
 H17_72  H 1.0  0.64640000(0)  0.90490000(0)  0.35360000(0)  0.22900
 H17_73  H 1.0  0.09510000(0)  0.35360000(0)  0.35360000(0)  0.22900
 H17_74  H 1.0  0.59510000(0)  0.35360000(0)  0.85360000(0)  0.22900
 H17_75  H 1.0  0.59510000(0)  0.85360000(0)  0.35360000(0)  0.22900
 H17_76  H 1.0  0.14640000(0)  0.35360000(0)  0.40490000(0)  0.22900
 H17_77  H 1.0  0.64640000(0)  0.35360000(0)  0.90490000(0)  0.22900
 H17_78  H 1.0  0.64640000(0)  0.85360000(0)  0.40490000(0)  0.22900
 H17_79  H 1.0  0.90490000(0)  0.35360000(0)  0.35360000(0)  0.22900
 H17_80  H 1.0  0.40490000(0)  0.35360000(0)  0.85360000(0)  0.22900
 H17_81  H 1.0  0.40490000(0)  0.85360000(0)  0.35360000(0)  0.22900
 H17_82  H 1.0  0.85360000(0)  0.40490000(0)  0.35360000(0)  0.22900
 H17_83  H 1.0  0.35360000(0)  0.40490000(0)  0.85360000(0)  0.22900
 H17_84  H 1.0  0.35360000(0)  0.90490000(0)  0.35360000(0)  0.22900
 H17_85  H 1.0  0.85360000(0)  0.35360000(0)  0.40490000(0)  0.22900
 H17_86  H 1.0  0.35360000(0)  0.35360000(0)  0.90490000(0)  0.22900
 H17_87  H 1.0  0.35360000(0)  0.85360000(0)  0.40490000(0)  0.22900
 H17_88  H 1.0  0.90490000(0)  0.35360000(0)  0.64640000(0)  0.22900
 H17_89  H 1.0  0.40490000(0)  0.35360000(0)  0.14640000(0)  0.22900
 H17_90  H 1.0  0.40490000(0)  0.85360000(0)  0.64640000(0)  0.22900
 H17_91  H 1.0  0.85360000(0)  0.40490000(0)  0.64640000(0)  0.22900
 H17_92  H 1.0  0.35360000(0)  0.40490000(0)  0.14640000(0)  0.22900
 H17_93  H 1.0  0.35360000(0)  0.90490000(0)  0.64640000(0)  0.22900
 H17_94  H 1.0  0.85360000(0)  0.35360000(0)  0.59510000(0)  0.22900
 H17_95  H 1.0  0.35360000(0)  0.35360000(0)  0.09510000(0)  0.22900
 H17_96  H 1.0  0.35360000(0)  0.85360000(0)  0.59510000(0)  0.22900
 O3  O 1.0  0.02466000(8000)  0.11230000(8000)  0.35275000(7000)  0.09040
 O3_2  O 1.0  0.35275000(8000)  0.02466000(8000)  0.11230000(7000)  0.09040
 O3_3  O 1.0  0.11230000(8000)  0.35275000(8000)  0.02466000(7000)  0.09040
 O3_4  O 1.0  0.02466000(8000)  0.11230000(8000)  0.64725000(7000)  0.09040
 O3_5  O 1.0  0.35275000(8000)  0.02466000(8000)  0.88770000(7000)  0.09040
 O3_6  O 1.0  0.11230000(8000)  0.35275000(8000)  0.97534000(7000)  0.09040
 O3_7  O 1.0  0.97534000(8000)  0.11230000(8000)  0.35275000(7000)  0.09040
 O3_8  O 1.0  0.64725000(8000)  0.02466000(8000)  0.11230000(7000)  0.09040
 O3_9  O 1.0  0.88770000(8000)  0.35275000(8000)  0.02466000(7000)  0.09040
 O3_10  O 1.0  0.97534000(8000)  0.11230000(8000)  0.64725000(7000)  0.09040
 O3_11  O 1.0  0.64725000(8000)  0.02466000(8000)  0.88770000(7000)  0.09040
 O3_12  O 1.0  0.88770000(8000)  0.35275000(8000)  0.97534000(7000)  0.09040
 O3_13  O 1.0  0.11230000(8000)  0.02466000(8000)  0.35275000(7000)  0.09040
 O3_14  O 1.0  0.02466000(8000)  0.35275000(8000)  0.11230000(7000)  0.09040
 O3_15  O 1.0  0.35275000(8000)  0.11230000(8000)  0.02466000(7000)  0.09040
 O3_16  O 1.0  0.11230000(8000)  0.02466000(8000)  0.64725000(7000)  0.09040
 O3_17  O 1.0  0.02466000(8000)  0.35275000(8000)  0.88770000(7000)  0.09040
 O3_18  O 1.0  0.35275000(8000)  0.11230000(8000)  0.97534000(7000)  0.09040
 O3_19  O 1.0  0.11230000(8000)  0.97534000(8000)  0.35275000(7000)  0.09040
 O3_20  O 1.0  0.02466000(8000)  0.64725000(8000)  0.11230000(7000)  0.09040
 O3_21  O 1.0  0.35275000(8000)  0.88770000(8000)  0.02466000(7000)  0.09040
 O3_22  O 1.0  0.11230000(8000)  0.97534000(8000)  0.64725000(7000)  0.09040
 O3_23  O 1.0  0.02466000(8000)  0.64725000(8000)  0.88770000(7000)  0.09040
 O3_24  O 1.0  0.35275000(8000)  0.88770000(8000)  0.97534000(7000)  0.09040
 O3_25  O 1.0  0.97534000(8000)  0.88770000(8000)  0.64725000(7000)  0.09040
 O3_26  O 1.0  0.64725000(8000)  0.97534000(8000)  0.88770000(7000)  0.09040
 O3_27  O 1.0  0.88770000(8000)  0.64725000(8000)  0.97534000(7000)  0.09040
 O3_28  O 1.0  0.97534000(8000)  0.88770000(8000)  0.35275000(7000)  0.09040
 O3_29  O 1.0  0.64725000(8000)  0.97534000(8000)  0.11230000(7000)  0.09040
 O3_30  O 1.0  0.88770000(8000)  0.64725000(8000)  0.02466000(7000)  0.09040
 O3_31  O 1.0  0.02466000(8000)  0.88770000(8000)  0.64725000(7000)  0.09040
 O3_32  O 1.0  0.35275000(8000)  0.97534000(8000)  0.88770000(7000)  0.09040
 O3_33  O 1.0  0.11230000(8000)  0.64725000(8000)  0.97534000(7000)  0.09040
 O3_34  O 1.0  0.02466000(8000)  0.88770000(8000)  0.35275000(7000)  0.09040
 O3_35  O 1.0  0.35275000(8000)  0.97534000(8000)  0.11230000(7000)  0.09040
 O3_36  O 1.0  0.11230000(8000)  0.64725000(8000)  0.02466000(7000)  0.09040
 O3_37  O 1.0  0.88770000(8000)  0.97534000(8000)  0.64725000(7000)  0.09040
 O3_38  O 1.0  0.97534000(8000)  0.64725000(8000)  0.88770000(7000)  0.09040
 O3_39  O 1.0  0.64725000(8000)  0.88770000(8000)  0.97534000(7000)  0.09040
 O3_40  O 1.0  0.88770000(8000)  0.97534000(8000)  0.35275000(7000)  0.09040
 O3_41  O 1.0  0.97534000(8000)  0.64725000(8000)  0.11230000(7000)  0.09040
 O3_42  O 1.0  0.64725000(8000)  0.88770000(8000)  0.02466000(7000)  0.09040
 O3_43  O 1.0  0.88770000(8000)  0.02466000(8000)  0.64725000(7000)  0.09040
 O3_44  O 1.0  0.97534000(8000)  0.35275000(8000)  0.88770000(7000)  0.09040
 O3_45  O 1.0  0.64725000(8000)  0.11230000(8000)  0.97534000(7000)  0.09040
 O3_46  O 1.0  0.88770000(8000)  0.02466000(8000)  0.35275000(7000)  0.09040
 O3_47  O 1.0  0.97534000(8000)  0.35275000(8000)  0.11230000(7000)  0.09040
 O3_48  O 1.0  0.64725000(8000)  0.11230000(8000)  0.02466000(7000)  0.09040
 O3_49  O 1.0  0.02466000(8000)  0.61230000(8000)  0.85275000(7000)  0.09040
 O3_50  O 1.0  0.52466000(8000)  0.61230000(8000)  0.35275000(7000)  0.09040
 O3_51  O 1.0  0.52466000(8000)  0.11230000(8000)  0.85275000(7000)  0.09040
 O3_52  O 1.0  0.35275000(8000)  0.52466000(8000)  0.61230000(7000)  0.09040
 O3_53  O 1.0  0.85275000(8000)  0.52466000(8000)  0.11230000(7000)  0.09040
 O3_54  O 1.0  0.85275000(8000)  0.02466000(8000)  0.61230000(7000)  0.09040
 O3_55  O 1.0  0.11230000(8000)  0.85275000(8000)  0.52466000(7000)  0.09040
 O3_56  O 1.0  0.61230000(8000)  0.85275000(8000)  0.02466000(7000)  0.09040
 O3_57  O 1.0  0.61230000(8000)  0.35275000(8000)  0.52466000(7000)  0.09040
 O3_58  O 1.0  0.02466000(8000)  0.61230000(8000)  0.14725000(7000)  0.09040
 O3_59  O 1.0  0.52466000(8000)  0.61230000(8000)  0.64725000(7000)  0.09040
 O3_60  O 1.0  0.52466000(8000)  0.11230000(8000)  0.14725000(7000)  0.09040
 O3_61  O 1.0  0.35275000(8000)  0.52466000(8000)  0.38770000(7000)  0.09040
 O3_62  O 1.0  0.85275000(8000)  0.52466000(8000)  0.88770000(7000)  0.09040
 O3_63  O 1.0  0.85275000(8000)  0.02466000(8000)  0.38770000(7000)  0.09040
 O3_64  O 1.0  0.11230000(8000)  0.85275000(8000)  0.47534000(7000)  0.09040
 O3_65  O 1.0  0.61230000(8000)  0.85275000(8000)  0.97534000(7000)  0.09040
 O3_66  O 1.0  0.61230000(8000)  0.35275000(8000)  0.47534000(7000)  0.09040
 O3_67  O 1.0  0.97534000(8000)  0.61230000(8000)  0.85275000(7000)  0.09040
 O3_68  O 1.0  0.47534000(8000)  0.61230000(8000)  0.35275000(7000)  0.09040
 O3_69  O 1.0  0.47534000(8000)  0.11230000(8000)  0.85275000(7000)  0.09040
 O3_70  O 1.0  0.64725000(8000)  0.52466000(8000)  0.61230000(7000)  0.09040
 O3_71  O 1.0  0.14725000(8000)  0.52466000(8000)  0.11230000(7000)  0.09040
 O3_72  O 1.0  0.14725000(8000)  0.02466000(8000)  0.61230000(7000)  0.09040
 O3_73  O 1.0  0.88770000(8000)  0.85275000(8000)  0.52466000(7000)  0.09040
 O3_74  O 1.0  0.38770000(8000)  0.85275000(8000)  0.02466000(7000)  0.09040
 O3_75  O 1.0  0.38770000(8000)  0.35275000(8000)  0.52466000(7000)  0.09040
 O3_76  O 1.0  0.97534000(8000)  0.61230000(8000)  0.14725000(7000)  0.09040
 O3_77  O 1.0  0.47534000(8000)  0.61230000(8000)  0.64725000(7000)  0.09040
 O3_78  O 1.0  0.47534000(8000)  0.11230000(8000)  0.14725000(7000)  0.09040
 O3_79  O 1.0  0.64725000(8000)  0.52466000(8000)  0.38770000(7000)  0.09040
 O3_80  O 1.0  0.14725000(8000)  0.52466000(8000)  0.88770000(7000)  0.09040
 O3_81  O 1.0  0.14725000(8000)  0.02466000(8000)  0.38770000(7000)  0.09040
 O3_82  O 1.0  0.88770000(8000)  0.85275000(8000)  0.47534000(7000)  0.09040
 O3_83  O 1.0  0.38770000(8000)  0.85275000(8000)  0.97534000(7000)  0.09040
 O3_84  O 1.0  0.38770000(8000)  0.35275000(8000)  0.47534000(7000)  0.09040
 O3_85  O 1.0  0.11230000(8000)  0.52466000(8000)  0.85275000(7000)  0.09040
 O3_86  O 1.0  0.61230000(8000)  0.52466000(8000)  0.35275000(7000)  0.09040
 O3_87  O 1.0  0.61230000(8000)  0.02466000(8000)  0.85275000(7000)  0.09040
 O3_88  O 1.0  0.02466000(8000)  0.85275000(8000)  0.61230000(7000)  0.09040
 O3_89  O 1.0  0.52466000(8000)  0.85275000(8000)  0.11230000(7000)  0.09040
 O3_90  O 1.0  0.52466000(8000)  0.35275000(8000)  0.61230000(7000)  0.09040
 O3_91  O 1.0  0.35275000(8000)  0.61230000(8000)  0.52466000(7000)  0.09040
 O3_92  O 1.0  0.85275000(8000)  0.61230000(8000)  0.02466000(7000)  0.09040
 O3_93  O 1.0  0.85275000(8000)  0.11230000(8000)  0.52466000(7000)  0.09040
 O3_94  O 1.0  0.11230000(8000)  0.52466000(8000)  0.14725000(7000)  0.09040
 O3_95  O 1.0  0.61230000(8000)  0.52466000(8000)  0.64725000(7000)  0.09040
 O3_96  O 1.0  0.61230000(8000)  0.02466000(8000)  0.14725000(7000)  0.09040
 O3_97  O 1.0  0.02466000(8000)  0.85275000(8000)  0.38770000(7000)  0.09040
 O3_98  O 1.0  0.52466000(8000)  0.85275000(8000)  0.88770000(7000)  0.09040
 O3_99  O 1.0  0.52466000(8000)  0.35275000(8000)  0.38770000(7000)  0.09040
 O3_100  O 1.0  0.35275000(8000)  0.61230000(8000)  0.47534000(7000)  0.09040
 O3_101  O 1.0  0.85275000(8000)  0.61230000(8000)  0.97534000(7000)  0.09040
 O3_102  O 1.0  0.85275000(8000)  0.11230000(8000)  0.47534000(7000)  0.09040
 O3_103  O 1.0  0.11230000(8000)  0.47534000(8000)  0.85275000(7000)  0.09040
 O3_104  O 1.0  0.61230000(8000)  0.47534000(8000)  0.35275000(7000)  0.09040
 O3_105  O 1.0  0.61230000(8000)  0.97534000(8000)  0.85275000(7000)  0.09040
 O3_106  O 1.0  0.02466000(8000)  0.14725000(8000)  0.61230000(7000)  0.09040
 O3_107  O 1.0  0.52466000(8000)  0.14725000(8000)  0.11230000(7000)  0.09040
 O3_108  O 1.0  0.52466000(8000)  0.64725000(8000)  0.61230000(7000)  0.09040
 O3_109  O 1.0  0.35275000(8000)  0.38770000(8000)  0.52466000(7000)  0.09040
 O3_110  O 1.0  0.85275000(8000)  0.38770000(8000)  0.02466000(7000)  0.09040
 O3_111  O 1.0  0.85275000(8000)  0.88770000(8000)  0.52466000(7000)  0.09040
 O3_112  O 1.0  0.11230000(8000)  0.47534000(8000)  0.14725000(7000)  0.09040
 O3_113  O 1.0  0.61230000(8000)  0.47534000(8000)  0.64725000(7000)  0.09040
 O3_114  O 1.0  0.61230000(8000)  0.97534000(8000)  0.14725000(7000)  0.09040
 O3_115  O 1.0  0.02466000(8000)  0.14725000(8000)  0.38770000(7000)  0.09040
 O3_116  O 1.0  0.52466000(8000)  0.14725000(8000)  0.88770000(7000)  0.09040
 O3_117  O 1.0  0.52466000(8000)  0.64725000(8000)  0.38770000(7000)  0.09040
 O3_118  O 1.0  0.35275000(8000)  0.38770000(8000)  0.47534000(7000)  0.09040
 O3_119  O 1.0  0.85275000(8000)  0.38770000(8000)  0.97534000(7000)  0.09040
 O3_120  O 1.0  0.85275000(8000)  0.88770000(8000)  0.47534000(7000)  0.09040
 O3_121  O 1.0  0.97534000(8000)  0.38770000(8000)  0.14725000(7000)  0.09040
 O3_122  O 1.0  0.47534000(8000)  0.38770000(8000)  0.64725000(7000)  0.09040
 O3_123  O 1.0  0.47534000(8000)  0.88770000(8000)  0.14725000(7000)  0.09040
 O3_124  O 1.0  0.64725000(8000)  0.47534000(8000)  0.38770000(7000)  0.09040
 O3_125  O 1.0  0.14725000(8000)  0.47534000(8000)  0.88770000(7000)  0.09040
 O3_126  O 1.0  0.14725000(8000)  0.97534000(8000)  0.38770000(7000)  0.09040
 O3_127  O 1.0  0.88770000(8000)  0.14725000(8000)  0.47534000(7000)  0.09040
 O3_128  O 1.0  0.38770000(8000)  0.14725000(8000)  0.97534000(7000)  0.09040
 O3_129  O 1.0  0.38770000(8000)  0.64725000(8000)  0.47534000(7000)  0.09040
 O3_130  O 1.0  0.97534000(8000)  0.38770000(8000)  0.85275000(7000)  0.09040
 O3_131  O 1.0  0.47534000(8000)  0.38770000(8000)  0.35275000(7000)  0.09040
 O3_132  O 1.0  0.47534000(8000)  0.88770000(8000)  0.85275000(7000)  0.09040
 O3_133  O 1.0  0.64725000(8000)  0.47534000(8000)  0.61230000(7000)  0.09040
 O3_134  O 1.0  0.14725000(8000)  0.47534000(8000)  0.11230000(7000)  0.09040
 O3_135  O 1.0  0.14725000(8000)  0.97534000(8000)  0.61230000(7000)  0.09040
 O3_136  O 1.0  0.88770000(8000)  0.14725000(8000)  0.52466000(7000)  0.09040
 O3_137  O 1.0  0.38770000(8000)  0.14725000(8000)  0.02466000(7000)  0.09040
 O3_138  O 1.0  0.38770000(8000)  0.64725000(8000)  0.52466000(7000)  0.09040
 O3_139  O 1.0  0.02466000(8000)  0.38770000(8000)  0.14725000(7000)  0.09040
 O3_140  O 1.0  0.52466000(8000)  0.38770000(8000)  0.64725000(7000)  0.09040
 O3_141  O 1.0  0.52466000(8000)  0.88770000(8000)  0.14725000(7000)  0.09040
 O3_142  O 1.0  0.35275000(8000)  0.47534000(8000)  0.38770000(7000)  0.09040
 O3_143  O 1.0  0.85275000(8000)  0.47534000(8000)  0.88770000(7000)  0.09040
 O3_144  O 1.0  0.85275000(8000)  0.97534000(8000)  0.38770000(7000)  0.09040
 O3_145  O 1.0  0.11230000(8000)  0.14725000(8000)  0.47534000(7000)  0.09040
 O3_146  O 1.0  0.61230000(8000)  0.14725000(8000)  0.97534000(7000)  0.09040
 O3_147  O 1.0  0.61230000(8000)  0.64725000(8000)  0.47534000(7000)  0.09040
 O3_148  O 1.0  0.02466000(8000)  0.38770000(8000)  0.85275000(7000)  0.09040
 O3_149  O 1.0  0.52466000(8000)  0.38770000(8000)  0.35275000(7000)  0.09040
 O3_150  O 1.0  0.52466000(8000)  0.88770000(8000)  0.85275000(7000)  0.09040
 O3_151  O 1.0  0.35275000(8000)  0.47534000(8000)  0.61230000(7000)  0.09040
 O3_152  O 1.0  0.85275000(8000)  0.47534000(8000)  0.11230000(7000)  0.09040
 O3_153  O 1.0  0.85275000(8000)  0.97534000(8000)  0.61230000(7000)  0.09040
 O3_154  O 1.0  0.11230000(8000)  0.14725000(8000)  0.52466000(7000)  0.09040
 O3_155  O 1.0  0.61230000(8000)  0.14725000(8000)  0.02466000(7000)  0.09040
 O3_156  O 1.0  0.61230000(8000)  0.64725000(8000)  0.52466000(7000)  0.09040
 O3_157  O 1.0  0.88770000(8000)  0.47534000(8000)  0.14725000(7000)  0.09040
 O3_158  O 1.0  0.38770000(8000)  0.47534000(8000)  0.64725000(7000)  0.09040
 O3_159  O 1.0  0.38770000(8000)  0.97534000(8000)  0.14725000(7000)  0.09040
 O3_160  O 1.0  0.97534000(8000)  0.14725000(8000)  0.38770000(7000)  0.09040
 O3_161  O 1.0  0.47534000(8000)  0.14725000(8000)  0.88770000(7000)  0.09040
 O3_162  O 1.0  0.47534000(8000)  0.64725000(8000)  0.38770000(7000)  0.09040
 O3_163  O 1.0  0.64725000(8000)  0.38770000(8000)  0.47534000(7000)  0.09040
 O3_164  O 1.0  0.14725000(8000)  0.38770000(8000)  0.97534000(7000)  0.09040
 O3_165  O 1.0  0.14725000(8000)  0.88770000(8000)  0.47534000(7000)  0.09040
 O3_166  O 1.0  0.88770000(8000)  0.47534000(8000)  0.85275000(7000)  0.09040
 O3_167  O 1.0  0.38770000(8000)  0.47534000(8000)  0.35275000(7000)  0.09040
 O3_168  O 1.0  0.38770000(8000)  0.97534000(8000)  0.85275000(7000)  0.09040
 O3_169  O 1.0  0.97534000(8000)  0.14725000(8000)  0.61230000(7000)  0.09040
 O3_170  O 1.0  0.47534000(8000)  0.14725000(8000)  0.11230000(7000)  0.09040
 O3_171  O 1.0  0.47534000(8000)  0.64725000(8000)  0.61230000(7000)  0.09040
 O3_172  O 1.0  0.64725000(8000)  0.38770000(8000)  0.52466000(7000)  0.09040
 O3_173  O 1.0  0.14725000(8000)  0.38770000(8000)  0.02466000(7000)  0.09040
 O3_174  O 1.0  0.14725000(8000)  0.88770000(8000)  0.52466000(7000)  0.09040
 O3_175  O 1.0  0.88770000(8000)  0.52466000(8000)  0.14725000(7000)  0.09040
 O3_176  O 1.0  0.38770000(8000)  0.52466000(8000)  0.64725000(7000)  0.09040
 O3_177  O 1.0  0.38770000(8000)  0.02466000(8000)  0.14725000(7000)  0.09040
 O3_178  O 1.0  0.97534000(8000)  0.85275000(8000)  0.38770000(7000)  0.09040
 O3_179  O 1.0  0.47534000(8000)  0.85275000(8000)  0.88770000(7000)  0.09040
 O3_180  O 1.0  0.47534000(8000)  0.35275000(8000)  0.38770000(7000)  0.09040
 O3_181  O 1.0  0.64725000(8000)  0.61230000(8000)  0.47534000(7000)  0.09040
 O3_182  O 1.0  0.14725000(8000)  0.61230000(8000)  0.97534000(7000)  0.09040
 O3_183  O 1.0  0.14725000(8000)  0.11230000(8000)  0.47534000(7000)  0.09040
 O3_184  O 1.0  0.88770000(8000)  0.52466000(8000)  0.85275000(7000)  0.09040
 O3_185  O 1.0  0.38770000(8000)  0.52466000(8000)  0.35275000(7000)  0.09040
 O3_186  O 1.0  0.38770000(8000)  0.02466000(8000)  0.85275000(7000)  0.09040
 O3_187  O 1.0  0.97534000(8000)  0.85275000(8000)  0.61230000(7000)  0.09040
 O3_188  O 1.0  0.47534000(8000)  0.85275000(8000)  0.11230000(7000)  0.09040
 O3_189  O 1.0  0.47534000(8000)  0.35275000(8000)  0.61230000(7000)  0.09040
 O3_190  O 1.0  0.64725000(8000)  0.61230000(8000)  0.52466000(7000)  0.09040
 O3_191  O 1.0  0.14725000(8000)  0.61230000(8000)  0.02466000(7000)  0.09040
 O3_192  O 1.0  0.14725000(8000)  0.11230000(8000)  0.52466000(7000)  0.09040
 O4  O 1.0  0.02395000(7000)  0.08470000(7000)  0.38088000(7000)  0.08590
 O4_2  O 1.0  0.38088000(7000)  0.02395000(7000)  0.08470000(7000)  0.08590
 O4_3  O 1.0  0.08470000(7000)  0.38088000(7000)  0.02395000(7000)  0.08590
 O4_4  O 1.0  0.02395000(7000)  0.08470000(7000)  0.61912000(7000)  0.08590
 O4_5  O 1.0  0.38088000(7000)  0.02395000(7000)  0.91530000(7000)  0.08590
 O4_6  O 1.0  0.08470000(7000)  0.38088000(7000)  0.97605000(7000)  0.08590
 O4_7  O 1.0  0.97605000(7000)  0.08470000(7000)  0.38088000(7000)  0.08590
 O4_8  O 1.0  0.61912000(7000)  0.02395000(7000)  0.08470000(7000)  0.08590
 O4_9  O 1.0  0.91530000(7000)  0.38088000(7000)  0.02395000(7000)  0.08590
 O4_10  O 1.0  0.97605000(7000)  0.08470000(7000)  0.61912000(7000)  0.08590
 O4_11  O 1.0  0.61912000(7000)  0.02395000(7000)  0.91530000(7000)  0.08590
 O4_12  O 1.0  0.91530000(7000)  0.38088000(7000)  0.97605000(7000)  0.08590
 O4_13  O 1.0  0.08470000(7000)  0.02395000(7000)  0.38088000(7000)  0.08590
 O4_14  O 1.0  0.02395000(7000)  0.38088000(7000)  0.08470000(7000)  0.08590
 O4_15  O 1.0  0.38088000(7000)  0.08470000(7000)  0.02395000(7000)  0.08590
 O4_16  O 1.0  0.08470000(7000)  0.02395000(7000)  0.61912000(7000)  0.08590
 O4_17  O 1.0  0.02395000(7000)  0.38088000(7000)  0.91530000(7000)  0.08590
 O4_18  O 1.0  0.38088000(7000)  0.08470000(7000)  0.97605000(7000)  0.08590
 O4_19  O 1.0  0.08470000(7000)  0.97605000(7000)  0.38088000(7000)  0.08590
 O4_20  O 1.0  0.02395000(7000)  0.61912000(7000)  0.08470000(7000)  0.08590
 O4_21  O 1.0  0.38088000(7000)  0.91530000(7000)  0.02395000(7000)  0.08590
 O4_22  O 1.0  0.08470000(7000)  0.97605000(7000)  0.61912000(7000)  0.08590
 O4_23  O 1.0  0.02395000(7000)  0.61912000(7000)  0.91530000(7000)  0.08590
 O4_24  O 1.0  0.38088000(7000)  0.91530000(7000)  0.97605000(7000)  0.08590
 O4_25  O 1.0  0.97605000(7000)  0.91530000(7000)  0.61912000(7000)  0.08590
 O4_26  O 1.0  0.61912000(7000)  0.97605000(7000)  0.91530000(7000)  0.08590
 O4_27  O 1.0  0.91530000(7000)  0.61912000(7000)  0.97605000(7000)  0.08590
 O4_28  O 1.0  0.97605000(7000)  0.91530000(7000)  0.38088000(7000)  0.08590
 O4_29  O 1.0  0.61912000(7000)  0.97605000(7000)  0.08470000(7000)  0.08590
 O4_30  O 1.0  0.91530000(7000)  0.61912000(7000)  0.02395000(7000)  0.08590
 O4_31  O 1.0  0.02395000(7000)  0.91530000(7000)  0.61912000(7000)  0.08590
 O4_32  O 1.0  0.38088000(7000)  0.97605000(7000)  0.91530000(7000)  0.08590
 O4_33  O 1.0  0.08470000(7000)  0.61912000(7000)  0.97605000(7000)  0.08590
 O4_34  O 1.0  0.02395000(7000)  0.91530000(7000)  0.38088000(7000)  0.08590
 O4_35  O 1.0  0.38088000(7000)  0.97605000(7000)  0.08470000(7000)  0.08590
 O4_36  O 1.0  0.08470000(7000)  0.61912000(7000)  0.02395000(7000)  0.08590
 O4_37  O 1.0  0.91530000(7000)  0.97605000(7000)  0.61912000(7000)  0.08590
 O4_38  O 1.0  0.97605000(7000)  0.61912000(7000)  0.91530000(7000)  0.08590
 O4_39  O 1.0  0.61912000(7000)  0.91530000(7000)  0.97605000(7000)  0.08590
 O4_40  O 1.0  0.91530000(7000)  0.97605000(7000)  0.38088000(7000)  0.08590
 O4_41  O 1.0  0.97605000(7000)  0.61912000(7000)  0.08470000(7000)  0.08590
 O4_42  O 1.0  0.61912000(7000)  0.91530000(7000)  0.02395000(7000)  0.08590
 O4_43  O 1.0  0.91530000(7000)  0.02395000(7000)  0.61912000(7000)  0.08590
 O4_44  O 1.0  0.97605000(7000)  0.38088000(7000)  0.91530000(7000)  0.08590
 O4_45  O 1.0  0.61912000(7000)  0.08470000(7000)  0.97605000(7000)  0.08590
 O4_46  O 1.0  0.91530000(7000)  0.02395000(7000)  0.38088000(7000)  0.08590
 O4_47  O 1.0  0.97605000(7000)  0.38088000(7000)  0.08470000(7000)  0.08590
 O4_48  O 1.0  0.61912000(7000)  0.08470000(7000)  0.02395000(7000)  0.08590
 O4_49  O 1.0  0.02395000(7000)  0.58470000(7000)  0.88088000(7000)  0.08590
 O4_50  O 1.0  0.52395000(7000)  0.58470000(7000)  0.38088000(7000)  0.08590
 O4_51  O 1.0  0.52395000(7000)  0.08470000(7000)  0.88088000(7000)  0.08590
 O4_52  O 1.0  0.38088000(7000)  0.52395000(7000)  0.58470000(7000)  0.08590
 O4_53  O 1.0  0.88088000(7000)  0.52395000(7000)  0.08470000(7000)  0.08590
 O4_54  O 1.0  0.88088000(7000)  0.02395000(7000)  0.58470000(7000)  0.08590
 O4_55  O 1.0  0.08470000(7000)  0.88088000(7000)  0.52395000(7000)  0.08590
 O4_56  O 1.0  0.58470000(7000)  0.88088000(7000)  0.02395000(7000)  0.08590
 O4_57  O 1.0  0.58470000(7000)  0.38088000(7000)  0.52395000(7000)  0.08590
 O4_58  O 1.0  0.02395000(7000)  0.58470000(7000)  0.11912000(7000)  0.08590
 O4_59  O 1.0  0.52395000(7000)  0.58470000(7000)  0.61912000(7000)  0.08590
 O4_60  O 1.0  0.52395000(7000)  0.08470000(7000)  0.11912000(7000)  0.08590
 O4_61  O 1.0  0.38088000(7000)  0.52395000(7000)  0.41530000(7000)  0.08590
 O4_62  O 1.0  0.88088000(7000)  0.52395000(7000)  0.91530000(7000)  0.08590
 O4_63  O 1.0  0.88088000(7000)  0.02395000(7000)  0.41530000(7000)  0.08590
 O4_64  O 1.0  0.08470000(7000)  0.88088000(7000)  0.47605000(7000)  0.08590
 O4_65  O 1.0  0.58470000(7000)  0.88088000(7000)  0.97605000(7000)  0.08590
 O4_66  O 1.0  0.58470000(7000)  0.38088000(7000)  0.47605000(7000)  0.08590
 O4_67  O 1.0  0.97605000(7000)  0.58470000(7000)  0.88088000(7000)  0.08590
 O4_68  O 1.0  0.47605000(7000)  0.58470000(7000)  0.38088000(7000)  0.08590
 O4_69  O 1.0  0.47605000(7000)  0.08470000(7000)  0.88088000(7000)  0.08590
 O4_70  O 1.0  0.61912000(7000)  0.52395000(7000)  0.58470000(7000)  0.08590
 O4_71  O 1.0  0.11912000(7000)  0.52395000(7000)  0.08470000(7000)  0.08590
 O4_72  O 1.0  0.11912000(7000)  0.02395000(7000)  0.58470000(7000)  0.08590
 O4_73  O 1.0  0.91530000(7000)  0.88088000(7000)  0.52395000(7000)  0.08590
 O4_74  O 1.0  0.41530000(7000)  0.88088000(7000)  0.02395000(7000)  0.08590
 O4_75  O 1.0  0.41530000(7000)  0.38088000(7000)  0.52395000(7000)  0.08590
 O4_76  O 1.0  0.97605000(7000)  0.58470000(7000)  0.11912000(7000)  0.08590
 O4_77  O 1.0  0.47605000(7000)  0.58470000(7000)  0.61912000(7000)  0.08590
 O4_78  O 1.0  0.47605000(7000)  0.08470000(7000)  0.11912000(7000)  0.08590
 O4_79  O 1.0  0.61912000(7000)  0.52395000(7000)  0.41530000(7000)  0.08590
 O4_80  O 1.0  0.11912000(7000)  0.52395000(7000)  0.91530000(7000)  0.08590
 O4_81  O 1.0  0.11912000(7000)  0.02395000(7000)  0.41530000(7000)  0.08590
 O4_82  O 1.0  0.91530000(7000)  0.88088000(7000)  0.47605000(7000)  0.08590
 O4_83  O 1.0  0.41530000(7000)  0.88088000(7000)  0.97605000(7000)  0.08590
 O4_84  O 1.0  0.41530000(7000)  0.38088000(7000)  0.47605000(7000)  0.08590
 O4_85  O 1.0  0.08470000(7000)  0.52395000(7000)  0.88088000(7000)  0.08590
 O4_86  O 1.0  0.58470000(7000)  0.52395000(7000)  0.38088000(7000)  0.08590
 O4_87  O 1.0  0.58470000(7000)  0.02395000(7000)  0.88088000(7000)  0.08590
 O4_88  O 1.0  0.02395000(7000)  0.88088000(7000)  0.58470000(7000)  0.08590
 O4_89  O 1.0  0.52395000(7000)  0.88088000(7000)  0.08470000(7000)  0.08590
 O4_90  O 1.0  0.52395000(7000)  0.38088000(7000)  0.58470000(7000)  0.08590
 O4_91  O 1.0  0.38088000(7000)  0.58470000(7000)  0.52395000(7000)  0.08590
 O4_92  O 1.0  0.88088000(7000)  0.58470000(7000)  0.02395000(7000)  0.08590
 O4_93  O 1.0  0.88088000(7000)  0.08470000(7000)  0.52395000(7000)  0.08590
 O4_94  O 1.0  0.08470000(7000)  0.52395000(7000)  0.11912000(7000)  0.08590
 O4_95  O 1.0  0.58470000(7000)  0.52395000(7000)  0.61912000(7000)  0.08590
 O4_96  O 1.0  0.58470000(7000)  0.02395000(7000)  0.11912000(7000)  0.08590
 O4_97  O 1.0  0.02395000(7000)  0.88088000(7000)  0.41530000(7000)  0.08590
 O4_98  O 1.0  0.52395000(7000)  0.88088000(7000)  0.91530000(7000)  0.08590
 O4_99  O 1.0  0.52395000(7000)  0.38088000(7000)  0.41530000(7000)  0.08590
 O4_100  O 1.0  0.38088000(7000)  0.58470000(7000)  0.47605000(7000)  0.08590
 O4_101  O 1.0  0.88088000(7000)  0.58470000(7000)  0.97605000(7000)  0.08590
 O4_102  O 1.0  0.88088000(7000)  0.08470000(7000)  0.47605000(7000)  0.08590
 O4_103  O 1.0  0.08470000(7000)  0.47605000(7000)  0.88088000(7000)  0.08590
 O4_104  O 1.0  0.58470000(7000)  0.47605000(7000)  0.38088000(7000)  0.08590
 O4_105  O 1.0  0.58470000(7000)  0.97605000(7000)  0.88088000(7000)  0.08590
 O4_106  O 1.0  0.02395000(7000)  0.11912000(7000)  0.58470000(7000)  0.08590
 O4_107  O 1.0  0.52395000(7000)  0.11912000(7000)  0.08470000(7000)  0.08590
 O4_108  O 1.0  0.52395000(7000)  0.61912000(7000)  0.58470000(7000)  0.08590
 O4_109  O 1.0  0.38088000(7000)  0.41530000(7000)  0.52395000(7000)  0.08590
 O4_110  O 1.0  0.88088000(7000)  0.41530000(7000)  0.02395000(7000)  0.08590
 O4_111  O 1.0  0.88088000(7000)  0.91530000(7000)  0.52395000(7000)  0.08590
 O4_112  O 1.0  0.08470000(7000)  0.47605000(7000)  0.11912000(7000)  0.08590
 O4_113  O 1.0  0.58470000(7000)  0.47605000(7000)  0.61912000(7000)  0.08590
 O4_114  O 1.0  0.58470000(7000)  0.97605000(7000)  0.11912000(7000)  0.08590
 O4_115  O 1.0  0.02395000(7000)  0.11912000(7000)  0.41530000(7000)  0.08590
 O4_116  O 1.0  0.52395000(7000)  0.11912000(7000)  0.91530000(7000)  0.08590
 O4_117  O 1.0  0.52395000(7000)  0.61912000(7000)  0.41530000(7000)  0.08590
 O4_118  O 1.0  0.38088000(7000)  0.41530000(7000)  0.47605000(7000)  0.08590
 O4_119  O 1.0  0.88088000(7000)  0.41530000(7000)  0.97605000(7000)  0.08590
 O4_120  O 1.0  0.88088000(7000)  0.91530000(7000)  0.47605000(7000)  0.08590
 O4_121  O 1.0  0.97605000(7000)  0.41530000(7000)  0.11912000(7000)  0.08590
 O4_122  O 1.0  0.47605000(7000)  0.41530000(7000)  0.61912000(7000)  0.08590
 O4_123  O 1.0  0.47605000(7000)  0.91530000(7000)  0.11912000(7000)  0.08590
 O4_124  O 1.0  0.61912000(7000)  0.47605000(7000)  0.41530000(7000)  0.08590
 O4_125  O 1.0  0.11912000(7000)  0.47605000(7000)  0.91530000(7000)  0.08590
 O4_126  O 1.0  0.11912000(7000)  0.97605000(7000)  0.41530000(7000)  0.08590
 O4_127  O 1.0  0.91530000(7000)  0.11912000(7000)  0.47605000(7000)  0.08590
 O4_128  O 1.0  0.41530000(7000)  0.11912000(7000)  0.97605000(7000)  0.08590
 O4_129  O 1.0  0.41530000(7000)  0.61912000(7000)  0.47605000(7000)  0.08590
 O4_130  O 1.0  0.97605000(7000)  0.41530000(7000)  0.88088000(7000)  0.08590
 O4_131  O 1.0  0.47605000(7000)  0.41530000(7000)  0.38088000(7000)  0.08590
 O4_132  O 1.0  0.47605000(7000)  0.91530000(7000)  0.88088000(7000)  0.08590
 O4_133  O 1.0  0.61912000(7000)  0.47605000(7000)  0.58470000(7000)  0.08590
 O4_134  O 1.0  0.11912000(7000)  0.47605000(7000)  0.08470000(7000)  0.08590
 O4_135  O 1.0  0.11912000(7000)  0.97605000(7000)  0.58470000(7000)  0.08590
 O4_136  O 1.0  0.91530000(7000)  0.11912000(7000)  0.52395000(7000)  0.08590
 O4_137  O 1.0  0.41530000(7000)  0.11912000(7000)  0.02395000(7000)  0.08590
 O4_138  O 1.0  0.41530000(7000)  0.61912000(7000)  0.52395000(7000)  0.08590
 O4_139  O 1.0  0.02395000(7000)  0.41530000(7000)  0.11912000(7000)  0.08590
 O4_140  O 1.0  0.52395000(7000)  0.41530000(7000)  0.61912000(7000)  0.08590
 O4_141  O 1.0  0.52395000(7000)  0.91530000(7000)  0.11912000(7000)  0.08590
 O4_142  O 1.0  0.38088000(7000)  0.47605000(7000)  0.41530000(7000)  0.08590
 O4_143  O 1.0  0.88088000(7000)  0.47605000(7000)  0.91530000(7000)  0.08590
 O4_144  O 1.0  0.88088000(7000)  0.97605000(7000)  0.41530000(7000)  0.08590
 O4_145  O 1.0  0.08470000(7000)  0.11912000(7000)  0.47605000(7000)  0.08590
 O4_146  O 1.0  0.58470000(7000)  0.11912000(7000)  0.97605000(7000)  0.08590
 O4_147  O 1.0  0.58470000(7000)  0.61912000(7000)  0.47605000(7000)  0.08590
 O4_148  O 1.0  0.02395000(7000)  0.41530000(7000)  0.88088000(7000)  0.08590
 O4_149  O 1.0  0.52395000(7000)  0.41530000(7000)  0.38088000(7000)  0.08590
 O4_150  O 1.0  0.52395000(7000)  0.91530000(7000)  0.88088000(7000)  0.08590
 O4_151  O 1.0  0.38088000(7000)  0.47605000(7000)  0.58470000(7000)  0.08590
 O4_152  O 1.0  0.88088000(7000)  0.47605000(7000)  0.08470000(7000)  0.08590
 O4_153  O 1.0  0.88088000(7000)  0.97605000(7000)  0.58470000(7000)  0.08590
 O4_154  O 1.0  0.08470000(7000)  0.11912000(7000)  0.52395000(7000)  0.08590
 O4_155  O 1.0  0.58470000(7000)  0.11912000(7000)  0.02395000(7000)  0.08590
 O4_156  O 1.0  0.58470000(7000)  0.61912000(7000)  0.52395000(7000)  0.08590
 O4_157  O 1.0  0.91530000(7000)  0.47605000(7000)  0.11912000(7000)  0.08590
 O4_158  O 1.0  0.41530000(7000)  0.47605000(7000)  0.61912000(7000)  0.08590
 O4_159  O 1.0  0.41530000(7000)  0.97605000(7000)  0.11912000(7000)  0.08590
 O4_160  O 1.0  0.97605000(7000)  0.11912000(7000)  0.41530000(7000)  0.08590
 O4_161  O 1.0  0.47605000(7000)  0.11912000(7000)  0.91530000(7000)  0.08590
 O4_162  O 1.0  0.47605000(7000)  0.61912000(7000)  0.41530000(7000)  0.08590
 O4_163  O 1.0  0.61912000(7000)  0.41530000(7000)  0.47605000(7000)  0.08590
 O4_164  O 1.0  0.11912000(7000)  0.41530000(7000)  0.97605000(7000)  0.08590
 O4_165  O 1.0  0.11912000(7000)  0.91530000(7000)  0.47605000(7000)  0.08590
 O4_166  O 1.0  0.91530000(7000)  0.47605000(7000)  0.88088000(7000)  0.08590
 O4_167  O 1.0  0.41530000(7000)  0.47605000(7000)  0.38088000(7000)  0.08590
 O4_168  O 1.0  0.41530000(7000)  0.97605000(7000)  0.88088000(7000)  0.08590
 O4_169  O 1.0  0.97605000(7000)  0.11912000(7000)  0.58470000(7000)  0.08590
 O4_170  O 1.0  0.47605000(7000)  0.11912000(7000)  0.08470000(7000)  0.08590
 O4_171  O 1.0  0.47605000(7000)  0.61912000(7000)  0.58470000(7000)  0.08590
 O4_172  O 1.0  0.61912000(7000)  0.41530000(7000)  0.52395000(7000)  0.08590
 O4_173  O 1.0  0.11912000(7000)  0.41530000(7000)  0.02395000(7000)  0.08590
 O4_174  O 1.0  0.11912000(7000)  0.91530000(7000)  0.52395000(7000)  0.08590
 O4_175  O 1.0  0.91530000(7000)  0.52395000(7000)  0.11912000(7000)  0.08590
 O4_176  O 1.0  0.41530000(7000)  0.52395000(7000)  0.61912000(7000)  0.08590
 O4_177  O 1.0  0.41530000(7000)  0.02395000(7000)  0.11912000(7000)  0.08590
 O4_178  O 1.0  0.97605000(7000)  0.88088000(7000)  0.41530000(7000)  0.08590
 O4_179  O 1.0  0.47605000(7000)  0.88088000(7000)  0.91530000(7000)  0.08590
 O4_180  O 1.0  0.47605000(7000)  0.38088000(7000)  0.41530000(7000)  0.08590
 O4_181  O 1.0  0.61912000(7000)  0.58470000(7000)  0.47605000(7000)  0.08590
 O4_182  O 1.0  0.11912000(7000)  0.58470000(7000)  0.97605000(7000)  0.08590
 O4_183  O 1.0  0.11912000(7000)  0.08470000(7000)  0.47605000(7000)  0.08590
 O4_184  O 1.0  0.91530000(7000)  0.52395000(7000)  0.88088000(7000)  0.08590
 O4_185  O 1.0  0.41530000(7000)  0.52395000(7000)  0.38088000(7000)  0.08590
 O4_186  O 1.0  0.41530000(7000)  0.02395000(7000)  0.88088000(7000)  0.08590
 O4_187  O 1.0  0.97605000(7000)  0.88088000(7000)  0.58470000(7000)  0.08590
 O4_188  O 1.0  0.47605000(7000)  0.88088000(7000)  0.08470000(7000)  0.08590
 O4_189  O 1.0  0.47605000(7000)  0.38088000(7000)  0.58470000(7000)  0.08590
 O4_190  O 1.0  0.61912000(7000)  0.58470000(7000)  0.52395000(7000)  0.08590
 O4_191  O 1.0  0.11912000(7000)  0.58470000(7000)  0.02395000(7000)  0.08590
 O4_192  O 1.0  0.11912000(7000)  0.08470000(7000)  0.52395000(7000)  0.08590
 C30  C 1.0  0.57415000(0)  0.74505000(0)  0.39965000(0)  .  
 C30_2  C 1.0  0.39965000(0)  0.57415000(0)  0.74505000(0)  .  
 C30_3  C 1.0  0.74505000(0)  0.39965000(0)  0.57415000(0)  .  
 C30_4  C 1.0  0.57415000(0)  0.74505000(0)  0.60035000(0)  .  
 C30_5  C 1.0  0.39965000(0)  0.57415000(0)  0.25495000(0)  .  
 C30_6  C 1.0  0.74505000(0)  0.39965000(0)  0.42585000(0)  .  
 C30_7  C 1.0  0.42585000(0)  0.74505000(0)  0.39965000(0)  .  
 C30_8  C 1.0  0.60035000(0)  0.57415000(0)  0.74505000(0)  .  
 C30_9  C 1.0  0.25495000(0)  0.39965000(0)  0.57415000(0)  .  
 C30_10  C 1.0  0.42585000(0)  0.74505000(0)  0.60035000(0)  .  
 C30_11  C 1.0  0.60035000(0)  0.57415000(0)  0.25495000(0)  .  
 C30_12  C 1.0  0.25495000(0)  0.39965000(0)  0.42585000(0)  .  
 C30_13  C 1.0  0.74505000(0)  0.57415000(0)  0.39965000(0)  .  
 C30_14  C 1.0  0.57415000(0)  0.39965000(0)  0.74505000(0)  .  
 C30_15  C 1.0  0.39965000(0)  0.74505000(0)  0.57415000(0)  .  
 C30_16  C 1.0  0.74505000(0)  0.57415000(0)  0.60035000(0)  .  
 C30_17  C 1.0  0.57415000(0)  0.39965000(0)  0.25495000(0)  .  
 C30_18  C 1.0  0.39965000(0)  0.74505000(0)  0.42585000(0)  .  
 C30_19  C 1.0  0.74505000(0)  0.42585000(0)  0.39965000(0)  .  
 C30_20  C 1.0  0.57415000(0)  0.60035000(0)  0.74505000(0)  .  
 C30_21  C 1.0  0.39965000(0)  0.25495000(0)  0.57415000(0)  .  
 C30_22  C 1.0  0.74505000(0)  0.42585000(0)  0.60035000(0)  .  
 C30_23  C 1.0  0.57415000(0)  0.60035000(0)  0.25495000(0)  .  
 C30_24  C 1.0  0.39965000(0)  0.25495000(0)  0.42585000(0)  .  
 C30_25  C 1.0  0.42585000(0)  0.25495000(0)  0.60035000(0)  .  
 C30_26  C 1.0  0.60035000(0)  0.42585000(0)  0.25495000(0)  .  
 C30_27  C 1.0  0.25495000(0)  0.60035000(0)  0.42585000(0)  .  
 C30_28  C 1.0  0.42585000(0)  0.25495000(0)  0.39965000(0)  .  
 C30_29  C 1.0  0.60035000(0)  0.42585000(0)  0.74505000(0)  .  
 C30_30  C 1.0  0.25495000(0)  0.60035000(0)  0.57415000(0)  .  
 C30_31  C 1.0  0.57415000(0)  0.25495000(0)  0.60035000(0)  .  
 C30_32  C 1.0  0.39965000(0)  0.42585000(0)  0.25495000(0)  .  
 C30_33  C 1.0  0.74505000(0)  0.60035000(0)  0.42585000(0)  .  
 C30_34  C 1.0  0.57415000(0)  0.25495000(0)  0.39965000(0)  .  
 C30_35  C 1.0  0.39965000(0)  0.42585000(0)  0.74505000(0)  .  
 C30_36  C 1.0  0.74505000(0)  0.60035000(0)  0.57415000(0)  .  
 C30_37  C 1.0  0.25495000(0)  0.42585000(0)  0.60035000(0)  .  
 C30_38  C 1.0  0.42585000(0)  0.60035000(0)  0.25495000(0)  .  
 C30_39  C 1.0  0.60035000(0)  0.25495000(0)  0.42585000(0)  .  
 C30_40  C 1.0  0.25495000(0)  0.42585000(0)  0.39965000(0)  .  
 C30_41  C 1.0  0.42585000(0)  0.60035000(0)  0.74505000(0)  .  
 C30_42  C 1.0  0.60035000(0)  0.25495000(0)  0.57415000(0)  .  
 C30_43  C 1.0  0.25495000(0)  0.57415000(0)  0.60035000(0)  .  
 C30_44  C 1.0  0.42585000(0)  0.39965000(0)  0.25495000(0)  .  
 C30_45  C 1.0  0.60035000(0)  0.74505000(0)  0.42585000(0)  .  
 C30_46  C 1.0  0.25495000(0)  0.57415000(0)  0.39965000(0)  .  
 C30_47  C 1.0  0.42585000(0)  0.39965000(0)  0.74505000(0)  .  
 C30_48  C 1.0  0.60035000(0)  0.74505000(0)  0.57415000(0)  .  
 C30_49  C 1.0  0.57415000(0)  0.24505000(0)  0.89965000(0)  .  
 C30_50  C 1.0  0.07415000(0)  0.24505000(0)  0.39965000(0)  .  
 C30_51  C 1.0  0.07415000(0)  0.74505000(0)  0.89965000(0)  .  
 C30_52  C 1.0  0.39965000(0)  0.07415000(0)  0.24505000(0)  .  
 C30_53  C 1.0  0.89965000(0)  0.07415000(0)  0.74505000(0)  .  
 C30_54  C 1.0  0.89965000(0)  0.57415000(0)  0.24505000(0)  .  
 C30_55  C 1.0  0.74505000(0)  0.89965000(0)  0.07415000(0)  .  
 C30_56  C 1.0  0.24505000(0)  0.89965000(0)  0.57415000(0)  .  
 C30_57  C 1.0  0.24505000(0)  0.39965000(0)  0.07415000(0)  .  
 C30_58  C 1.0  0.57415000(0)  0.24505000(0)  0.10035000(0)  .  
 C30_59  C 1.0  0.07415000(0)  0.24505000(0)  0.60035000(0)  .  
 C30_60  C 1.0  0.07415000(0)  0.74505000(0)  0.10035000(0)  .  
 C30_61  C 1.0  0.39965000(0)  0.07415000(0)  0.75495000(0)  .  
 C30_62  C 1.0  0.89965000(0)  0.07415000(0)  0.25495000(0)  .  
 C30_63  C 1.0  0.89965000(0)  0.57415000(0)  0.75495000(0)  .  
 C30_64  C 1.0  0.74505000(0)  0.89965000(0)  0.92585000(0)  .  
 C30_65  C 1.0  0.24505000(0)  0.89965000(0)  0.42585000(0)  .  
 C30_66  C 1.0  0.24505000(0)  0.39965000(0)  0.92585000(0)  .  
 C30_67  C 1.0  0.42585000(0)  0.24505000(0)  0.89965000(0)  .  
 C30_68  C 1.0  0.92585000(0)  0.24505000(0)  0.39965000(0)  .  
 C30_69  C 1.0  0.92585000(0)  0.74505000(0)  0.89965000(0)  .  
 C30_70  C 1.0  0.60035000(0)  0.07415000(0)  0.24505000(0)  .  
 C30_71  C 1.0  0.10035000(0)  0.07415000(0)  0.74505000(0)  .  
 C30_72  C 1.0  0.10035000(0)  0.57415000(0)  0.24505000(0)  .  
 C30_73  C 1.0  0.25495000(0)  0.89965000(0)  0.07415000(0)  .  
 C30_74  C 1.0  0.75495000(0)  0.89965000(0)  0.57415000(0)  .  
 C30_75  C 1.0  0.75495000(0)  0.39965000(0)  0.07415000(0)  .  
 C30_76  C 1.0  0.42585000(0)  0.24505000(0)  0.10035000(0)  .  
 C30_77  C 1.0  0.92585000(0)  0.24505000(0)  0.60035000(0)  .  
 C30_78  C 1.0  0.92585000(0)  0.74505000(0)  0.10035000(0)  .  
 C30_79  C 1.0  0.60035000(0)  0.07415000(0)  0.75495000(0)  .  
 C30_80  C 1.0  0.10035000(0)  0.07415000(0)  0.25495000(0)  .  
 C30_81  C 1.0  0.10035000(0)  0.57415000(0)  0.75495000(0)  .  
 C30_82  C 1.0  0.25495000(0)  0.89965000(0)  0.92585000(0)  .  
 C30_83  C 1.0  0.75495000(0)  0.89965000(0)  0.42585000(0)  .  
 C30_84  C 1.0  0.75495000(0)  0.39965000(0)  0.92585000(0)  .  
 C30_85  C 1.0  0.74505000(0)  0.07415000(0)  0.89965000(0)  .  
 C30_86  C 1.0  0.24505000(0)  0.07415000(0)  0.39965000(0)  .  
 C30_87  C 1.0  0.24505000(0)  0.57415000(0)  0.89965000(0)  .  
 C30_88  C 1.0  0.57415000(0)  0.89965000(0)  0.24505000(0)  .  
 C30_89  C 1.0  0.07415000(0)  0.89965000(0)  0.74505000(0)  .  
 C30_90  C 1.0  0.07415000(0)  0.39965000(0)  0.24505000(0)  .  
 C30_91  C 1.0  0.39965000(0)  0.24505000(0)  0.07415000(0)  .  
 C30_92  C 1.0  0.89965000(0)  0.24505000(0)  0.57415000(0)  .  
 C30_93  C 1.0  0.89965000(0)  0.74505000(0)  0.07415000(0)  .  
 C30_94  C 1.0  0.74505000(0)  0.07415000(0)  0.10035000(0)  .  
 C30_95  C 1.0  0.24505000(0)  0.07415000(0)  0.60035000(0)  .  
 C30_96  C 1.0  0.24505000(0)  0.57415000(0)  0.10035000(0)  .  
 C30_97  C 1.0  0.57415000(0)  0.89965000(0)  0.75495000(0)  .  
 C30_98  C 1.0  0.07415000(0)  0.89965000(0)  0.25495000(0)  .  
 C30_99  C 1.0  0.07415000(0)  0.39965000(0)  0.75495000(0)  .  
 C30_100  C 1.0  0.39965000(0)  0.24505000(0)  0.92585000(0)  .  
 C30_101  C 1.0  0.89965000(0)  0.24505000(0)  0.42585000(0)  .  
 C30_102  C 1.0  0.89965000(0)  0.74505000(0)  0.92585000(0)  .  
 C30_103  C 1.0  0.74505000(0)  0.92585000(0)  0.89965000(0)  .  
 C30_104  C 1.0  0.24505000(0)  0.92585000(0)  0.39965000(0)  .  
 C30_105  C 1.0  0.24505000(0)  0.42585000(0)  0.89965000(0)  .  
 C30_106  C 1.0  0.57415000(0)  0.10035000(0)  0.24505000(0)  .  
 C30_107  C 1.0  0.07415000(0)  0.10035000(0)  0.74505000(0)  .  
 C30_108  C 1.0  0.07415000(0)  0.60035000(0)  0.24505000(0)  .  
 C30_109  C 1.0  0.39965000(0)  0.75495000(0)  0.07415000(0)  .  
 C30_110  C 1.0  0.89965000(0)  0.75495000(0)  0.57415000(0)  .  
 C30_111  C 1.0  0.89965000(0)  0.25495000(0)  0.07415000(0)  .  
 C30_112  C 1.0  0.74505000(0)  0.92585000(0)  0.10035000(0)  .  
 C30_113  C 1.0  0.24505000(0)  0.92585000(0)  0.60035000(0)  .  
 C30_114  C 1.0  0.24505000(0)  0.42585000(0)  0.10035000(0)  .  
 C30_115  C 1.0  0.57415000(0)  0.10035000(0)  0.75495000(0)  .  
 C30_116  C 1.0  0.07415000(0)  0.10035000(0)  0.25495000(0)  .  
 C30_117  C 1.0  0.07415000(0)  0.60035000(0)  0.75495000(0)  .  
 C30_118  C 1.0  0.39965000(0)  0.75495000(0)  0.92585000(0)  .  
 C30_119  C 1.0  0.89965000(0)  0.75495000(0)  0.42585000(0)  .  
 C30_120  C 1.0  0.89965000(0)  0.25495000(0)  0.92585000(0)  .  
 C30_121  C 1.0  0.42585000(0)  0.75495000(0)  0.10035000(0)  .  
 C30_122  C 1.0  0.92585000(0)  0.75495000(0)  0.60035000(0)  .  
 C30_123  C 1.0  0.92585000(0)  0.25495000(0)  0.10035000(0)  .  
 C30_124  C 1.0  0.60035000(0)  0.92585000(0)  0.75495000(0)  .  
 C30_125  C 1.0  0.10035000(0)  0.92585000(0)  0.25495000(0)  .  
 C30_126  C 1.0  0.10035000(0)  0.42585000(0)  0.75495000(0)  .  
 C30_127  C 1.0  0.25495000(0)  0.10035000(0)  0.92585000(0)  .  
 C30_128  C 1.0  0.75495000(0)  0.10035000(0)  0.42585000(0)  .  
 C30_129  C 1.0  0.75495000(0)  0.60035000(0)  0.92585000(0)  .  
 C30_130  C 1.0  0.42585000(0)  0.75495000(0)  0.89965000(0)  .  
 C30_131  C 1.0  0.92585000(0)  0.75495000(0)  0.39965000(0)  .  
 C30_132  C 1.0  0.92585000(0)  0.25495000(0)  0.89965000(0)  .  
 C30_133  C 1.0  0.60035000(0)  0.92585000(0)  0.24505000(0)  .  
 C30_134  C 1.0  0.10035000(0)  0.92585000(0)  0.74505000(0)  .  
 C30_135  C 1.0  0.10035000(0)  0.42585000(0)  0.24505000(0)  .  
 C30_136  C 1.0  0.25495000(0)  0.10035000(0)  0.07415000(0)  .  
 C30_137  C 1.0  0.75495000(0)  0.10035000(0)  0.57415000(0)  .  
 C30_138  C 1.0  0.75495000(0)  0.60035000(0)  0.07415000(0)  .  
 C30_139  C 1.0  0.57415000(0)  0.75495000(0)  0.10035000(0)  .  
 C30_140  C 1.0  0.07415000(0)  0.75495000(0)  0.60035000(0)  .  
 C30_141  C 1.0  0.07415000(0)  0.25495000(0)  0.10035000(0)  .  
 C30_142  C 1.0  0.39965000(0)  0.92585000(0)  0.75495000(0)  .  
 C30_143  C 1.0  0.89965000(0)  0.92585000(0)  0.25495000(0)  .  
 C30_144  C 1.0  0.89965000(0)  0.42585000(0)  0.75495000(0)  .  
 C30_145  C 1.0  0.74505000(0)  0.10035000(0)  0.92585000(0)  .  
 C30_146  C 1.0  0.24505000(0)  0.10035000(0)  0.42585000(0)  .  
 C30_147  C 1.0  0.24505000(0)  0.60035000(0)  0.92585000(0)  .  
 C30_148  C 1.0  0.57415000(0)  0.75495000(0)  0.89965000(0)  .  
 C30_149  C 1.0  0.07415000(0)  0.75495000(0)  0.39965000(0)  .  
 C30_150  C 1.0  0.07415000(0)  0.25495000(0)  0.89965000(0)  .  
 C30_151  C 1.0  0.39965000(0)  0.92585000(0)  0.24505000(0)  .  
 C30_152  C 1.0  0.89965000(0)  0.92585000(0)  0.74505000(0)  .  
 C30_153  C 1.0  0.89965000(0)  0.42585000(0)  0.24505000(0)  .  
 C30_154  C 1.0  0.74505000(0)  0.10035000(0)  0.07415000(0)  .  
 C30_155  C 1.0  0.24505000(0)  0.10035000(0)  0.57415000(0)  .  
 C30_156  C 1.0  0.24505000(0)  0.60035000(0)  0.07415000(0)  .  
 C30_157  C 1.0  0.25495000(0)  0.92585000(0)  0.10035000(0)  .  
 C30_158  C 1.0  0.75495000(0)  0.92585000(0)  0.60035000(0)  .  
 C30_159  C 1.0  0.75495000(0)  0.42585000(0)  0.10035000(0)  .  
 C30_160  C 1.0  0.42585000(0)  0.10035000(0)  0.75495000(0)  .  
 C30_161  C 1.0  0.92585000(0)  0.10035000(0)  0.25495000(0)  .  
 C30_162  C 1.0  0.92585000(0)  0.60035000(0)  0.75495000(0)  .  
 C30_163  C 1.0  0.60035000(0)  0.75495000(0)  0.92585000(0)  .  
 C30_164  C 1.0  0.10035000(0)  0.75495000(0)  0.42585000(0)  .  
 C30_165  C 1.0  0.10035000(0)  0.25495000(0)  0.92585000(0)  .  
 C30_166  C 1.0  0.25495000(0)  0.92585000(0)  0.89965000(0)  .  
 C30_167  C 1.0  0.75495000(0)  0.92585000(0)  0.39965000(0)  .  
 C30_168  C 1.0  0.75495000(0)  0.42585000(0)  0.89965000(0)  .  
 C30_169  C 1.0  0.42585000(0)  0.10035000(0)  0.24505000(0)  .  
 C30_170  C 1.0  0.92585000(0)  0.10035000(0)  0.74505000(0)  .  
 C30_171  C 1.0  0.92585000(0)  0.60035000(0)  0.24505000(0)  .  
 C30_172  C 1.0  0.60035000(0)  0.75495000(0)  0.07415000(0)  .  
 C30_173  C 1.0  0.10035000(0)  0.75495000(0)  0.57415000(0)  .  
 C30_174  C 1.0  0.10035000(0)  0.25495000(0)  0.07415000(0)  .  
 C30_175  C 1.0  0.25495000(0)  0.07415000(0)  0.10035000(0)  .  
 C30_176  C 1.0  0.75495000(0)  0.07415000(0)  0.60035000(0)  .  
 C30_177  C 1.0  0.75495000(0)  0.57415000(0)  0.10035000(0)  .  
 C30_178  C 1.0  0.42585000(0)  0.89965000(0)  0.75495000(0)  .  
 C30_179  C 1.0  0.92585000(0)  0.89965000(0)  0.25495000(0)  .  
 C30_180  C 1.0  0.92585000(0)  0.39965000(0)  0.75495000(0)  .  
 C30_181  C 1.0  0.60035000(0)  0.24505000(0)  0.92585000(0)  .  
 C30_182  C 1.0  0.10035000(0)  0.24505000(0)  0.42585000(0)  .  
 C30_183  C 1.0  0.10035000(0)  0.74505000(0)  0.92585000(0)  .  
 C30_184  C 1.0  0.25495000(0)  0.07415000(0)  0.89965000(0)  .  
 C30_185  C 1.0  0.75495000(0)  0.07415000(0)  0.39965000(0)  .  
 C30_186  C 1.0  0.75495000(0)  0.57415000(0)  0.89965000(0)  .  
 C30_187  C 1.0  0.42585000(0)  0.89965000(0)  0.24505000(0)  .  
 C30_188  C 1.0  0.92585000(0)  0.89965000(0)  0.74505000(0)  .  
 C30_189  C 1.0  0.92585000(0)  0.39965000(0)  0.24505000(0)  .  
 C30_190  C 1.0  0.60035000(0)  0.24505000(0)  0.07415000(0)  .  
 C30_191  C 1.0  0.10035000(0)  0.24505000(0)  0.57415000(0)  .  
 C30_192  C 1.0  0.10035000(0)  0.74505000(0)  0.07415000(0)  .  
 H29  H 1.0  0.56645000(0)  0.75270000(0)  0.38895000(0)  .  
 H29_2  H 1.0  0.38895000(0)  0.56645000(0)  0.75270000(0)  .  
 H29_3  H 1.0  0.75270000(0)  0.38895000(0)  0.56645000(0)  .  
 H29_4  H 1.0  0.56645000(0)  0.75270000(0)  0.61105000(0)  .  
 H29_5  H 1.0  0.38895000(0)  0.56645000(0)  0.24730000(0)  .  
 H29_6  H 1.0  0.75270000(0)  0.38895000(0)  0.43355000(0)  .  
 H29_7  H 1.0  0.43355000(0)  0.75270000(0)  0.38895000(0)  .  
 H29_8  H 1.0  0.61105000(0)  0.56645000(0)  0.75270000(0)  .  
 H29_9  H 1.0  0.24730000(0)  0.38895000(0)  0.56645000(0)  .  
 H29_10  H 1.0  0.43355000(0)  0.75270000(0)  0.61105000(0)  .  
 H29_11  H 1.0  0.61105000(0)  0.56645000(0)  0.24730000(0)  .  
 H29_12  H 1.0  0.24730000(0)  0.38895000(0)  0.43355000(0)  .  
 H29_13  H 1.0  0.75270000(0)  0.56645000(0)  0.38895000(0)  .  
 H29_14  H 1.0  0.56645000(0)  0.38895000(0)  0.75270000(0)  .  
 H29_15  H 1.0  0.38895000(0)  0.75270000(0)  0.56645000(0)  .  
 H29_16  H 1.0  0.75270000(0)  0.56645000(0)  0.61105000(0)  .  
 H29_17  H 1.0  0.56645000(0)  0.38895000(0)  0.24730000(0)  .  
 H29_18  H 1.0  0.38895000(0)  0.75270000(0)  0.43355000(0)  .  
 H29_19  H 1.0  0.75270000(0)  0.43355000(0)  0.38895000(0)  .  
 H29_20  H 1.0  0.56645000(0)  0.61105000(0)  0.75270000(0)  .  
 H29_21  H 1.0  0.38895000(0)  0.24730000(0)  0.56645000(0)  .  
 H29_22  H 1.0  0.75270000(0)  0.43355000(0)  0.61105000(0)  .  
 H29_23  H 1.0  0.56645000(0)  0.61105000(0)  0.24730000(0)  .  
 H29_24  H 1.0  0.38895000(0)  0.24730000(0)  0.43355000(0)  .  
 H29_25  H 1.0  0.43355000(0)  0.24730000(0)  0.61105000(0)  .  
 H29_26  H 1.0  0.61105000(0)  0.43355000(0)  0.24730000(0)  .  
 H29_27  H 1.0  0.24730000(0)  0.61105000(0)  0.43355000(0)  .  
 H29_28  H 1.0  0.43355000(0)  0.24730000(0)  0.38895000(0)  .  
 H29_29  H 1.0  0.61105000(0)  0.43355000(0)  0.75270000(0)  .  
 H29_30  H 1.0  0.24730000(0)  0.61105000(0)  0.56645000(0)  .  
 H29_31  H 1.0  0.56645000(0)  0.24730000(0)  0.61105000(0)  .  
 H29_32  H 1.0  0.38895000(0)  0.43355000(0)  0.24730000(0)  .  
 H29_33  H 1.0  0.75270000(0)  0.61105000(0)  0.43355000(0)  .  
 H29_34  H 1.0  0.56645000(0)  0.24730000(0)  0.38895000(0)  .  
 H29_35  H 1.0  0.38895000(0)  0.43355000(0)  0.75270000(0)  .  
 H29_36  H 1.0  0.75270000(0)  0.61105000(0)  0.56645000(0)  .  
 H29_37  H 1.0  0.24730000(0)  0.43355000(0)  0.61105000(0)  .  
 H29_38  H 1.0  0.43355000(0)  0.61105000(0)  0.24730000(0)  .  
 H29_39  H 1.0  0.61105000(0)  0.24730000(0)  0.43355000(0)  .  
 H29_40  H 1.0  0.24730000(0)  0.43355000(0)  0.38895000(0)  .  
 H29_41  H 1.0  0.43355000(0)  0.61105000(0)  0.75270000(0)  .  
 H29_42  H 1.0  0.61105000(0)  0.24730000(0)  0.56645000(0)  .  
 H29_43  H 1.0  0.24730000(0)  0.56645000(0)  0.61105000(0)  .  
 H29_44  H 1.0  0.43355000(0)  0.38895000(0)  0.24730000(0)  .  
 H29_45  H 1.0  0.61105000(0)  0.75270000(0)  0.43355000(0)  .  
 H29_46  H 1.0  0.24730000(0)  0.56645000(0)  0.38895000(0)  .  
 H29_47  H 1.0  0.43355000(0)  0.38895000(0)  0.75270000(0)  .  
 H29_48  H 1.0  0.61105000(0)  0.75270000(0)  0.56645000(0)  .  
 H29_49  H 1.0  0.56645000(0)  0.25270000(0)  0.88895000(0)  .  
 H29_50  H 1.0  0.06645000(0)  0.25270000(0)  0.38895000(0)  .  
 H29_51  H 1.0  0.06645000(0)  0.75270000(0)  0.88895000(0)  .  
 H29_52  H 1.0  0.38895000(0)  0.06645000(0)  0.25270000(0)  .  
 H29_53  H 1.0  0.88895000(0)  0.06645000(0)  0.75270000(0)  .  
 H29_54  H 1.0  0.88895000(0)  0.56645000(0)  0.25270000(0)  .  
 H29_55  H 1.0  0.75270000(0)  0.88895000(0)  0.06645000(0)  .  
 H29_56  H 1.0  0.25270000(0)  0.88895000(0)  0.56645000(0)  .  
 H29_57  H 1.0  0.25270000(0)  0.38895000(0)  0.06645000(0)  .  
 H29_58  H 1.0  0.56645000(0)  0.25270000(0)  0.11105000(0)  .  
 H29_59  H 1.0  0.06645000(0)  0.25270000(0)  0.61105000(0)  .  
 H29_60  H 1.0  0.06645000(0)  0.75270000(0)  0.11105000(0)  .  
 H29_61  H 1.0  0.38895000(0)  0.06645000(0)  0.74730000(0)  .  
 H29_62  H 1.0  0.88895000(0)  0.06645000(0)  0.24730000(0)  .  
 H29_63  H 1.0  0.88895000(0)  0.56645000(0)  0.74730000(0)  .  
 H29_64  H 1.0  0.75270000(0)  0.88895000(0)  0.93355000(0)  .  
 H29_65  H 1.0  0.25270000(0)  0.88895000(0)  0.43355000(0)  .  
 H29_66  H 1.0  0.25270000(0)  0.38895000(0)  0.93355000(0)  .  
 H29_67  H 1.0  0.43355000(0)  0.25270000(0)  0.88895000(0)  .  
 H29_68  H 1.0  0.93355000(0)  0.25270000(0)  0.38895000(0)  .  
 H29_69  H 1.0  0.93355000(0)  0.75270000(0)  0.88895000(0)  .  
 H29_70  H 1.0  0.61105000(0)  0.06645000(0)  0.25270000(0)  .  
 H29_71  H 1.0  0.11105000(0)  0.06645000(0)  0.75270000(0)  .  
 H29_72  H 1.0  0.11105000(0)  0.56645000(0)  0.25270000(0)  .  
 H29_73  H 1.0  0.24730000(0)  0.88895000(0)  0.06645000(0)  .  
 H29_74  H 1.0  0.74730000(0)  0.88895000(0)  0.56645000(0)  .  
 H29_75  H 1.0  0.74730000(0)  0.38895000(0)  0.06645000(0)  .  
 H29_76  H 1.0  0.43355000(0)  0.25270000(0)  0.11105000(0)  .  
 H29_77  H 1.0  0.93355000(0)  0.25270000(0)  0.61105000(0)  .  
 H29_78  H 1.0  0.93355000(0)  0.75270000(0)  0.11105000(0)  .  
 H29_79  H 1.0  0.61105000(0)  0.06645000(0)  0.74730000(0)  .  
 H29_80  H 1.0  0.11105000(0)  0.06645000(0)  0.24730000(0)  .  
 H29_81  H 1.0  0.11105000(0)  0.56645000(0)  0.74730000(0)  .  
 H29_82  H 1.0  0.24730000(0)  0.88895000(0)  0.93355000(0)  .  
 H29_83  H 1.0  0.74730000(0)  0.88895000(0)  0.43355000(0)  .  
 H29_84  H 1.0  0.74730000(0)  0.38895000(0)  0.93355000(0)  .  
 H29_85  H 1.0  0.75270000(0)  0.06645000(0)  0.88895000(0)  .  
 H29_86  H 1.0  0.25270000(0)  0.06645000(0)  0.38895000(0)  .  
 H29_87  H 1.0  0.25270000(0)  0.56645000(0)  0.88895000(0)  .  
 H29_88  H 1.0  0.56645000(0)  0.88895000(0)  0.25270000(0)  .  
 H29_89  H 1.0  0.06645000(0)  0.88895000(0)  0.75270000(0)  .  
 H29_90  H 1.0  0.06645000(0)  0.38895000(0)  0.25270000(0)  .  
 H29_91  H 1.0  0.38895000(0)  0.25270000(0)  0.06645000(0)  .  
 H29_92  H 1.0  0.88895000(0)  0.25270000(0)  0.56645000(0)  .  
 H29_93  H 1.0  0.88895000(0)  0.75270000(0)  0.06645000(0)  .  
 H29_94  H 1.0  0.75270000(0)  0.06645000(0)  0.11105000(0)  .  
 H29_95  H 1.0  0.25270000(0)  0.06645000(0)  0.61105000(0)  .  
 H29_96  H 1.0  0.25270000(0)  0.56645000(0)  0.11105000(0)  .  
 H29_97  H 1.0  0.56645000(0)  0.88895000(0)  0.74730000(0)  .  
 H29_98  H 1.0  0.06645000(0)  0.88895000(0)  0.24730000(0)  .  
 H29_99  H 1.0  0.06645000(0)  0.38895000(0)  0.74730000(0)  .  
 H29_100  H 1.0  0.38895000(0)  0.25270000(0)  0.93355000(0)  .  
 H29_101  H 1.0  0.88895000(0)  0.25270000(0)  0.43355000(0)  .  
 H29_102  H 1.0  0.88895000(0)  0.75270000(0)  0.93355000(0)  .  
 H29_103  H 1.0  0.75270000(0)  0.93355000(0)  0.88895000(0)  .  
 H29_104  H 1.0  0.25270000(0)  0.93355000(0)  0.38895000(0)  .  
 H29_105  H 1.0  0.25270000(0)  0.43355000(0)  0.88895000(0)  .  
 H29_106  H 1.0  0.56645000(0)  0.11105000(0)  0.25270000(0)  .  
 H29_107  H 1.0  0.06645000(0)  0.11105000(0)  0.75270000(0)  .  
 H29_108  H 1.0  0.06645000(0)  0.61105000(0)  0.25270000(0)  .  
 H29_109  H 1.0  0.38895000(0)  0.74730000(0)  0.06645000(0)  .  
 H29_110  H 1.0  0.88895000(0)  0.74730000(0)  0.56645000(0)  .  
 H29_111  H 1.0  0.88895000(0)  0.24730000(0)  0.06645000(0)  .  
 H29_112  H 1.0  0.75270000(0)  0.93355000(0)  0.11105000(0)  .  
 H29_113  H 1.0  0.25270000(0)  0.93355000(0)  0.61105000(0)  .  
 H29_114  H 1.0  0.25270000(0)  0.43355000(0)  0.11105000(0)  .  
 H29_115  H 1.0  0.56645000(0)  0.11105000(0)  0.74730000(0)  .  
 H29_116  H 1.0  0.06645000(0)  0.11105000(0)  0.24730000(0)  .  
 H29_117  H 1.0  0.06645000(0)  0.61105000(0)  0.74730000(0)  .  
 H29_118  H 1.0  0.38895000(0)  0.74730000(0)  0.93355000(0)  .  
 H29_119  H 1.0  0.88895000(0)  0.74730000(0)  0.43355000(0)  .  
 H29_120  H 1.0  0.88895000(0)  0.24730000(0)  0.93355000(0)  .  
 H29_121  H 1.0  0.43355000(0)  0.74730000(0)  0.11105000(0)  .  
 H29_122  H 1.0  0.93355000(0)  0.74730000(0)  0.61105000(0)  .  
 H29_123  H 1.0  0.93355000(0)  0.24730000(0)  0.11105000(0)  .  
 H29_124  H 1.0  0.61105000(0)  0.93355000(0)  0.74730000(0)  .  
 H29_125  H 1.0  0.11105000(0)  0.93355000(0)  0.24730000(0)  .  
 H29_126  H 1.0  0.11105000(0)  0.43355000(0)  0.74730000(0)  .  
 H29_127  H 1.0  0.24730000(0)  0.11105000(0)  0.93355000(0)  .  
 H29_128  H 1.0  0.74730000(0)  0.11105000(0)  0.43355000(0)  .  
 H29_129  H 1.0  0.74730000(0)  0.61105000(0)  0.93355000(0)  .  
 H29_130  H 1.0  0.43355000(0)  0.74730000(0)  0.88895000(0)  .  
 H29_131  H 1.0  0.93355000(0)  0.74730000(0)  0.38895000(0)  .  
 H29_132  H 1.0  0.93355000(0)  0.24730000(0)  0.88895000(0)  .  
 H29_133  H 1.0  0.61105000(0)  0.93355000(0)  0.25270000(0)  .  
 H29_134  H 1.0  0.11105000(0)  0.93355000(0)  0.75270000(0)  .  
 H29_135  H 1.0  0.11105000(0)  0.43355000(0)  0.25270000(0)  .  
 H29_136  H 1.0  0.24730000(0)  0.11105000(0)  0.06645000(0)  .  
 H29_137  H 1.0  0.74730000(0)  0.11105000(0)  0.56645000(0)  .  
 H29_138  H 1.0  0.74730000(0)  0.61105000(0)  0.06645000(0)  .  
 H29_139  H 1.0  0.56645000(0)  0.74730000(0)  0.11105000(0)  .  
 H29_140  H 1.0  0.06645000(0)  0.74730000(0)  0.61105000(0)  .  
 H29_141  H 1.0  0.06645000(0)  0.24730000(0)  0.11105000(0)  .  
 H29_142  H 1.0  0.38895000(0)  0.93355000(0)  0.74730000(0)  .  
 H29_143  H 1.0  0.88895000(0)  0.93355000(0)  0.24730000(0)  .  
 H29_144  H 1.0  0.88895000(0)  0.43355000(0)  0.74730000(0)  .  
 H29_145  H 1.0  0.75270000(0)  0.11105000(0)  0.93355000(0)  .  
 H29_146  H 1.0  0.25270000(0)  0.11105000(0)  0.43355000(0)  .  
 H29_147  H 1.0  0.25270000(0)  0.61105000(0)  0.93355000(0)  .  
 H29_148  H 1.0  0.56645000(0)  0.74730000(0)  0.88895000(0)  .  
 H29_149  H 1.0  0.06645000(0)  0.74730000(0)  0.38895000(0)  .  
 H29_150  H 1.0  0.06645000(0)  0.24730000(0)  0.88895000(0)  .  
 H29_151  H 1.0  0.38895000(0)  0.93355000(0)  0.25270000(0)  .  
 H29_152  H 1.0  0.88895000(0)  0.93355000(0)  0.75270000(0)  .  
 H29_153  H 1.0  0.88895000(0)  0.43355000(0)  0.25270000(0)  .  
 H29_154  H 1.0  0.75270000(0)  0.11105000(0)  0.06645000(0)  .  
 H29_155  H 1.0  0.25270000(0)  0.11105000(0)  0.56645000(0)  .  
 H29_156  H 1.0  0.25270000(0)  0.61105000(0)  0.06645000(0)  .  
 H29_157  H 1.0  0.24730000(0)  0.93355000(0)  0.11105000(0)  .  
 H29_158  H 1.0  0.74730000(0)  0.93355000(0)  0.61105000(0)  .  
 H29_159  H 1.0  0.74730000(0)  0.43355000(0)  0.11105000(0)  .  
 H29_160  H 1.0  0.43355000(0)  0.11105000(0)  0.74730000(0)  .  
 H29_161  H 1.0  0.93355000(0)  0.11105000(0)  0.24730000(0)  .  
 H29_162  H 1.0  0.93355000(0)  0.61105000(0)  0.74730000(0)  .  
 H29_163  H 1.0  0.61105000(0)  0.74730000(0)  0.93355000(0)  .  
 H29_164  H 1.0  0.11105000(0)  0.74730000(0)  0.43355000(0)  .  
 H29_165  H 1.0  0.11105000(0)  0.24730000(0)  0.93355000(0)  .  
 H29_166  H 1.0  0.24730000(0)  0.93355000(0)  0.88895000(0)  .  
 H29_167  H 1.0  0.74730000(0)  0.93355000(0)  0.38895000(0)  .  
 H29_168  H 1.0  0.74730000(0)  0.43355000(0)  0.88895000(0)  .  
 H29_169  H 1.0  0.43355000(0)  0.11105000(0)  0.25270000(0)  .  
 H29_170  H 1.0  0.93355000(0)  0.11105000(0)  0.75270000(0)  .  
 H29_171  H 1.0  0.93355000(0)  0.61105000(0)  0.25270000(0)  .  
 H29_172  H 1.0  0.61105000(0)  0.74730000(0)  0.06645000(0)  .  
 H29_173  H 1.0  0.11105000(0)  0.74730000(0)  0.56645000(0)  .  
 H29_174  H 1.0  0.11105000(0)  0.24730000(0)  0.06645000(0)  .  
 H29_175  H 1.0  0.24730000(0)  0.06645000(0)  0.11105000(0)  .  
 H29_176  H 1.0  0.74730000(0)  0.06645000(0)  0.61105000(0)  .  
 H29_177  H 1.0  0.74730000(0)  0.56645000(0)  0.11105000(0)  .  
 H29_178  H 1.0  0.43355000(0)  0.88895000(0)  0.74730000(0)  .  
 H29_179  H 1.0  0.93355000(0)  0.88895000(0)  0.24730000(0)  .  
 H29_180  H 1.0  0.93355000(0)  0.38895000(0)  0.74730000(0)  .  
 H29_181  H 1.0  0.61105000(0)  0.25270000(0)  0.93355000(0)  .  
 H29_182  H 1.0  0.11105000(0)  0.25270000(0)  0.43355000(0)  .  
 H29_183  H 1.0  0.11105000(0)  0.75270000(0)  0.93355000(0)  .  
 H29_184  H 1.0  0.24730000(0)  0.06645000(0)  0.88895000(0)  .  
 H29_185  H 1.0  0.74730000(0)  0.06645000(0)  0.38895000(0)  .  
 H29_186  H 1.0  0.74730000(0)  0.56645000(0)  0.88895000(0)  .  
 H29_187  H 1.0  0.43355000(0)  0.88895000(0)  0.25270000(0)  .  
 H29_188  H 1.0  0.93355000(0)  0.88895000(0)  0.75270000(0)  .  
 H29_189  H 1.0  0.93355000(0)  0.38895000(0)  0.25270000(0)  .  
 H29_190  H 1.0  0.61105000(0)  0.25270000(0)  0.06645000(0)  .  
 H29_191  H 1.0  0.11105000(0)  0.25270000(0)  0.56645000(0)  .  
 H29_192  H 1.0  0.11105000(0)  0.75270000(0)  0.06645000(0)  .  
 C28  C 1.0  0.57115000(0)  0.72175000(0)  0.40425000(0)  .  
 C28_2  C 1.0  0.40425000(0)  0.57115000(0)  0.72175000(0)  .  
 C28_3  C 1.0  0.72175000(0)  0.40425000(0)  0.57115000(0)  .  
 C28_4  C 1.0  0.57115000(0)  0.72175000(0)  0.59575000(0)  .  
 C28_5  C 1.0  0.40425000(0)  0.57115000(0)  0.27825000(0)  .  
 C28_6  C 1.0  0.72175000(0)  0.40425000(0)  0.42885000(0)  .  
 C28_7  C 1.0  0.42885000(0)  0.72175000(0)  0.40425000(0)  .  
 C28_8  C 1.0  0.59575000(0)  0.57115000(0)  0.72175000(0)  .  
 C28_9  C 1.0  0.27825000(0)  0.40425000(0)  0.57115000(0)  .  
 C28_10  C 1.0  0.42885000(0)  0.72175000(0)  0.59575000(0)  .  
 C28_11  C 1.0  0.59575000(0)  0.57115000(0)  0.27825000(0)  .  
 C28_12  C 1.0  0.27825000(0)  0.40425000(0)  0.42885000(0)  .  
 C28_13  C 1.0  0.72175000(0)  0.57115000(0)  0.40425000(0)  .  
 C28_14  C 1.0  0.57115000(0)  0.40425000(0)  0.72175000(0)  .  
 C28_15  C 1.0  0.40425000(0)  0.72175000(0)  0.57115000(0)  .  
 C28_16  C 1.0  0.72175000(0)  0.57115000(0)  0.59575000(0)  .  
 C28_17  C 1.0  0.57115000(0)  0.40425000(0)  0.27825000(0)  .  
 C28_18  C 1.0  0.40425000(0)  0.72175000(0)  0.42885000(0)  .  
 C28_19  C 1.0  0.72175000(0)  0.42885000(0)  0.40425000(0)  .  
 C28_20  C 1.0  0.57115000(0)  0.59575000(0)  0.72175000(0)  .  
 C28_21  C 1.0  0.40425000(0)  0.27825000(0)  0.57115000(0)  .  
 C28_22  C 1.0  0.72175000(0)  0.42885000(0)  0.59575000(0)  .  
 C28_23  C 1.0  0.57115000(0)  0.59575000(0)  0.27825000(0)  .  
 C28_24  C 1.0  0.40425000(0)  0.27825000(0)  0.42885000(0)  .  
 C28_25  C 1.0  0.42885000(0)  0.27825000(0)  0.59575000(0)  .  
 C28_26  C 1.0  0.59575000(0)  0.42885000(0)  0.27825000(0)  .  
 C28_27  C 1.0  0.27825000(0)  0.59575000(0)  0.42885000(0)  .  
 C28_28  C 1.0  0.42885000(0)  0.27825000(0)  0.40425000(0)  .  
 C28_29  C 1.0  0.59575000(0)  0.42885000(0)  0.72175000(0)  .  
 C28_30  C 1.0  0.27825000(0)  0.59575000(0)  0.57115000(0)  .  
 C28_31  C 1.0  0.57115000(0)  0.27825000(0)  0.59575000(0)  .  
 C28_32  C 1.0  0.40425000(0)  0.42885000(0)  0.27825000(0)  .  
 C28_33  C 1.0  0.72175000(0)  0.59575000(0)  0.42885000(0)  .  
 C28_34  C 1.0  0.57115000(0)  0.27825000(0)  0.40425000(0)  .  
 C28_35  C 1.0  0.40425000(0)  0.42885000(0)  0.72175000(0)  .  
 C28_36  C 1.0  0.72175000(0)  0.59575000(0)  0.57115000(0)  .  
 C28_37  C 1.0  0.27825000(0)  0.42885000(0)  0.59575000(0)  .  
 C28_38  C 1.0  0.42885000(0)  0.59575000(0)  0.27825000(0)  .  
 C28_39  C 1.0  0.59575000(0)  0.27825000(0)  0.42885000(0)  .  
 C28_40  C 1.0  0.27825000(0)  0.42885000(0)  0.40425000(0)  .  
 C28_41  C 1.0  0.42885000(0)  0.59575000(0)  0.72175000(0)  .  
 C28_42  C 1.0  0.59575000(0)  0.27825000(0)  0.57115000(0)  .  
 C28_43  C 1.0  0.27825000(0)  0.57115000(0)  0.59575000(0)  .  
 C28_44  C 1.0  0.42885000(0)  0.40425000(0)  0.27825000(0)  .  
 C28_45  C 1.0  0.59575000(0)  0.72175000(0)  0.42885000(0)  .  
 C28_46  C 1.0  0.27825000(0)  0.57115000(0)  0.40425000(0)  .  
 C28_47  C 1.0  0.42885000(0)  0.40425000(0)  0.72175000(0)  .  
 C28_48  C 1.0  0.59575000(0)  0.72175000(0)  0.57115000(0)  .  
 C28_49  C 1.0  0.57115000(0)  0.22175000(0)  0.90425000(0)  .  
 C28_50  C 1.0  0.07115000(0)  0.22175000(0)  0.40425000(0)  .  
 C28_51  C 1.0  0.07115000(0)  0.72175000(0)  0.90425000(0)  .  
 C28_52  C 1.0  0.40425000(0)  0.07115000(0)  0.22175000(0)  .  
 C28_53  C 1.0  0.90425000(0)  0.07115000(0)  0.72175000(0)  .  
 C28_54  C 1.0  0.90425000(0)  0.57115000(0)  0.22175000(0)  .  
 C28_55  C 1.0  0.72175000(0)  0.90425000(0)  0.07115000(0)  .  
 C28_56  C 1.0  0.22175000(0)  0.90425000(0)  0.57115000(0)  .  
 C28_57  C 1.0  0.22175000(0)  0.40425000(0)  0.07115000(0)  .  
 C28_58  C 1.0  0.57115000(0)  0.22175000(0)  0.09575000(0)  .  
 C28_59  C 1.0  0.07115000(0)  0.22175000(0)  0.59575000(0)  .  
 C28_60  C 1.0  0.07115000(0)  0.72175000(0)  0.09575000(0)  .  
 C28_61  C 1.0  0.40425000(0)  0.07115000(0)  0.77825000(0)  .  
 C28_62  C 1.0  0.90425000(0)  0.07115000(0)  0.27825000(0)  .  
 C28_63  C 1.0  0.90425000(0)  0.57115000(0)  0.77825000(0)  .  
 C28_64  C 1.0  0.72175000(0)  0.90425000(0)  0.92885000(0)  .  
 C28_65  C 1.0  0.22175000(0)  0.90425000(0)  0.42885000(0)  .  
 C28_66  C 1.0  0.22175000(0)  0.40425000(0)  0.92885000(0)  .  
 C28_67  C 1.0  0.42885000(0)  0.22175000(0)  0.90425000(0)  .  
 C28_68  C 1.0  0.92885000(0)  0.22175000(0)  0.40425000(0)  .  
 C28_69  C 1.0  0.92885000(0)  0.72175000(0)  0.90425000(0)  .  
 C28_70  C 1.0  0.59575000(0)  0.07115000(0)  0.22175000(0)  .  
 C28_71  C 1.0  0.09575000(0)  0.07115000(0)  0.72175000(0)  .  
 C28_72  C 1.0  0.09575000(0)  0.57115000(0)  0.22175000(0)  .  
 C28_73  C 1.0  0.27825000(0)  0.90425000(0)  0.07115000(0)  .  
 C28_74  C 1.0  0.77825000(0)  0.90425000(0)  0.57115000(0)  .  
 C28_75  C 1.0  0.77825000(0)  0.40425000(0)  0.07115000(0)  .  
 C28_76  C 1.0  0.42885000(0)  0.22175000(0)  0.09575000(0)  .  
 C28_77  C 1.0  0.92885000(0)  0.22175000(0)  0.59575000(0)  .  
 C28_78  C 1.0  0.92885000(0)  0.72175000(0)  0.09575000(0)  .  
 C28_79  C 1.0  0.59575000(0)  0.07115000(0)  0.77825000(0)  .  
 C28_80  C 1.0  0.09575000(0)  0.07115000(0)  0.27825000(0)  .  
 C28_81  C 1.0  0.09575000(0)  0.57115000(0)  0.77825000(0)  .  
 C28_82  C 1.0  0.27825000(0)  0.90425000(0)  0.92885000(0)  .  
 C28_83  C 1.0  0.77825000(0)  0.90425000(0)  0.42885000(0)  .  
 C28_84  C 1.0  0.77825000(0)  0.40425000(0)  0.92885000(0)  .  
 C28_85  C 1.0  0.72175000(0)  0.07115000(0)  0.90425000(0)  .  
 C28_86  C 1.0  0.22175000(0)  0.07115000(0)  0.40425000(0)  .  
 C28_87  C 1.0  0.22175000(0)  0.57115000(0)  0.90425000(0)  .  
 C28_88  C 1.0  0.57115000(0)  0.90425000(0)  0.22175000(0)  .  
 C28_89  C 1.0  0.07115000(0)  0.90425000(0)  0.72175000(0)  .  
 C28_90  C 1.0  0.07115000(0)  0.40425000(0)  0.22175000(0)  .  
 C28_91  C 1.0  0.40425000(0)  0.22175000(0)  0.07115000(0)  .  
 C28_92  C 1.0  0.90425000(0)  0.22175000(0)  0.57115000(0)  .  
 C28_93  C 1.0  0.90425000(0)  0.72175000(0)  0.07115000(0)  .  
 C28_94  C 1.0  0.72175000(0)  0.07115000(0)  0.09575000(0)  .  
 C28_95  C 1.0  0.22175000(0)  0.07115000(0)  0.59575000(0)  .  
 C28_96  C 1.0  0.22175000(0)  0.57115000(0)  0.09575000(0)  .  
 C28_97  C 1.0  0.57115000(0)  0.90425000(0)  0.77825000(0)  .  
 C28_98  C 1.0  0.07115000(0)  0.90425000(0)  0.27825000(0)  .  
 C28_99  C 1.0  0.07115000(0)  0.40425000(0)  0.77825000(0)  .  
 C28_100  C 1.0  0.40425000(0)  0.22175000(0)  0.92885000(0)  .  
 C28_101  C 1.0  0.90425000(0)  0.22175000(0)  0.42885000(0)  .  
 C28_102  C 1.0  0.90425000(0)  0.72175000(0)  0.92885000(0)  .  
 C28_103  C 1.0  0.72175000(0)  0.92885000(0)  0.90425000(0)  .  
 C28_104  C 1.0  0.22175000(0)  0.92885000(0)  0.40425000(0)  .  
 C28_105  C 1.0  0.22175000(0)  0.42885000(0)  0.90425000(0)  .  
 C28_106  C 1.0  0.57115000(0)  0.09575000(0)  0.22175000(0)  .  
 C28_107  C 1.0  0.07115000(0)  0.09575000(0)  0.72175000(0)  .  
 C28_108  C 1.0  0.07115000(0)  0.59575000(0)  0.22175000(0)  .  
 C28_109  C 1.0  0.40425000(0)  0.77825000(0)  0.07115000(0)  .  
 C28_110  C 1.0  0.90425000(0)  0.77825000(0)  0.57115000(0)  .  
 C28_111  C 1.0  0.90425000(0)  0.27825000(0)  0.07115000(0)  .  
 C28_112  C 1.0  0.72175000(0)  0.92885000(0)  0.09575000(0)  .  
 C28_113  C 1.0  0.22175000(0)  0.92885000(0)  0.59575000(0)  .  
 C28_114  C 1.0  0.22175000(0)  0.42885000(0)  0.09575000(0)  .  
 C28_115  C 1.0  0.57115000(0)  0.09575000(0)  0.77825000(0)  .  
 C28_116  C 1.0  0.07115000(0)  0.09575000(0)  0.27825000(0)  .  
 C28_117  C 1.0  0.07115000(0)  0.59575000(0)  0.77825000(0)  .  
 C28_118  C 1.0  0.40425000(0)  0.77825000(0)  0.92885000(0)  .  
 C28_119  C 1.0  0.90425000(0)  0.77825000(0)  0.42885000(0)  .  
 C28_120  C 1.0  0.90425000(0)  0.27825000(0)  0.92885000(0)  .  
 C28_121  C 1.0  0.42885000(0)  0.77825000(0)  0.09575000(0)  .  
 C28_122  C 1.0  0.92885000(0)  0.77825000(0)  0.59575000(0)  .  
 C28_123  C 1.0  0.92885000(0)  0.27825000(0)  0.09575000(0)  .  
 C28_124  C 1.0  0.59575000(0)  0.92885000(0)  0.77825000(0)  .  
 C28_125  C 1.0  0.09575000(0)  0.92885000(0)  0.27825000(0)  .  
 C28_126  C 1.0  0.09575000(0)  0.42885000(0)  0.77825000(0)  .  
 C28_127  C 1.0  0.27825000(0)  0.09575000(0)  0.92885000(0)  .  
 C28_128  C 1.0  0.77825000(0)  0.09575000(0)  0.42885000(0)  .  
 C28_129  C 1.0  0.77825000(0)  0.59575000(0)  0.92885000(0)  .  
 C28_130  C 1.0  0.42885000(0)  0.77825000(0)  0.90425000(0)  .  
 C28_131  C 1.0  0.92885000(0)  0.77825000(0)  0.40425000(0)  .  
 C28_132  C 1.0  0.92885000(0)  0.27825000(0)  0.90425000(0)  .  
 C28_133  C 1.0  0.59575000(0)  0.92885000(0)  0.22175000(0)  .  
 C28_134  C 1.0  0.09575000(0)  0.92885000(0)  0.72175000(0)  .  
 C28_135  C 1.0  0.09575000(0)  0.42885000(0)  0.22175000(0)  .  
 C28_136  C 1.0  0.27825000(0)  0.09575000(0)  0.07115000(0)  .  
 C28_137  C 1.0  0.77825000(0)  0.09575000(0)  0.57115000(0)  .  
 C28_138  C 1.0  0.77825000(0)  0.59575000(0)  0.07115000(0)  .  
 C28_139  C 1.0  0.57115000(0)  0.77825000(0)  0.09575000(0)  .  
 C28_140  C 1.0  0.07115000(0)  0.77825000(0)  0.59575000(0)  .  
 C28_141  C 1.0  0.07115000(0)  0.27825000(0)  0.09575000(0)  .  
 C28_142  C 1.0  0.40425000(0)  0.92885000(0)  0.77825000(0)  .  
 C28_143  C 1.0  0.90425000(0)  0.92885000(0)  0.27825000(0)  .  
 C28_144  C 1.0  0.90425000(0)  0.42885000(0)  0.77825000(0)  .  
 C28_145  C 1.0  0.72175000(0)  0.09575000(0)  0.92885000(0)  .  
 C28_146  C 1.0  0.22175000(0)  0.09575000(0)  0.42885000(0)  .  
 C28_147  C 1.0  0.22175000(0)  0.59575000(0)  0.92885000(0)  .  
 C28_148  C 1.0  0.57115000(0)  0.77825000(0)  0.90425000(0)  .  
 C28_149  C 1.0  0.07115000(0)  0.77825000(0)  0.40425000(0)  .  
 C28_150  C 1.0  0.07115000(0)  0.27825000(0)  0.90425000(0)  .  
 C28_151  C 1.0  0.40425000(0)  0.92885000(0)  0.22175000(0)  .  
 C28_152  C 1.0  0.90425000(0)  0.92885000(0)  0.72175000(0)  .  
 C28_153  C 1.0  0.90425000(0)  0.42885000(0)  0.22175000(0)  .  
 C28_154  C 1.0  0.72175000(0)  0.09575000(0)  0.07115000(0)  .  
 C28_155  C 1.0  0.22175000(0)  0.09575000(0)  0.57115000(0)  .  
 C28_156  C 1.0  0.22175000(0)  0.59575000(0)  0.07115000(0)  .  
 C28_157  C 1.0  0.27825000(0)  0.92885000(0)  0.09575000(0)  .  
 C28_158  C 1.0  0.77825000(0)  0.92885000(0)  0.59575000(0)  .  
 C28_159  C 1.0  0.77825000(0)  0.42885000(0)  0.09575000(0)  .  
 C28_160  C 1.0  0.42885000(0)  0.09575000(0)  0.77825000(0)  .  
 C28_161  C 1.0  0.92885000(0)  0.09575000(0)  0.27825000(0)  .  
 C28_162  C 1.0  0.92885000(0)  0.59575000(0)  0.77825000(0)  .  
 C28_163  C 1.0  0.59575000(0)  0.77825000(0)  0.92885000(0)  .  
 C28_164  C 1.0  0.09575000(0)  0.77825000(0)  0.42885000(0)  .  
 C28_165  C 1.0  0.09575000(0)  0.27825000(0)  0.92885000(0)  .  
 C28_166  C 1.0  0.27825000(0)  0.92885000(0)  0.90425000(0)  .  
 C28_167  C 1.0  0.77825000(0)  0.92885000(0)  0.40425000(0)  .  
 C28_168  C 1.0  0.77825000(0)  0.42885000(0)  0.90425000(0)  .  
 C28_169  C 1.0  0.42885000(0)  0.09575000(0)  0.22175000(0)  .  
 C28_170  C 1.0  0.92885000(0)  0.09575000(0)  0.72175000(0)  .  
 C28_171  C 1.0  0.92885000(0)  0.59575000(0)  0.22175000(0)  .  
 C28_172  C 1.0  0.59575000(0)  0.77825000(0)  0.07115000(0)  .  
 C28_173  C 1.0  0.09575000(0)  0.77825000(0)  0.57115000(0)  .  
 C28_174  C 1.0  0.09575000(0)  0.27825000(0)  0.07115000(0)  .  
 C28_175  C 1.0  0.27825000(0)  0.07115000(0)  0.09575000(0)  .  
 C28_176  C 1.0  0.77825000(0)  0.07115000(0)  0.59575000(0)  .  
 C28_177  C 1.0  0.77825000(0)  0.57115000(0)  0.09575000(0)  .  
 C28_178  C 1.0  0.42885000(0)  0.90425000(0)  0.77825000(0)  .  
 C28_179  C 1.0  0.92885000(0)  0.90425000(0)  0.27825000(0)  .  
 C28_180  C 1.0  0.92885000(0)  0.40425000(0)  0.77825000(0)  .  
 C28_181  C 1.0  0.59575000(0)  0.22175000(0)  0.92885000(0)  .  
 C28_182  C 1.0  0.09575000(0)  0.22175000(0)  0.42885000(0)  .  
 C28_183  C 1.0  0.09575000(0)  0.72175000(0)  0.92885000(0)  .  
 C28_184  C 1.0  0.27825000(0)  0.07115000(0)  0.90425000(0)  .  
 C28_185  C 1.0  0.77825000(0)  0.07115000(0)  0.40425000(0)  .  
 C28_186  C 1.0  0.77825000(0)  0.57115000(0)  0.90425000(0)  .  
 C28_187  C 1.0  0.42885000(0)  0.90425000(0)  0.22175000(0)  .  
 C28_188  C 1.0  0.92885000(0)  0.90425000(0)  0.72175000(0)  .  
 C28_189  C 1.0  0.92885000(0)  0.40425000(0)  0.22175000(0)  .  
 C28_190  C 1.0  0.59575000(0)  0.22175000(0)  0.07115000(0)  .  
 C28_191  C 1.0  0.09575000(0)  0.22175000(0)  0.57115000(0)  .  
 C28_192  C 1.0  0.09575000(0)  0.72175000(0)  0.07115000(0)  .  
 H27  H 1.0  0.56060000(0)  0.71380000(0)  0.39670000(0)  .  
 H27_2  H 1.0  0.39670000(0)  0.56060000(0)  0.71380000(0)  .  
 H27_3  H 1.0  0.71380000(0)  0.39670000(0)  0.56060000(0)  .  
 H27_4  H 1.0  0.56060000(0)  0.71380000(0)  0.60330000(0)  .  
 H27_5  H 1.0  0.39670000(0)  0.56060000(0)  0.28620000(0)  .  
 H27_6  H 1.0  0.71380000(0)  0.39670000(0)  0.43940000(0)  .  
 H27_7  H 1.0  0.43940000(0)  0.71380000(0)  0.39670000(0)  .  
 H27_8  H 1.0  0.60330000(0)  0.56060000(0)  0.71380000(0)  .  
 H27_9  H 1.0  0.28620000(0)  0.39670000(0)  0.56060000(0)  .  
 H27_10  H 1.0  0.43940000(0)  0.71380000(0)  0.60330000(0)  .  
 H27_11  H 1.0  0.60330000(0)  0.56060000(0)  0.28620000(0)  .  
 H27_12  H 1.0  0.28620000(0)  0.39670000(0)  0.43940000(0)  .  
 H27_13  H 1.0  0.71380000(0)  0.56060000(0)  0.39670000(0)  .  
 H27_14  H 1.0  0.56060000(0)  0.39670000(0)  0.71380000(0)  .  
 H27_15  H 1.0  0.39670000(0)  0.71380000(0)  0.56060000(0)  .  
 H27_16  H 1.0  0.71380000(0)  0.56060000(0)  0.60330000(0)  .  
 H27_17  H 1.0  0.56060000(0)  0.39670000(0)  0.28620000(0)  .  
 H27_18  H 1.0  0.39670000(0)  0.71380000(0)  0.43940000(0)  .  
 H27_19  H 1.0  0.71380000(0)  0.43940000(0)  0.39670000(0)  .  
 H27_20  H 1.0  0.56060000(0)  0.60330000(0)  0.71380000(0)  .  
 H27_21  H 1.0  0.39670000(0)  0.28620000(0)  0.56060000(0)  .  
 H27_22  H 1.0  0.71380000(0)  0.43940000(0)  0.60330000(0)  .  
 H27_23  H 1.0  0.56060000(0)  0.60330000(0)  0.28620000(0)  .  
 H27_24  H 1.0  0.39670000(0)  0.28620000(0)  0.43940000(0)  .  
 H27_25  H 1.0  0.43940000(0)  0.28620000(0)  0.60330000(0)  .  
 H27_26  H 1.0  0.60330000(0)  0.43940000(0)  0.28620000(0)  .  
 H27_27  H 1.0  0.28620000(0)  0.60330000(0)  0.43940000(0)  .  
 H27_28  H 1.0  0.43940000(0)  0.28620000(0)  0.39670000(0)  .  
 H27_29  H 1.0  0.60330000(0)  0.43940000(0)  0.71380000(0)  .  
 H27_30  H 1.0  0.28620000(0)  0.60330000(0)  0.56060000(0)  .  
 H27_31  H 1.0  0.56060000(0)  0.28620000(0)  0.60330000(0)  .  
 H27_32  H 1.0  0.39670000(0)  0.43940000(0)  0.28620000(0)  .  
 H27_33  H 1.0  0.71380000(0)  0.60330000(0)  0.43940000(0)  .  
 H27_34  H 1.0  0.56060000(0)  0.28620000(0)  0.39670000(0)  .  
 H27_35  H 1.0  0.39670000(0)  0.43940000(0)  0.71380000(0)  .  
 H27_36  H 1.0  0.71380000(0)  0.60330000(0)  0.56060000(0)  .  
 H27_37  H 1.0  0.28620000(0)  0.43940000(0)  0.60330000(0)  .  
 H27_38  H 1.0  0.43940000(0)  0.60330000(0)  0.28620000(0)  .  
 H27_39  H 1.0  0.60330000(0)  0.28620000(0)  0.43940000(0)  .  
 H27_40  H 1.0  0.28620000(0)  0.43940000(0)  0.39670000(0)  .  
 H27_41  H 1.0  0.43940000(0)  0.60330000(0)  0.71380000(0)  .  
 H27_42  H 1.0  0.60330000(0)  0.28620000(0)  0.56060000(0)  .  
 H27_43  H 1.0  0.28620000(0)  0.56060000(0)  0.60330000(0)  .  
 H27_44  H 1.0  0.43940000(0)  0.39670000(0)  0.28620000(0)  .  
 H27_45  H 1.0  0.60330000(0)  0.71380000(0)  0.43940000(0)  .  
 H27_46  H 1.0  0.28620000(0)  0.56060000(0)  0.39670000(0)  .  
 H27_47  H 1.0  0.43940000(0)  0.39670000(0)  0.71380000(0)  .  
 H27_48  H 1.0  0.60330000(0)  0.71380000(0)  0.56060000(0)  .  
 H27_49  H 1.0  0.56060000(0)  0.21380000(0)  0.89670000(0)  .  
 H27_50  H 1.0  0.06060000(0)  0.21380000(0)  0.39670000(0)  .  
 H27_51  H 1.0  0.06060000(0)  0.71380000(0)  0.89670000(0)  .  
 H27_52  H 1.0  0.39670000(0)  0.06060000(0)  0.21380000(0)  .  
 H27_53  H 1.0  0.89670000(0)  0.06060000(0)  0.71380000(0)  .  
 H27_54  H 1.0  0.89670000(0)  0.56060000(0)  0.21380000(0)  .  
 H27_55  H 1.0  0.71380000(0)  0.89670000(0)  0.06060000(0)  .  
 H27_56  H 1.0  0.21380000(0)  0.89670000(0)  0.56060000(0)  .  
 H27_57  H 1.0  0.21380000(0)  0.39670000(0)  0.06060000(0)  .  
 H27_58  H 1.0  0.56060000(0)  0.21380000(0)  0.10330000(0)  .  
 H27_59  H 1.0  0.06060000(0)  0.21380000(0)  0.60330000(0)  .  
 H27_60  H 1.0  0.06060000(0)  0.71380000(0)  0.10330000(0)  .  
 H27_61  H 1.0  0.39670000(0)  0.06060000(0)  0.78620000(0)  .  
 H27_62  H 1.0  0.89670000(0)  0.06060000(0)  0.28620000(0)  .  
 H27_63  H 1.0  0.89670000(0)  0.56060000(0)  0.78620000(0)  .  
 H27_64  H 1.0  0.71380000(0)  0.89670000(0)  0.93940000(0)  .  
 H27_65  H 1.0  0.21380000(0)  0.89670000(0)  0.43940000(0)  .  
 H27_66  H 1.0  0.21380000(0)  0.39670000(0)  0.93940000(0)  .  
 H27_67  H 1.0  0.43940000(0)  0.21380000(0)  0.89670000(0)  .  
 H27_68  H 1.0  0.93940000(0)  0.21380000(0)  0.39670000(0)  .  
 H27_69  H 1.0  0.93940000(0)  0.71380000(0)  0.89670000(0)  .  
 H27_70  H 1.0  0.60330000(0)  0.06060000(0)  0.21380000(0)  .  
 H27_71  H 1.0  0.10330000(0)  0.06060000(0)  0.71380000(0)  .  
 H27_72  H 1.0  0.10330000(0)  0.56060000(0)  0.21380000(0)  .  
 H27_73  H 1.0  0.28620000(0)  0.89670000(0)  0.06060000(0)  .  
 H27_74  H 1.0  0.78620000(0)  0.89670000(0)  0.56060000(0)  .  
 H27_75  H 1.0  0.78620000(0)  0.39670000(0)  0.06060000(0)  .  
 H27_76  H 1.0  0.43940000(0)  0.21380000(0)  0.10330000(0)  .  
 H27_77  H 1.0  0.93940000(0)  0.21380000(0)  0.60330000(0)  .  
 H27_78  H 1.0  0.93940000(0)  0.71380000(0)  0.10330000(0)  .  
 H27_79  H 1.0  0.60330000(0)  0.06060000(0)  0.78620000(0)  .  
 H27_80  H 1.0  0.10330000(0)  0.06060000(0)  0.28620000(0)  .  
 H27_81  H 1.0  0.10330000(0)  0.56060000(0)  0.78620000(0)  .  
 H27_82  H 1.0  0.28620000(0)  0.89670000(0)  0.93940000(0)  .  
 H27_83  H 1.0  0.78620000(0)  0.89670000(0)  0.43940000(0)  .  
 H27_84  H 1.0  0.78620000(0)  0.39670000(0)  0.93940000(0)  .  
 H27_85  H 1.0  0.71380000(0)  0.06060000(0)  0.89670000(0)  .  
 H27_86  H 1.0  0.21380000(0)  0.06060000(0)  0.39670000(0)  .  
 H27_87  H 1.0  0.21380000(0)  0.56060000(0)  0.89670000(0)  .  
 H27_88  H 1.0  0.56060000(0)  0.89670000(0)  0.21380000(0)  .  
 H27_89  H 1.0  0.06060000(0)  0.89670000(0)  0.71380000(0)  .  
 H27_90  H 1.0  0.06060000(0)  0.39670000(0)  0.21380000(0)  .  
 H27_91  H 1.0  0.39670000(0)  0.21380000(0)  0.06060000(0)  .  
 H27_92  H 1.0  0.89670000(0)  0.21380000(0)  0.56060000(0)  .  
 H27_93  H 1.0  0.89670000(0)  0.71380000(0)  0.06060000(0)  .  
 H27_94  H 1.0  0.71380000(0)  0.06060000(0)  0.10330000(0)  .  
 H27_95  H 1.0  0.21380000(0)  0.06060000(0)  0.60330000(0)  .  
 H27_96  H 1.0  0.21380000(0)  0.56060000(0)  0.10330000(0)  .  
 H27_97  H 1.0  0.56060000(0)  0.89670000(0)  0.78620000(0)  .  
 H27_98  H 1.0  0.06060000(0)  0.89670000(0)  0.28620000(0)  .  
 H27_99  H 1.0  0.06060000(0)  0.39670000(0)  0.78620000(0)  .  
 H27_100  H 1.0  0.39670000(0)  0.21380000(0)  0.93940000(0)  .  
 H27_101  H 1.0  0.89670000(0)  0.21380000(0)  0.43940000(0)  .  
 H27_102  H 1.0  0.89670000(0)  0.71380000(0)  0.93940000(0)  .  
 H27_103  H 1.0  0.71380000(0)  0.93940000(0)  0.89670000(0)  .  
 H27_104  H 1.0  0.21380000(0)  0.93940000(0)  0.39670000(0)  .  
 H27_105  H 1.0  0.21380000(0)  0.43940000(0)  0.89670000(0)  .  
 H27_106  H 1.0  0.56060000(0)  0.10330000(0)  0.21380000(0)  .  
 H27_107  H 1.0  0.06060000(0)  0.10330000(0)  0.71380000(0)  .  
 H27_108  H 1.0  0.06060000(0)  0.60330000(0)  0.21380000(0)  .  
 H27_109  H 1.0  0.39670000(0)  0.78620000(0)  0.06060000(0)  .  
 H27_110  H 1.0  0.89670000(0)  0.78620000(0)  0.56060000(0)  .  
 H27_111  H 1.0  0.89670000(0)  0.28620000(0)  0.06060000(0)  .  
 H27_112  H 1.0  0.71380000(0)  0.93940000(0)  0.10330000(0)  .  
 H27_113  H 1.0  0.21380000(0)  0.93940000(0)  0.60330000(0)  .  
 H27_114  H 1.0  0.21380000(0)  0.43940000(0)  0.10330000(0)  .  
 H27_115  H 1.0  0.56060000(0)  0.10330000(0)  0.78620000(0)  .  
 H27_116  H 1.0  0.06060000(0)  0.10330000(0)  0.28620000(0)  .  
 H27_117  H 1.0  0.06060000(0)  0.60330000(0)  0.78620000(0)  .  
 H27_118  H 1.0  0.39670000(0)  0.78620000(0)  0.93940000(0)  .  
 H27_119  H 1.0  0.89670000(0)  0.78620000(0)  0.43940000(0)  .  
 H27_120  H 1.0  0.89670000(0)  0.28620000(0)  0.93940000(0)  .  
 H27_121  H 1.0  0.43940000(0)  0.78620000(0)  0.10330000(0)  .  
 H27_122  H 1.0  0.93940000(0)  0.78620000(0)  0.60330000(0)  .  
 H27_123  H 1.0  0.93940000(0)  0.28620000(0)  0.10330000(0)  .  
 H27_124  H 1.0  0.60330000(0)  0.93940000(0)  0.78620000(0)  .  
 H27_125  H 1.0  0.10330000(0)  0.93940000(0)  0.28620000(0)  .  
 H27_126  H 1.0  0.10330000(0)  0.43940000(0)  0.78620000(0)  .  
 H27_127  H 1.0  0.28620000(0)  0.10330000(0)  0.93940000(0)  .  
 H27_128  H 1.0  0.78620000(0)  0.10330000(0)  0.43940000(0)  .  
 H27_129  H 1.0  0.78620000(0)  0.60330000(0)  0.93940000(0)  .  
 H27_130  H 1.0  0.43940000(0)  0.78620000(0)  0.89670000(0)  .  
 H27_131  H 1.0  0.93940000(0)  0.78620000(0)  0.39670000(0)  .  
 H27_132  H 1.0  0.93940000(0)  0.28620000(0)  0.89670000(0)  .  
 H27_133  H 1.0  0.60330000(0)  0.93940000(0)  0.21380000(0)  .  
 H27_134  H 1.0  0.10330000(0)  0.93940000(0)  0.71380000(0)  .  
 H27_135  H 1.0  0.10330000(0)  0.43940000(0)  0.21380000(0)  .  
 H27_136  H 1.0  0.28620000(0)  0.10330000(0)  0.06060000(0)  .  
 H27_137  H 1.0  0.78620000(0)  0.10330000(0)  0.56060000(0)  .  
 H27_138  H 1.0  0.78620000(0)  0.60330000(0)  0.06060000(0)  .  
 H27_139  H 1.0  0.56060000(0)  0.78620000(0)  0.10330000(0)  .  
 H27_140  H 1.0  0.06060000(0)  0.78620000(0)  0.60330000(0)  .  
 H27_141  H 1.0  0.06060000(0)  0.28620000(0)  0.10330000(0)  .  
 H27_142  H 1.0  0.39670000(0)  0.93940000(0)  0.78620000(0)  .  
 H27_143  H 1.0  0.89670000(0)  0.93940000(0)  0.28620000(0)  .  
 H27_144  H 1.0  0.89670000(0)  0.43940000(0)  0.78620000(0)  .  
 H27_145  H 1.0  0.71380000(0)  0.10330000(0)  0.93940000(0)  .  
 H27_146  H 1.0  0.21380000(0)  0.10330000(0)  0.43940000(0)  .  
 H27_147  H 1.0  0.21380000(0)  0.60330000(0)  0.93940000(0)  .  
 H27_148  H 1.0  0.56060000(0)  0.78620000(0)  0.89670000(0)  .  
 H27_149  H 1.0  0.06060000(0)  0.78620000(0)  0.39670000(0)  .  
 H27_150  H 1.0  0.06060000(0)  0.28620000(0)  0.89670000(0)  .  
 H27_151  H 1.0  0.39670000(0)  0.93940000(0)  0.21380000(0)  .  
 H27_152  H 1.0  0.89670000(0)  0.93940000(0)  0.71380000(0)  .  
 H27_153  H 1.0  0.89670000(0)  0.43940000(0)  0.21380000(0)  .  
 H27_154  H 1.0  0.71380000(0)  0.10330000(0)  0.06060000(0)  .  
 H27_155  H 1.0  0.21380000(0)  0.10330000(0)  0.56060000(0)  .  
 H27_156  H 1.0  0.21380000(0)  0.60330000(0)  0.06060000(0)  .  
 H27_157  H 1.0  0.28620000(0)  0.93940000(0)  0.10330000(0)  .  
 H27_158  H 1.0  0.78620000(0)  0.93940000(0)  0.60330000(0)  .  
 H27_159  H 1.0  0.78620000(0)  0.43940000(0)  0.10330000(0)  .  
 H27_160  H 1.0  0.43940000(0)  0.10330000(0)  0.78620000(0)  .  
 H27_161  H 1.0  0.93940000(0)  0.10330000(0)  0.28620000(0)  .  
 H27_162  H 1.0  0.93940000(0)  0.60330000(0)  0.78620000(0)  .  
 H27_163  H 1.0  0.60330000(0)  0.78620000(0)  0.93940000(0)  .  
 H27_164  H 1.0  0.10330000(0)  0.78620000(0)  0.43940000(0)  .  
 H27_165  H 1.0  0.10330000(0)  0.28620000(0)  0.93940000(0)  .  
 H27_166  H 1.0  0.28620000(0)  0.93940000(0)  0.89670000(0)  .  
 H27_167  H 1.0  0.78620000(0)  0.93940000(0)  0.39670000(0)  .  
 H27_168  H 1.0  0.78620000(0)  0.43940000(0)  0.89670000(0)  .  
 H27_169  H 1.0  0.43940000(0)  0.10330000(0)  0.21380000(0)  .  
 H27_170  H 1.0  0.93940000(0)  0.10330000(0)  0.71380000(0)  .  
 H27_171  H 1.0  0.93940000(0)  0.60330000(0)  0.21380000(0)  .  
 H27_172  H 1.0  0.60330000(0)  0.78620000(0)  0.06060000(0)  .  
 H27_173  H 1.0  0.10330000(0)  0.78620000(0)  0.56060000(0)  .  
 H27_174  H 1.0  0.10330000(0)  0.28620000(0)  0.06060000(0)  .  
 H27_175  H 1.0  0.28620000(0)  0.06060000(0)  0.10330000(0)  .  
 H27_176  H 1.0  0.78620000(0)  0.06060000(0)  0.60330000(0)  .  
 H27_177  H 1.0  0.78620000(0)  0.56060000(0)  0.10330000(0)  .  
 H27_178  H 1.0  0.43940000(0)  0.89670000(0)  0.78620000(0)  .  
 H27_179  H 1.0  0.93940000(0)  0.89670000(0)  0.28620000(0)  .  
 H27_180  H 1.0  0.93940000(0)  0.39670000(0)  0.78620000(0)  .  
 H27_181  H 1.0  0.60330000(0)  0.21380000(0)  0.93940000(0)  .  
 H27_182  H 1.0  0.10330000(0)  0.21380000(0)  0.43940000(0)  .  
 H27_183  H 1.0  0.10330000(0)  0.71380000(0)  0.93940000(0)  .  
 H27_184  H 1.0  0.28620000(0)  0.06060000(0)  0.89670000(0)  .  
 H27_185  H 1.0  0.78620000(0)  0.06060000(0)  0.39670000(0)  .  
 H27_186  H 1.0  0.78620000(0)  0.56060000(0)  0.89670000(0)  .  
 H27_187  H 1.0  0.43940000(0)  0.89670000(0)  0.21380000(0)  .  
 H27_188  H 1.0  0.93940000(0)  0.89670000(0)  0.71380000(0)  .  
 H27_189  H 1.0  0.93940000(0)  0.39670000(0)  0.21380000(0)  .  
 H27_190  H 1.0  0.60330000(0)  0.21380000(0)  0.06060000(0)  .  
 H27_191  H 1.0  0.10330000(0)  0.21380000(0)  0.56060000(0)  .  
 H27_192  H 1.0  0.10330000(0)  0.71380000(0)  0.06060000(0)  .  

