data_r3c_opt
_audit_creation_method         'generated by CrystalMaker X for macOS'
_cell_length_a                  31.245010
_cell_length_b                  31.245010
_cell_length_c                  31.245010
_cell_angle_alpha               89.999993
_cell_angle_beta                89.999993
_cell_angle_gamma               89.999993

_symmetry_space_group_name_H-M     'P 1'

loop_
_symmetry_equiv_pos_as_xyz
'+x,+y,+z'

loop_
_atom_site_label
_atom_site_type_symbol
_atom_site_occupancy
_atom_site_fract_x
_atom_site_fract_y
_atom_site_fract_z
 C1  C 0.13  -0.08452  0.00984  -0.49841
 C2  C 1.0  0.00128  -0.49467  0.3658
 C26  C 1.0  0.00314  -0.44199  0.48088
 C27  C 1.0  0.00345  -0.4477  0.43483
 C10_4  C 0.54  -0.23673  0.19218  -0.3633
 C10_5  C 0.54  -0.3633  -0.23673  0.19218
 C10_6  C 0.54  0.19218  -0.3633  -0.23673
 C10_10  C 0.54  0.23673  -0.19218  0.3633
 C10_11  C 0.54  0.3633  0.23673  -0.19218
 C10_12  C 0.54  -0.19218  0.3633  0.23673
 C10_14  C 0.54  -0.26327  -0.1367  0.30782
 C10_16  C 0.54  -0.1367  0.30782  -0.26327
 C10_18  C 0.54  0.30782  -0.26327  -0.1367
 C10_25  C 0.54  0.26327  0.1367  -0.30782
 C10_27  C 0.54  0.1367  -0.30782  0.26327
 C10_29  C 0.54  -0.30782  0.26327  0.1367
 C11_4  C 0.54  -0.23059  -0.18873  0.35893
 C11_5  C 0.54  0.35893  -0.23059  -0.18873
 C11_6  C 0.54  -0.18873  0.35893  -0.23059
 C11_10  C 0.54  0.23059  0.18873  -0.35893
 C11_11  C 0.54  -0.35893  0.23059  0.18873
 C11_12  C 0.54  0.18873  -0.35893  0.23059
 C11_14  C 0.54  -0.26941  0.14107  -0.31127
 C11_16  C 0.54  0.14107  -0.31127  -0.26941
 C11_18  C 0.54  -0.31127  -0.26941  0.14107
 C11_25  C 0.54  0.26941  -0.14107  0.31127
 C11_27  C 0.54  -0.14107  0.31127  0.26941
 C11_29  C 0.54  0.31127  0.26941  -0.14107
 C12_4  C 0.54  0.21068  -0.17038  -0.34003
 C12_5  C 0.54  -0.34003  0.21068  -0.17038
 C12_6  C 0.54  -0.17038  -0.34003  0.21068
 C12_10  C 0.54  -0.21068  0.17038  0.34003
 C12_11  C 0.54  0.34003  -0.21068  0.17038
 C12_12  C 0.54  0.17038  0.34003  -0.21068
 C12_14  C 0.54  0.28932  -0.15997  -0.32962
 C12_16  C 0.54  -0.15997  -0.32962  0.28932
 C12_18  C 0.54  -0.32962  0.28932  -0.15997
 C12_25  C 0.54  -0.28932  0.15997  0.32962
 C12_27  C 0.54  0.15997  0.32962  -0.28932
 C12_29  C 0.54  0.32962  -0.28932  0.15997
 C13_4  C 1.0  -0.25251  0.18361  -0.32035
 C13_5  C 1.0  -0.32035  -0.25251  0.18361
 C13_6  C 1.0  0.18361  -0.32035  -0.25251
 C13_10  C 1.0  0.25251  -0.18361  0.32035
 C13_11  C 1.0  0.32035  0.25251  -0.18361
 C13_12  C 1.0  -0.18361  0.32035  0.25251
 C13_14  C 1.0  -0.24749  -0.17965  0.31639
 C13_16  C 1.0  -0.17965  0.31639  -0.24749
 C13_18  C 1.0  0.31639  -0.24749  -0.17965
 C13_25  C 1.0  0.24749  0.17965  -0.31639
 C13_27  C 1.0  0.17965  -0.31639  0.24749
 C13_29  C 1.0  -0.31639  0.24749  0.17965
 C14_4  C 1.0  -0.25127  0.21842  -0.285
 C14_5  C 1.0  -0.285  -0.25127  0.21842
 C14_6  C 1.0  0.21842  -0.285  -0.25127
 C14_10  C 1.0  0.25127  -0.21842  0.285
 C14_11  C 1.0  0.285  0.25127  -0.21842
 C14_12  C 1.0  -0.21842  0.285  0.25127
 C14_14  C 1.0  -0.24873  -0.215  0.28158
 C14_16  C 1.0  -0.215  0.28158  -0.24873
 C14_18  C 1.0  0.28158  -0.24873  -0.215
 C14_25  C 1.0  0.24873  0.215  -0.28158
 C14_27  C 1.0  0.215  -0.28158  0.24873
 C14_29  C 1.0  -0.28158  0.24873  0.215
 C15_4  C 1.0  -0.28466  0.2199  -0.25261
 C15_5  C 1.0  -0.25261  -0.28466  0.2199
 C15_6  C 1.0  0.2199  -0.25261  -0.28466
 C15_10  C 1.0  0.28466  -0.2199  0.25261
 C15_11  C 1.0  0.25261  0.28466  -0.2199
 C15_12  C 1.0  -0.2199  0.25261  0.28466
 C15_14  C 1.0  -0.21534  -0.24739  0.2801
 C15_16  C 1.0  -0.24739  0.2801  -0.21534
 C15_18  C 1.0  0.2801  -0.21534  -0.24739
 C15_25  C 1.0  0.21534  0.24739  -0.2801
 C15_27  C 1.0  0.24739  -0.2801  0.21534
 C15_29  C 1.0  -0.2801  0.21534  0.24739
 C1_2  C 0.13  0.00984  -0.49841  -0.08452
 C1_3  C 0.13  -0.49841  -0.08452  0.00984
 C1_7  C 0.13  0.08452  -0.00984  0.49841
 C1_8  C 0.13  -0.00984  0.49841  0.08452
 C1_9  C 0.13  0.49841  0.08452  -0.00984
 C1_20  C 0.13  -0.41548  -0.00159  0.49016
 C1_22  C 0.13  0.49016  -0.41548  -0.00159
 C1_24  C 0.13  -0.00159  0.49016  -0.41548
 C1_31  C 0.13  0.41548  0.00159  -0.49016
 C1_33  C 0.13  -0.49016  0.41548  0.00159
 C1_35  C 0.13  0.00159  -0.49016  0.41548
 C24_14  C 1.0  -0.00053  0.47296  0.44408
 C24_16  C 1.0  0.47296  0.44408  -0.00053
 C24_18  C 1.0  0.44408  -0.00053  0.47296
 C24_20  C 1.0  -0.49947  0.05592  0.02704
 C24_22  C 1.0  0.02704  -0.49947  0.05592
 C24_24  C 1.0  0.05592  0.02704  -0.49947
 C24_25  C 1.0  0.00053  -0.47296  -0.44408
 C24_27  C 1.0  -0.47296  -0.44408  0.00053
 C24_29  C 1.0  -0.44408  0.00053  -0.47296
 C24_31  C 1.0  0.49947  -0.05592  -0.02704
 C24_33  C 1.0  -0.02704  0.49947  -0.05592
 C24_35  C 1.0  -0.05592  -0.02704  0.49947
 C25_14  C 1.0  -0.00091  0.47856  0.4907
 C25_16  C 1.0  0.47856  0.4907  -0.00091
 C25_18  C 1.0  0.4907  -0.00091  0.47856
 C25_20  C 1.0  -0.49909  0.0093  0.02144
 C25_22  C 1.0  0.02144  -0.49909  0.0093
 C25_24  C 1.0  0.0093  0.02144  -0.49909
 C25_25  C 1.0  0.00091  -0.47856  -0.4907
 C25_27  C 1.0  -0.47856  -0.4907  0.00091
 C25_29  C 1.0  -0.4907  0.00091  -0.47856
 C25_31  C 1.0  0.49909  -0.0093  -0.02144
 C25_33  C 1.0  -0.02144  0.49909  -0.0093
 C25_35  C 1.0  -0.0093  -0.02144  0.49909
 C26_2  C 1.0  -0.44199  0.48088  0.00314
 C26_3  C 1.0  0.48088  0.00314  -0.44199
 C26_7  C 1.0  -0.00314  0.44199  -0.48088
 C26_8  C 1.0  0.44199  -0.48088  -0.00314
 C26_9  C 1.0  -0.48088  -0.00314  0.44199
 C26_19  C 1.0  0.49686  0.01912  -0.05801
 C26_21  C 1.0  -0.05801  0.49686  0.01912
 C26_23  C 1.0  0.01912  -0.05801  0.49686
 C26_32  C 1.0  -0.49686  -0.01912  0.05801
 C26_34  C 1.0  0.05801  -0.49686  -0.01912
 C26_36  C 1.0  -0.01912  0.05801  -0.49686
 C27_2  C 1.0  -0.4477  0.43483  0.00345
 C27_3  C 1.0  0.43483  0.00345  -0.4477
 C27_7  C 1.0  -0.00345  0.4477  -0.43483
 C27_8  C 1.0  0.4477  -0.43483  -0.00345
 C27_9  C 1.0  -0.43483  -0.00345  0.4477
 C27_19  C 1.0  0.49655  0.06517  -0.0523
 C27_21  C 1.0  -0.0523  0.49655  0.06517
 C27_23  C 1.0  0.06517  -0.0523  0.49655
 C27_32  C 1.0  -0.49655  -0.06517  0.0523
 C27_34  C 1.0  0.0523  -0.49655  -0.06517
 C27_36  C 1.0  -0.06517  0.0523  -0.49655
 C2_2  C 1.0  -0.49467  0.3658  0.00128
 C2_3  C 1.0  0.3658  0.00128  -0.49467
 C2_7  C 1.0  -0.00128  0.49467  -0.3658
 C2_8  C 1.0  0.49467  -0.3658  -0.00128
 C2_9  C 1.0  -0.3658  -0.00128  0.49467
 C2_19  C 1.0  0.49872  0.1342  -0.00533
 C2_21  C 1.0  -0.00533  0.49872  0.1342
 C2_23  C 1.0  0.1342  -0.00533  0.49872
 C2_32  C 1.0  -0.49872  -0.1342  0.00533
 C2_34  C 1.0  0.00533  -0.49872  -0.1342
 C2_36  C 1.0  -0.1342  0.00533  -0.49872
 C3_14  C 0.54  0.26567  0.13832  0.30975
 C3_16  C 0.54  0.13832  0.30975  0.26567
 C3_18  C 0.54  0.30975  0.26567  0.13832
 C3_19  C 0.54  0.23433  0.19025  0.36168
 C3_21  C 0.54  0.36168  0.23433  0.19025
 C3_23  C 0.54  0.19025  0.36168  0.23433
 C3_25  C 0.54  -0.26567  -0.13832  -0.30975
 C3_27  C 0.54  -0.13832  -0.30975  -0.26567
 C3_29  C 0.54  -0.30975  -0.26567  -0.13832
 C3_32  C 0.54  -0.23433  -0.19025  -0.36168
 C3_34  C 0.54  -0.36168  -0.23433  -0.19025
 C3_36  C 0.54  -0.19025  -0.36168  -0.23433
 C40_13  C 1.0  0.217266666667  0.250003333333  0.28274
 C40_14  C 1.0  0.25  0.28274  0.21727
 C40_15  C 1.0  0.282736666667  0.21727  0.250003333333
 C40_16  C 1.0  -0.217266666667  -0.250003333333  -0.28274
 C40_17  C 1.0  -0.25  -0.28274  -0.21727
 C40_18  C 1.0  -0.282736666667  -0.21727  -0.250003333333
 C41_13  C 1.0  0.25001  0.21669  0.28331
 C41_14  C 1.0  0.216696666667  0.28331  0.250003333333
 C41_15  C 1.0  0.283316666667  0.250003333333  0.21669
 C41_16  C 1.0  -0.25001  -0.21669  -0.28331
 C41_17  C 1.0  -0.216696666667  -0.28331  -0.250003333333
 C41_18  C 1.0  -0.283316666667  -0.250003333333  -0.21669
 C42_13  C 1.0  0.25  0.18139  0.31862
 C42_14  C 1.0  0.181386666667  0.31862  0.250003333333
 C42_15  C 1.0  0.318616666667  0.250003333333  0.18139
 C42_16  C 1.0  -0.25  -0.18139  -0.31862
 C42_17  C 1.0  -0.181386666667  -0.31862  -0.250003333333
 C42_18  C 1.0  -0.318616666667  -0.250003333333  -0.18139
 C43_13  C 1.0  0.25001  0.11458  0.38542
 C43_14  C 1.0  0.114586666667  0.38542  0.250003333333
 C43_15  C 1.0  0.385426666667  0.250003333333  0.11458
 C43_16  C 1.0  -0.25001  -0.11458  -0.38542
 C43_17  C 1.0  -0.114586666667  -0.38542  -0.250003333333
 C43_18  C 1.0  -0.385426666667  -0.250003333333  -0.11458
 C44_13  C 1.0  0.079666666667  0.42034  0.250003333333
 C44_14  C 1.0  0.420336666667  0.250003333333  0.07967
 C44_15  C 1.0  0.25  0.07967  0.42034
 C44_16  C 1.0  -0.079666666667  -0.42034  -0.250003333333
 C44_17  C 1.0  -0.420336666667  -0.250003333333  -0.07967
 C44_18  C 1.0  -0.25  -0.07967  -0.42034
 C46_4  C 1.0  -0.41871  0.25  -0.08128
 C46_5  C 1.0  -0.08128  -0.41871  0.25
 C46_6  C 1.0  0.25  -0.08128  -0.41871
 C46_10  C 1.0  0.41871  -0.25  0.08128
 C46_11  C 1.0  0.08128  0.41871  -0.25
 C46_12  C 1.0  -0.25  0.08128  0.41871
 C47_4  C 1.0  0.25001  -0.11583  -0.38417
 C47_5  C 1.0  -0.38417  0.25001  -0.11583
 C47_6  C 1.0  -0.11583  -0.38417  0.25001
 C47_10  C 1.0  -0.25001  0.11583  0.38417
 C47_11  C 1.0  0.38417  -0.25001  0.11583
 C47_12  C 1.0  0.11583  0.38417  -0.25001
 C48_4  C 1.0  0.25001  -0.18212  -0.31788
 C48_5  C 1.0  -0.31788  0.25001  -0.18212
 C48_6  C 1.0  -0.18212  -0.31788  0.25001
 C48_10  C 1.0  -0.25001  0.18212  0.31788
 C48_11  C 1.0  0.31788  -0.25001  0.18212
 C48_12  C 1.0  0.18212  0.31788  -0.25001
 C49_4  C 1.0  0.25  -0.21716  -0.28283
 C49_5  C 1.0  -0.28283  0.25  -0.21716
 C49_6  C 1.0  -0.21716  -0.28283  0.25
 C49_10  C 1.0  -0.25  0.21716  0.28283
 C49_11  C 1.0  0.28283  -0.25  0.21716
 C49_12  C 1.0  0.21716  0.28283  -0.25
 C4_14  C 0.54  0.26613  0.10564  0.34275
 C4_16  C 0.54  0.10564  0.34275  0.26613
 C4_18  C 0.54  0.34275  0.26613  0.10564
 C4_19  C 0.54  0.23387  0.15725  0.39436
 C4_21  C 0.54  0.39436  0.23387  0.15725
 C4_23  C 0.54  0.15725  0.39436  0.23387
 C4_25  C 0.54  -0.26613  -0.10564  -0.34275
 C4_27  C 0.54  -0.10564  -0.34275  -0.26613
 C4_29  C 0.54  -0.34275  -0.26613  -0.10564
 C4_32  C 0.54  -0.23387  -0.15725  -0.39436
 C4_34  C 0.54  -0.39436  -0.23387  -0.15725
 C4_36  C 0.54  -0.15725  -0.39436  -0.23387
 C50_4  C 1.0  -0.28307  -0.21692  0.25
 C50_5  C 1.0  0.25  -0.28307  -0.21692
 C50_6  C 1.0  -0.21692  0.25  -0.28307
 C50_10  C 1.0  0.28307  0.21692  -0.25
 C50_11  C 1.0  -0.25  0.28307  0.21692
 C50_12  C 1.0  0.21692  -0.25  0.28307
 C5_4  C 1.0  -0.42109  -0.254  0.08175
 C5_5  C 1.0  0.08175  -0.42109  -0.254
 C5_6  C 1.0  -0.254  0.08175  -0.42109
 C5_10  C 1.0  0.42109  0.254  -0.08175
 C5_11  C 1.0  -0.08175  0.42109  0.254
 C5_12  C 1.0  0.254  -0.08175  0.42109
 C5_14  C 1.0  -0.07891  0.41825  -0.246
 C5_16  C 1.0  0.41825  -0.246  -0.07891
 C5_18  C 1.0  -0.246  -0.07891  0.41825
 C5_25  C 1.0  0.07891  -0.41825  0.246
 C5_27  C 1.0  -0.41825  0.246  0.07891
 C5_29  C 1.0  0.246  0.07891  -0.41825
 C6_4  C 1.0  -0.25442  0.1169  -0.38667
 C6_5  C 1.0  -0.38667  -0.25442  0.1169
 C6_6  C 1.0  0.1169  -0.38667  -0.25442
 C6_10  C 1.0  0.25442  -0.1169  0.38667
 C6_11  C 1.0  0.38667  0.25442  -0.1169
 C6_12  C 1.0  -0.1169  0.38667  0.25442
 C6_14  C 1.0  -0.24558  -0.11333  0.3831
 C6_16  C 1.0  -0.11333  0.3831  -0.24558
 C6_18  C 1.0  0.3831  -0.24558  -0.11333
 C6_25  C 1.0  0.24558  0.11333  -0.3831
 C6_27  C 1.0  0.11333  -0.3831  0.24558
 C6_29  C 1.0  -0.3831  0.24558  0.11333
 C7_4  C 0.54  -0.23734  0.15919  -0.39585
 C7_5  C 0.54  -0.39585  -0.23734  0.15919
 C7_6  C 0.54  0.15919  -0.39585  -0.23734
 C7_10  C 0.54  0.23734  -0.15919  0.39585
 C7_11  C 0.54  0.39585  0.23734  -0.15919
 C7_12  C 0.54  -0.15919  0.39585  0.23734
 C7_14  C 0.54  -0.26266  -0.10415  0.34081
 C7_16  C 0.54  -0.10415  0.34081  -0.26266
 C7_18  C 0.54  0.34081  -0.26266  -0.10415
 C7_25  C 0.54  0.26266  0.10415  -0.34081
 C7_27  C 0.54  0.10415  -0.34081  0.26266
 C7_29  C 0.54  -0.34081  0.26266  0.10415
 C8_4  C 0.54  -0.22925  -0.15592  0.39165
 C8_5  C 0.54  0.39165  -0.22925  -0.15592
 C8_6  C 0.54  -0.15592  0.39165  -0.22925
 C8_10  C 0.54  0.22925  0.15592  -0.39165
 C8_11  C 0.54  -0.39165  0.22925  0.15592
 C8_12  C 0.54  0.15592  -0.39165  0.22925
 C8_14  C 0.54  -0.27075  0.10835  -0.34408
 C8_16  C 0.54  0.10835  -0.34408  -0.27075
 C8_18  C 0.54  -0.34408  -0.27075  0.10835
 C8_25  C 0.54  0.27075  -0.10835  0.34408
 C8_27  C 0.54  -0.10835  0.34408  0.27075
 C8_29  C 0.54  0.34408  0.27075  -0.10835
 C9_4  C 0.54  0.21085  -0.13815  -0.37321
 C9_5  C 0.54  -0.37321  0.21085  -0.13815
 C9_6  C 0.54  -0.13815  -0.37321  0.21085
 C9_10  C 0.54  -0.21085  0.13815  0.37321
 C9_11  C 0.54  0.37321  -0.21085  0.13815
 C9_12  C 0.54  0.13815  0.37321  -0.21085
 C9_14  C 0.54  0.28915  -0.12679  -0.36185
 C9_16  C 0.54  -0.12679  -0.36185  0.28915
 C9_18  C 0.54  -0.36185  0.28915  -0.12679
 C9_25  C 0.54  -0.28915  0.12679  0.36185
 C9_27  C 0.54  0.12679  0.36185  -0.28915
 C9_29  C 0.54  0.36185  -0.28915  0.12679
 H38  H 1.0  0.00459  -0.4088  0.49424
 H39  H 1.0  0.00509  -0.41846  0.41424
 H28_14  H 1.0  0.27705  0.12938  0.27704
 H28_16  H 1.0  0.12938  0.27704  0.27705
 H28_18  H 1.0  0.27704  0.27705  0.12938
 H28_19  H 1.0  0.22295  0.22296  0.37062
 H28_21  H 1.0  0.37062  0.22295  0.22296
 H28_23  H 1.0  0.22296  0.37062  0.22295
 H28_25  H 1.0  -0.27705  -0.12938  -0.27704
 H28_27  H 1.0  -0.12938  -0.27704  -0.27705
 H28_29  H 1.0  -0.27704  -0.27705  -0.12938
 H28_32  H 1.0  -0.22295  -0.22296  -0.37062
 H28_34  H 1.0  -0.37062  -0.22295  -0.22296
 H28_36  H 1.0  -0.22296  -0.37062  -0.22295
 H29_14  H 1.0  0.27842  0.07302  0.33458
 H29_16  H 1.0  0.07302  0.33458  0.27842
 H29_18  H 1.0  0.33458  0.27842  0.07302
 H29_19  H 1.0  0.22158  0.16542  0.42698
 H29_21  H 1.0  0.42698  0.22158  0.16542
 H29_23  H 1.0  0.16542  0.42698  0.22158
 H29_25  H 1.0  -0.27842  -0.07302  -0.33458
 H29_27  H 1.0  -0.07302  -0.33458  -0.27842
 H29_29  H 1.0  -0.33458  -0.27842  -0.07302
 H29_32  H 1.0  -0.22158  -0.16542  -0.42698
 H29_34  H 1.0  -0.42698  -0.22158  -0.16542
 H29_36  H 1.0  -0.16542  -0.42698  -0.22158
 H30_4  H 1.0  -0.22475  0.16697  -0.42846
 H30_5  H 1.0  -0.42846  -0.22475  0.16697
 H30_6  H 1.0  0.16697  -0.42846  -0.22475
 H30_10  H 1.0  0.22475  -0.16697  0.42846
 H30_11  H 1.0  0.42846  0.22475  -0.16697
 H30_12  H 1.0  -0.16697  0.42846  0.22475
 H30_14  H 1.0  -0.27525  -0.07154  0.33303
 H30_16  H 1.0  -0.07154  0.33303  -0.27525
 H30_18  H 1.0  0.33303  -0.27525  -0.07154
 H30_25  H 1.0  0.27525  0.07154  -0.33303
 H30_27  H 1.0  0.07154  -0.33303  0.27525
 H30_29  H 1.0  -0.33303  0.27525  0.07154
 H31_4  H 1.0  -0.21632  -0.16423  0.42399
 H31_5  H 1.0  0.42399  -0.21632  -0.16423
 H31_6  H 1.0  -0.16423  0.42399  -0.21632
 H31_10  H 1.0  0.21632  0.16423  -0.42399
 H31_11  H 1.0  -0.42399  0.21632  0.16423
 H31_12  H 1.0  0.16423  -0.42399  0.21632
 H31_14  H 1.0  -0.28368  0.07601  -0.33577
 H31_16  H 1.0  0.07601  -0.33577  -0.28368
 H31_18  H 1.0  -0.33577  -0.28368  0.07601
 H31_25  H 1.0  0.28368  -0.07601  0.33577
 H31_27  H 1.0  -0.07601  0.33577  0.28368
 H31_29  H 1.0  0.33577  0.28368  -0.07601
 H32_4  H 1.0  0.18012  -0.12995  -0.38968
 H32_5  H 1.0  -0.38968  0.18012  -0.12995
 H32_6  H 1.0  -0.12995  -0.38968  0.18012
 H32_10  H 1.0  -0.18012  0.12995  0.38968
 H32_11  H 1.0  0.38968  -0.18012  0.12995
 H32_12  H 1.0  0.12995  0.38968  -0.18012
 H32_14  H 1.0  0.31988  -0.11032  -0.37005
 H32_16  H 1.0  -0.11032  -0.37005  0.31988
 H32_18  H 1.0  -0.37005  0.31988  -0.11032
 H32_25  H 1.0  -0.31988  0.11032  0.37005
 H32_27  H 1.0  0.11032  0.37005  -0.31988
 H32_29  H 1.0  0.37005  -0.31988  0.11032
 H33_4  H 1.0  -0.22426  0.22455  -0.37208
 H33_5  H 1.0  -0.37208  -0.22426  0.22455
 H33_6  H 1.0  0.22455  -0.37208  -0.22426
 H33_10  H 1.0  0.22426  -0.22455  0.37208
 H33_11  H 1.0  0.37208  0.22426  -0.22455
 H33_12  H 1.0  -0.22455  0.37208  0.22426
 H33_14  H 1.0  -0.27574  -0.12792  0.27545
 H33_16  H 1.0  -0.12792  0.27545  -0.27574
 H33_18  H 1.0  0.27545  -0.27574  -0.12792
 H33_25  H 1.0  0.27574  0.12792  -0.27545
 H33_27  H 1.0  0.12792  -0.27545  0.27574
 H33_29  H 1.0  -0.27545  0.27574  0.12792
 H34_4  H 1.0  -0.21903  -0.22151  0.3674
 H34_5  H 1.0  0.3674  -0.21903  -0.22151
 H34_6  H 1.0  -0.22151  0.3674  -0.21903
 H34_10  H 1.0  0.21903  0.22151  -0.3674
 H34_11  H 1.0  -0.3674  0.21903  0.22151
 H34_12  H 1.0  0.22151  -0.3674  0.21903
 H34_14  H 1.0  -0.28097  0.1326  -0.27849
 H34_16  H 1.0  0.1326  -0.27849  -0.28097
 H34_18  H 1.0  -0.27849  -0.28097  0.1326
 H34_25  H 1.0  0.28097  -0.1326  0.27849
 H34_27  H 1.0  -0.1326  0.27849  0.28097
 H34_29  H 1.0  0.27849  0.28097  -0.1326
 H35_4  H 1.0  0.17946  -0.18558  -0.33144
 H35_5  H 1.0  -0.33144  0.17946  -0.18558
 H35_6  H 1.0  -0.18558  -0.33144  0.17946
 H35_10  H 1.0  -0.17946  0.18558  0.33144
 H35_11  H 1.0  0.33144  -0.17946  0.18558
 H35_12  H 1.0  0.18558  0.33144  -0.17946
 H35_14  H 1.0  0.32054  -0.16856  -0.31442
 H35_16  H 1.0  -0.16856  -0.31442  0.32054
 H35_18  H 1.0  -0.31442  0.32054  -0.16856
 H35_25  H 1.0  -0.32054  0.16856  0.31442
 H35_27  H 1.0  0.16856  0.31442  -0.32054
 H35_29  H 1.0  0.31442  -0.32054  0.16856
 H36_4  H 1.0  -0.31268  0.19791  -0.25555
 H36_5  H 1.0  -0.25555  -0.31268  0.19791
 H36_6  H 1.0  0.19791  -0.25555  -0.31268
 H36_10  H 1.0  0.31268  -0.19791  0.25555
 H36_11  H 1.0  0.25555  0.31268  -0.19791
 H36_12  H 1.0  -0.19791  0.25555  0.31268
 H36_14  H 1.0  -0.18732  -0.24445  0.30209
 H36_16  H 1.0  -0.24445  0.30209  -0.18732
 H36_18  H 1.0  0.30209  -0.18732  -0.24445
 H36_25  H 1.0  0.18732  0.24445  -0.30209
 H36_27  H 1.0  0.24445  -0.30209  0.18732
 H36_29  H 1.0  -0.30209  0.18732  0.24445
 H37_14  H 1.0  -0.00207  0.43997  0.43016
 H37_16  H 1.0  0.43997  0.43016  -0.00207
 H37_18  H 1.0  0.43016  -0.00207  0.43997
 H37_20  H 1.0  -0.49793  0.06984  0.06003
 H37_22  H 1.0  0.06003  -0.49793  0.06984
 H37_24  H 1.0  0.06984  0.06003  -0.49793
 H37_25  H 1.0  0.00207  -0.43997  -0.43016
 H37_27  H 1.0  -0.43997  -0.43016  0.00207
 H37_29  H 1.0  -0.43016  0.00207  -0.43997
 H37_31  H 1.0  0.49793  -0.06984  -0.06003
 H37_33  H 1.0  -0.06003  0.49793  -0.06984
 H37_35  H 1.0  -0.06984  -0.06003  0.49793
 H38_2  H 1.0  -0.4088  0.49424  0.00459
 H38_3  H 1.0  0.49424  0.00459  -0.4088
 H38_7  H 1.0  -0.00459  0.4088  -0.49424
 H38_8  H 1.0  0.4088  -0.49424  -0.00459
 H38_9  H 1.0  -0.49424  -0.00459  0.4088
 H38_19  H 1.0  0.49541  0.00576  -0.0912
 H38_21  H 1.0  -0.0912  0.49541  0.00576
 H38_23  H 1.0  0.00576  -0.0912  0.49541
 H38_32  H 1.0  -0.49541  -0.00576  0.0912
 H38_34  H 1.0  0.0912  -0.49541  -0.00576
 H38_36  H 1.0  -0.00576  0.0912  -0.49541
 H39_2  H 1.0  -0.41846  0.41424  0.00509
 H39_3  H 1.0  0.41424  0.00509  -0.41846
 H39_7  H 1.0  -0.00509  0.41846  -0.41424
 H39_8  H 1.0  0.41846  -0.41424  -0.00509
 H39_9  H 1.0  -0.41424  -0.00509  0.41846
 H39_19  H 1.0  0.49491  0.08576  -0.08154
 H39_21  H 1.0  -0.08154  0.49491  0.08576
 H39_23  H 1.0  0.08576  -0.08154  0.49491
 H39_32  H 1.0  -0.49491  -0.08576  0.08154
 H39_34  H 1.0  0.08154  -0.49491  -0.08576
 H39_36  H 1.0  -0.08576  0.08154  -0.49491
 H40A_13  H 1.0  0.192006666667  0.250003333333  0.308
 H40A_14  H 1.0  0.25  0.308  0.19201
 H40A_15  H 1.0  0.307996666667  0.19201  0.250003333333
 H40A_16  H 1.0  -0.192006666667  -0.250003333333  -0.308
 H40A_17  H 1.0  -0.25  -0.308  -0.19201
 H40A_18  H 1.0  -0.307996666667  -0.19201  -0.250003333333
 H50A_4  H 1.0  -0.30834  -0.19165  0.25
 H50A_5  H 1.0  0.25  -0.30834  -0.19165
 H50A_6  H 1.0  -0.19165  0.25  -0.30834
 H50A_10  H 1.0  0.30834  0.19165  -0.25
 H50A_11  H 1.0  -0.25  0.30834  0.19165
 H50A_12  H 1.0  0.19165  -0.25  0.30834
 O45  O 1.0  -0.00082  -0.49917  0.25
 O16_14  O 0.54  0.04759  0.41759  0.27727
 O16_16  O 0.54  0.41759  0.27727  0.04759
 O16_18  O 0.54  0.27727  0.04759  0.41759
 O16_19  O 0.54  0.45241  0.22273  0.08241
 O16_21  O 0.54  0.08241  0.45241  0.22273
 O16_23  O 0.54  0.22273  0.08241  0.45241
 O16_25  O 0.54  -0.04759  -0.41759  -0.27727
 O16_27  O 0.54  -0.41759  -0.27727  -0.04759
 O16_29  O 0.54  -0.27727  -0.04759  -0.41759
 O16_32  O 0.54  -0.45241  -0.22273  -0.08241
 O16_34  O 0.54  -0.08241  -0.45241  -0.22273
 O16_36  O 0.54  -0.22273  -0.08241  -0.45241
 O17_14  O 1.0  0.00085  0.46749  0.34701
 O17_16  O 1.0  0.46749  0.34701  0.00085
 O17_18  O 1.0  0.34701  0.00085  0.46749
 O17_19  O 1.0  0.49915  0.15299  0.03251
 O17_21  O 1.0  0.03251  0.49915  0.15299
 O17_23  O 1.0  0.15299  0.03251  0.49915
 O17_25  O 1.0  -0.00085  -0.46749  -0.34701
 O17_27  O 1.0  -0.46749  -0.34701  -0.00085
 O17_29  O 1.0  -0.34701  -0.00085  -0.46749
 O17_32  O 1.0  -0.49915  -0.15299  -0.03251
 O17_34  O 1.0  -0.03251  -0.49915  -0.15299
 O17_36  O 1.0  -0.15299  -0.03251  -0.49915
 O18_14  O 1.0  0.00116  -0.45966  0.34256
 O18_16  O 1.0  -0.45966  0.34256  0.00116
 O18_18  O 1.0  0.34256  0.00116  -0.45966
 O18_20  O 1.0  0.49884  0.15744  -0.04034
 O18_22  O 1.0  -0.04034  0.49884  0.15744
 O18_24  O 1.0  0.15744  -0.04034  0.49884
 O18_25  O 1.0  -0.00116  0.45966  -0.34256
 O18_27  O 1.0  0.45966  -0.34256  -0.00116
 O18_29  O 1.0  -0.34256  -0.00116  0.45966
 O18_31  O 1.0  -0.49884  -0.15744  0.04034
 O18_33  O 1.0  0.04034  -0.49884  -0.15744
 O18_35  O 1.0  -0.15744  0.04034  -0.49884
 O19_4  O 0.54  -0.45171  0.22436  -0.08516
 O19_5  O 0.54  -0.08516  -0.45171  0.22436
 O19_6  O 0.54  0.22436  -0.08516  -0.45171
 O19_10  O 0.54  0.45171  -0.22436  0.08516
 O19_11  O 0.54  0.08516  0.45171  -0.22436
 O19_12  O 0.54  -0.22436  0.08516  0.45171
 O19_14  O 0.54  -0.04829  -0.41484  0.27564
 O19_16  O 0.54  -0.41484  0.27564  -0.04829
 O19_18  O 0.54  0.27564  -0.04829  -0.41484
 O19_25  O 0.54  0.04829  0.41484  -0.27564
 O19_27  O 0.54  0.41484  -0.27564  0.04829
 O19_29  O 0.54  -0.27564  0.04829  0.41484
 O20_4  O 0.54  -0.4536  -0.22769  0.08561
 O20_5  O 0.54  0.08561  -0.4536  -0.22769
 O20_6  O 0.54  -0.22769  0.08561  -0.4536
 O20_10  O 0.54  0.4536  0.22769  -0.08561
 O20_11  O 0.54  -0.08561  0.4536  0.22769
 O20_12  O 0.54  0.22769  -0.08561  0.4536
 O20_14  O 0.54  -0.0464  0.41439  -0.27231
 O20_16  O 0.54  0.41439  -0.27231  -0.0464
 O20_18  O 0.54  -0.27231  -0.0464  0.41439
 O20_25  O 0.54  0.0464  -0.41439  0.27231
 O20_27  O 0.54  -0.41439  0.27231  0.0464
 O20_29  O 0.54  0.27231  0.0464  -0.41439
 O21_4  O 0.54  0.45166  -0.22052  -0.08246
 O21_5  O 0.54  -0.08246  0.45166  -0.22052
 O21_6  O 0.54  -0.22052  -0.08246  0.45166
 O21_10  O 0.54  -0.45166  0.22052  0.08246
 O21_11  O 0.54  0.08246  -0.45166  0.22052
 O21_12  O 0.54  0.22052  0.08246  -0.45166
 O21_14  O 0.54  0.04834  -0.41754  -0.27948
 O21_16  O 0.54  -0.41754  -0.27948  0.04834
 O21_18  O 0.54  -0.27948  0.04834  -0.41754
 O21_25  O 0.54  -0.04834  0.41754  0.27948
 O21_27  O 0.54  0.41754  0.27948  -0.04834
 O21_29  O 0.54  0.27948  -0.04834  0.41754
 O45_2  O 1.0  -0.49917  0.25  -0.00082
 O45_3  O 1.0  0.25  -0.00082  -0.49917
 O45_7  O 1.0  0.00082  0.49917  -0.25
 O45_8  O 1.0  0.49917  -0.25  0.00082
 O45_9  O 1.0  -0.25  0.00082  0.49917
 ZN22_14  Zn 1.0  -0.00016  0.45253  0.28765
 ZN22_16  Zn 1.0  0.45253  0.28765  -0.00016
 ZN22_18  Zn 1.0  0.28765  -0.00016  0.45253
 ZN22_20  Zn 1.0  -0.49984  0.21235  0.04747
 ZN22_22  Zn 1.0  0.04747  -0.49984  0.21235
 ZN22_24  Zn 1.0  0.21235  0.04747  -0.49984
 ZN22_25  Zn 1.0  0.00016  -0.45253  -0.28765
 ZN22_27  Zn 1.0  -0.45253  -0.28765  0.00016
 ZN22_29  Zn 1.0  -0.28765  0.00016  -0.45253
 ZN22_31  Zn 1.0  0.49984  -0.21235  -0.04747
 ZN22_33  Zn 1.0  -0.04747  0.49984  -0.21235
 ZN22_35  Zn 1.0  -0.21235  -0.04747  0.49984
 ZN23_4  Zn 1.0  -0.49962  0.21603  -0.05109
 ZN23_5  Zn 1.0  -0.05109  -0.49962  0.21603
 ZN23_6  Zn 1.0  0.21603  -0.05109  -0.49962
 ZN23_10  Zn 1.0  0.49962  -0.21603  0.05109
 ZN23_11  Zn 1.0  0.05109  0.49962  -0.21603
 ZN23_12  Zn 1.0  -0.21603  0.05109  0.49962
 ZN23_14  Zn 1.0  -0.00038  -0.44891  0.28397
 ZN23_16  Zn 1.0  -0.44891  0.28397  -0.00038
 ZN23_18  Zn 1.0  0.28397  -0.00038  -0.44891
 ZN23_25  Zn 1.0  0.00038  0.44891  -0.28397
 ZN23_27  Zn 1.0  0.44891  -0.28397  0.00038
 ZN23_29  Zn 1.0  -0.28397  0.00038  0.44891

