data_m399
_audit_creation_method         'generated by CrystalMaker X for macOS'
_cell_length_a                  68.311200(0)
_cell_length_b                  68.311200(0)
_cell_length_c                  68.311200(0)
_cell_angle_alpha               90.000000(0)
_cell_angle_beta                90.000000(0)
_cell_angle_gamma               90.000000(0)

_symmetry_space_group_name_H-M     'P 1'

loop_
_symmetry_equiv_pos_as_xyz
'+x,+y,+z'

loop_
_atom_site_label
_atom_site_type_symbol
_atom_site_occupancy
_atom_site_fract_x
_atom_site_fract_y
_atom_site_fract_z
_atom_site_U_iso_or_equiv
 C1  C 1.0  0.14749000(14000)  0.17323000(16000)  0.14749000(14000)  0.37067
 C2  C 1.0  0.13880000(16000)  0.16460000(15000)  0.16460000(15000)  0.35933
 C3  C 1.0  0.12250000(20000)  0.17570000(17000)  0.17570000(17000)  0.39200
 C4  C 1.0  0.11476000(18000)  0.19329000(15000)  0.16750000(16000)  0.55667
 C5  C 1.0  0.09840000(20000)  0.20241000(19000)  0.17653000(17000)  0.54000
 C6  C 1.0  0.08970000(20000)  0.19295000(18000)  0.19295000(18000)  0.33267
 C7  C 1.0  0.07159000(17000)  0.20205000(12000)  0.20205000(12000)  0.23667
 C8  C 1.0  0.06450000(16000)  0.21978000(12000)  0.19384000(13000)  0.33633
 C9  C 1.0  0.04903000(16000)  0.22973000(15000)  0.20379000(14000)  0.37167
 C10  C 1.0  0.04080000(20000)  0.22109000(15000)  0.22109000(15000)  0.26367
 C11  C 1.0  0.02520000(20000)  0.23254000(18000)  0.23254000(18000)  0.38667
 C10_2  C 1.0  0.22109000(20000)  0.04080000(15000)  0.22109000(15000)  0.26367
 C10_3  C 1.0  0.22109000(20000)  0.22109000(15000)  0.04080000(15000)  0.26367
 C10_4  C 1.0  0.04080000(20000)  0.22109000(15000)  0.77891000(15000)  0.26367
 C10_5  C 1.0  0.22109000(20000)  0.04080000(15000)  0.77891000(15000)  0.26367
 C10_6  C 1.0  0.22109000(20000)  0.22109000(15000)  0.95920000(15000)  0.26367
 C10_7  C 1.0  0.95920000(20000)  0.22109000(15000)  0.22109000(15000)  0.26367
 C10_8  C 1.0  0.77891000(20000)  0.04080000(15000)  0.22109000(15000)  0.26367
 C10_9  C 1.0  0.77891000(20000)  0.22109000(15000)  0.04080000(15000)  0.26367
 C10_10  C 1.0  0.95920000(20000)  0.22109000(15000)  0.77891000(15000)  0.26367
 C10_11  C 1.0  0.77891000(20000)  0.04080000(15000)  0.77891000(15000)  0.26367
 C10_12  C 1.0  0.77891000(20000)  0.22109000(15000)  0.95920000(15000)  0.26367
 C10_13  C 1.0  0.22109000(20000)  0.95920000(15000)  0.22109000(15000)  0.26367
 C10_14  C 1.0  0.04080000(20000)  0.77891000(15000)  0.22109000(15000)  0.26367
 C10_15  C 1.0  0.22109000(20000)  0.77891000(15000)  0.04080000(15000)  0.26367
 C10_16  C 1.0  0.22109000(20000)  0.95920000(15000)  0.77891000(15000)  0.26367
 C10_17  C 1.0  0.04080000(20000)  0.77891000(15000)  0.77891000(15000)  0.26367
 C10_18  C 1.0  0.22109000(20000)  0.77891000(15000)  0.95920000(15000)  0.26367
 C10_19  C 1.0  0.95920000(20000)  0.77891000(15000)  0.77891000(15000)  0.26367
 C10_20  C 1.0  0.77891000(20000)  0.95920000(15000)  0.77891000(15000)  0.26367
 C10_21  C 1.0  0.77891000(20000)  0.77891000(15000)  0.95920000(15000)  0.26367
 C10_22  C 1.0  0.95920000(20000)  0.77891000(15000)  0.22109000(15000)  0.26367
 C10_23  C 1.0  0.77891000(20000)  0.95920000(15000)  0.22109000(15000)  0.26367
 C10_24  C 1.0  0.77891000(20000)  0.77891000(15000)  0.04080000(15000)  0.26367
 C10_25  C 1.0  0.04080000(20000)  0.72109000(15000)  0.72109000(15000)  0.26367
 C10_26  C 1.0  0.54080000(20000)  0.72109000(15000)  0.22109000(15000)  0.26367
 C10_27  C 1.0  0.54080000(20000)  0.22109000(15000)  0.72109000(15000)  0.26367
 C10_28  C 1.0  0.22109000(20000)  0.54080000(15000)  0.72109000(15000)  0.26367
 C10_29  C 1.0  0.72109000(20000)  0.54080000(15000)  0.22109000(15000)  0.26367
 C10_30  C 1.0  0.72109000(20000)  0.04080000(15000)  0.72109000(15000)  0.26367
 C10_31  C 1.0  0.22109000(20000)  0.72109000(15000)  0.54080000(15000)  0.26367
 C10_32  C 1.0  0.72109000(20000)  0.72109000(15000)  0.04080000(15000)  0.26367
 C10_33  C 1.0  0.72109000(20000)  0.22109000(15000)  0.54080000(15000)  0.26367
 C10_34  C 1.0  0.04080000(20000)  0.72109000(15000)  0.27891000(15000)  0.26367
 C10_35  C 1.0  0.54080000(20000)  0.72109000(15000)  0.77891000(15000)  0.26367
 C10_36  C 1.0  0.54080000(20000)  0.22109000(15000)  0.27891000(15000)  0.26367
 C10_37  C 1.0  0.22109000(20000)  0.54080000(15000)  0.27891000(15000)  0.26367
 C10_38  C 1.0  0.72109000(20000)  0.54080000(15000)  0.77891000(15000)  0.26367
 C10_39  C 1.0  0.72109000(20000)  0.04080000(15000)  0.27891000(15000)  0.26367
 C10_40  C 1.0  0.22109000(20000)  0.72109000(15000)  0.45920000(15000)  0.26367
 C10_41  C 1.0  0.72109000(20000)  0.72109000(15000)  0.95920000(15000)  0.26367
 C10_42  C 1.0  0.72109000(20000)  0.22109000(15000)  0.45920000(15000)  0.26367
 C10_43  C 1.0  0.95920000(20000)  0.72109000(15000)  0.72109000(15000)  0.26367
 C10_44  C 1.0  0.45920000(20000)  0.72109000(15000)  0.22109000(15000)  0.26367
 C10_45  C 1.0  0.45920000(20000)  0.22109000(15000)  0.72109000(15000)  0.26367
 C10_46  C 1.0  0.77891000(20000)  0.54080000(15000)  0.72109000(15000)  0.26367
 C10_47  C 1.0  0.27891000(20000)  0.54080000(15000)  0.22109000(15000)  0.26367
 C10_48  C 1.0  0.27891000(20000)  0.04080000(15000)  0.72109000(15000)  0.26367
 C10_49  C 1.0  0.77891000(20000)  0.72109000(15000)  0.54080000(15000)  0.26367
 C10_50  C 1.0  0.27891000(20000)  0.72109000(15000)  0.04080000(15000)  0.26367
 C10_51  C 1.0  0.27891000(20000)  0.22109000(15000)  0.54080000(15000)  0.26367
 C10_52  C 1.0  0.95920000(20000)  0.72109000(15000)  0.27891000(15000)  0.26367
 C10_53  C 1.0  0.45920000(20000)  0.72109000(15000)  0.77891000(15000)  0.26367
 C10_54  C 1.0  0.45920000(20000)  0.22109000(15000)  0.27891000(15000)  0.26367
 C10_55  C 1.0  0.77891000(20000)  0.54080000(15000)  0.27891000(15000)  0.26367
 C10_56  C 1.0  0.27891000(20000)  0.54080000(15000)  0.77891000(15000)  0.26367
 C10_57  C 1.0  0.27891000(20000)  0.04080000(15000)  0.27891000(15000)  0.26367
 C10_58  C 1.0  0.77891000(20000)  0.72109000(15000)  0.45920000(15000)  0.26367
 C10_59  C 1.0  0.27891000(20000)  0.72109000(15000)  0.95920000(15000)  0.26367
 C10_60  C 1.0  0.27891000(20000)  0.22109000(15000)  0.45920000(15000)  0.26367
 C10_61  C 1.0  0.22109000(20000)  0.45920000(15000)  0.72109000(15000)  0.26367
 C10_62  C 1.0  0.72109000(20000)  0.45920000(15000)  0.22109000(15000)  0.26367
 C10_63  C 1.0  0.72109000(20000)  0.95920000(15000)  0.72109000(15000)  0.26367
 C10_64  C 1.0  0.04080000(20000)  0.27891000(15000)  0.72109000(15000)  0.26367
 C10_65  C 1.0  0.54080000(20000)  0.27891000(15000)  0.22109000(15000)  0.26367
 C10_66  C 1.0  0.54080000(20000)  0.77891000(15000)  0.72109000(15000)  0.26367
 C10_67  C 1.0  0.22109000(20000)  0.27891000(15000)  0.54080000(15000)  0.26367
 C10_68  C 1.0  0.72109000(20000)  0.27891000(15000)  0.04080000(15000)  0.26367
 C10_69  C 1.0  0.72109000(20000)  0.77891000(15000)  0.54080000(15000)  0.26367
 C10_70  C 1.0  0.22109000(20000)  0.45920000(15000)  0.27891000(15000)  0.26367
 C10_71  C 1.0  0.72109000(20000)  0.45920000(15000)  0.77891000(15000)  0.26367
 C10_72  C 1.0  0.72109000(20000)  0.95920000(15000)  0.27891000(15000)  0.26367
 C10_73  C 1.0  0.04080000(20000)  0.27891000(15000)  0.27891000(15000)  0.26367
 C10_74  C 1.0  0.54080000(20000)  0.27891000(15000)  0.77891000(15000)  0.26367
 C10_75  C 1.0  0.54080000(20000)  0.77891000(15000)  0.27891000(15000)  0.26367
 C10_76  C 1.0  0.22109000(20000)  0.27891000(15000)  0.45920000(15000)  0.26367
 C10_77  C 1.0  0.72109000(20000)  0.27891000(15000)  0.95920000(15000)  0.26367
 C10_78  C 1.0  0.72109000(20000)  0.77891000(15000)  0.45920000(15000)  0.26367
 C10_79  C 1.0  0.95920000(20000)  0.27891000(15000)  0.27891000(15000)  0.26367
 C10_80  C 1.0  0.45920000(20000)  0.27891000(15000)  0.77891000(15000)  0.26367
 C10_81  C 1.0  0.45920000(20000)  0.77891000(15000)  0.27891000(15000)  0.26367
 C10_82  C 1.0  0.77891000(20000)  0.45920000(15000)  0.27891000(15000)  0.26367
 C10_83  C 1.0  0.27891000(20000)  0.45920000(15000)  0.77891000(15000)  0.26367
 C10_84  C 1.0  0.27891000(20000)  0.95920000(15000)  0.27891000(15000)  0.26367
 C10_85  C 1.0  0.77891000(20000)  0.27891000(15000)  0.45920000(15000)  0.26367
 C10_86  C 1.0  0.27891000(20000)  0.27891000(15000)  0.95920000(15000)  0.26367
 C10_87  C 1.0  0.27891000(20000)  0.77891000(15000)  0.45920000(15000)  0.26367
 C10_88  C 1.0  0.95920000(20000)  0.27891000(15000)  0.72109000(15000)  0.26367
 C10_89  C 1.0  0.45920000(20000)  0.27891000(15000)  0.22109000(15000)  0.26367
 C10_90  C 1.0  0.45920000(20000)  0.77891000(15000)  0.72109000(15000)  0.26367
 C10_91  C 1.0  0.77891000(20000)  0.45920000(15000)  0.72109000(15000)  0.26367
 C10_92  C 1.0  0.27891000(20000)  0.45920000(15000)  0.22109000(15000)  0.26367
 C10_93  C 1.0  0.27891000(20000)  0.95920000(15000)  0.72109000(15000)  0.26367
 C10_94  C 1.0  0.77891000(20000)  0.27891000(15000)  0.54080000(15000)  0.26367
 C10_95  C 1.0  0.27891000(20000)  0.27891000(15000)  0.04080000(15000)  0.26367
 C10_96  C 1.0  0.27891000(20000)  0.77891000(15000)  0.54080000(15000)  0.26367
 C11_2  C 1.0  0.23254000(20000)  0.02520000(18000)  0.23254000(18000)  0.38667
 C11_3  C 1.0  0.23254000(20000)  0.23254000(18000)  0.02520000(18000)  0.38667
 C11_4  C 1.0  0.02520000(20000)  0.23254000(18000)  0.76746000(18000)  0.38667
 C11_5  C 1.0  0.23254000(20000)  0.02520000(18000)  0.76746000(18000)  0.38667
 C11_6  C 1.0  0.23254000(20000)  0.23254000(18000)  0.97480000(18000)  0.38667
 C11_7  C 1.0  0.97480000(20000)  0.23254000(18000)  0.23254000(18000)  0.38667
 C11_8  C 1.0  0.76746000(20000)  0.02520000(18000)  0.23254000(18000)  0.38667
 C11_9  C 1.0  0.76746000(20000)  0.23254000(18000)  0.02520000(18000)  0.38667
 C11_10  C 1.0  0.97480000(20000)  0.23254000(18000)  0.76746000(18000)  0.38667
 C11_11  C 1.0  0.76746000(20000)  0.02520000(18000)  0.76746000(18000)  0.38667
 C11_12  C 1.0  0.76746000(20000)  0.23254000(18000)  0.97480000(18000)  0.38667
 C11_13  C 1.0  0.23254000(20000)  0.97480000(18000)  0.23254000(18000)  0.38667
 C11_14  C 1.0  0.02520000(20000)  0.76746000(18000)  0.23254000(18000)  0.38667
 C11_15  C 1.0  0.23254000(20000)  0.76746000(18000)  0.02520000(18000)  0.38667
 C11_16  C 1.0  0.23254000(20000)  0.97480000(18000)  0.76746000(18000)  0.38667
 C11_17  C 1.0  0.02520000(20000)  0.76746000(18000)  0.76746000(18000)  0.38667
 C11_18  C 1.0  0.23254000(20000)  0.76746000(18000)  0.97480000(18000)  0.38667
 C11_19  C 1.0  0.97480000(20000)  0.76746000(18000)  0.76746000(18000)  0.38667
 C11_20  C 1.0  0.76746000(20000)  0.97480000(18000)  0.76746000(18000)  0.38667
 C11_21  C 1.0  0.76746000(20000)  0.76746000(18000)  0.97480000(18000)  0.38667
 C11_22  C 1.0  0.97480000(20000)  0.76746000(18000)  0.23254000(18000)  0.38667
 C11_23  C 1.0  0.76746000(20000)  0.97480000(18000)  0.23254000(18000)  0.38667
 C11_24  C 1.0  0.76746000(20000)  0.76746000(18000)  0.02520000(18000)  0.38667
 C11_25  C 1.0  0.02520000(20000)  0.73254000(18000)  0.73254000(18000)  0.38667
 C11_26  C 1.0  0.52520000(20000)  0.73254000(18000)  0.23254000(18000)  0.38667
 C11_27  C 1.0  0.52520000(20000)  0.23254000(18000)  0.73254000(18000)  0.38667
 C11_28  C 1.0  0.23254000(20000)  0.52520000(18000)  0.73254000(18000)  0.38667
 C11_29  C 1.0  0.73254000(20000)  0.52520000(18000)  0.23254000(18000)  0.38667
 C11_30  C 1.0  0.73254000(20000)  0.02520000(18000)  0.73254000(18000)  0.38667
 C11_31  C 1.0  0.23254000(20000)  0.73254000(18000)  0.52520000(18000)  0.38667
 C11_32  C 1.0  0.73254000(20000)  0.73254000(18000)  0.02520000(18000)  0.38667
 C11_33  C 1.0  0.73254000(20000)  0.23254000(18000)  0.52520000(18000)  0.38667
 C11_34  C 1.0  0.02520000(20000)  0.73254000(18000)  0.26746000(18000)  0.38667
 C11_35  C 1.0  0.52520000(20000)  0.73254000(18000)  0.76746000(18000)  0.38667
 C11_36  C 1.0  0.52520000(20000)  0.23254000(18000)  0.26746000(18000)  0.38667
 C11_37  C 1.0  0.23254000(20000)  0.52520000(18000)  0.26746000(18000)  0.38667
 C11_38  C 1.0  0.73254000(20000)  0.52520000(18000)  0.76746000(18000)  0.38667
 C11_39  C 1.0  0.73254000(20000)  0.02520000(18000)  0.26746000(18000)  0.38667
 C11_40  C 1.0  0.23254000(20000)  0.73254000(18000)  0.47480000(18000)  0.38667
 C11_41  C 1.0  0.73254000(20000)  0.73254000(18000)  0.97480000(18000)  0.38667
 C11_42  C 1.0  0.73254000(20000)  0.23254000(18000)  0.47480000(18000)  0.38667
 C11_43  C 1.0  0.97480000(20000)  0.73254000(18000)  0.73254000(18000)  0.38667
 C11_44  C 1.0  0.47480000(20000)  0.73254000(18000)  0.23254000(18000)  0.38667
 C11_45  C 1.0  0.47480000(20000)  0.23254000(18000)  0.73254000(18000)  0.38667
 C11_46  C 1.0  0.76746000(20000)  0.52520000(18000)  0.73254000(18000)  0.38667
 C11_47  C 1.0  0.26746000(20000)  0.52520000(18000)  0.23254000(18000)  0.38667
 C11_48  C 1.0  0.26746000(20000)  0.02520000(18000)  0.73254000(18000)  0.38667
 C11_49  C 1.0  0.76746000(20000)  0.73254000(18000)  0.52520000(18000)  0.38667
 C11_50  C 1.0  0.26746000(20000)  0.73254000(18000)  0.02520000(18000)  0.38667
 C11_51  C 1.0  0.26746000(20000)  0.23254000(18000)  0.52520000(18000)  0.38667
 C11_52  C 1.0  0.97480000(20000)  0.73254000(18000)  0.26746000(18000)  0.38667
 C11_53  C 1.0  0.47480000(20000)  0.73254000(18000)  0.76746000(18000)  0.38667
 C11_54  C 1.0  0.47480000(20000)  0.23254000(18000)  0.26746000(18000)  0.38667
 C11_55  C 1.0  0.76746000(20000)  0.52520000(18000)  0.26746000(18000)  0.38667
 C11_56  C 1.0  0.26746000(20000)  0.52520000(18000)  0.76746000(18000)  0.38667
 C11_57  C 1.0  0.26746000(20000)  0.02520000(18000)  0.26746000(18000)  0.38667
 C11_58  C 1.0  0.76746000(20000)  0.73254000(18000)  0.47480000(18000)  0.38667
 C11_59  C 1.0  0.26746000(20000)  0.73254000(18000)  0.97480000(18000)  0.38667
 C11_60  C 1.0  0.26746000(20000)  0.23254000(18000)  0.47480000(18000)  0.38667
 C11_61  C 1.0  0.23254000(20000)  0.47480000(18000)  0.73254000(18000)  0.38667
 C11_62  C 1.0  0.73254000(20000)  0.47480000(18000)  0.23254000(18000)  0.38667
 C11_63  C 1.0  0.73254000(20000)  0.97480000(18000)  0.73254000(18000)  0.38667
 C11_64  C 1.0  0.02520000(20000)  0.26746000(18000)  0.73254000(18000)  0.38667
 C11_65  C 1.0  0.52520000(20000)  0.26746000(18000)  0.23254000(18000)  0.38667
 C11_66  C 1.0  0.52520000(20000)  0.76746000(18000)  0.73254000(18000)  0.38667
 C11_67  C 1.0  0.23254000(20000)  0.26746000(18000)  0.52520000(18000)  0.38667
 C11_68  C 1.0  0.73254000(20000)  0.26746000(18000)  0.02520000(18000)  0.38667
 C11_69  C 1.0  0.73254000(20000)  0.76746000(18000)  0.52520000(18000)  0.38667
 C11_70  C 1.0  0.23254000(20000)  0.47480000(18000)  0.26746000(18000)  0.38667
 C11_71  C 1.0  0.73254000(20000)  0.47480000(18000)  0.76746000(18000)  0.38667
 C11_72  C 1.0  0.73254000(20000)  0.97480000(18000)  0.26746000(18000)  0.38667
 C11_73  C 1.0  0.02520000(20000)  0.26746000(18000)  0.26746000(18000)  0.38667
 C11_74  C 1.0  0.52520000(20000)  0.26746000(18000)  0.76746000(18000)  0.38667
 C11_75  C 1.0  0.52520000(20000)  0.76746000(18000)  0.26746000(18000)  0.38667
 C11_76  C 1.0  0.23254000(20000)  0.26746000(18000)  0.47480000(18000)  0.38667
 C11_77  C 1.0  0.73254000(20000)  0.26746000(18000)  0.97480000(18000)  0.38667
 C11_78  C 1.0  0.73254000(20000)  0.76746000(18000)  0.47480000(18000)  0.38667
 C11_79  C 1.0  0.97480000(20000)  0.26746000(18000)  0.26746000(18000)  0.38667
 C11_80  C 1.0  0.47480000(20000)  0.26746000(18000)  0.76746000(18000)  0.38667
 C11_81  C 1.0  0.47480000(20000)  0.76746000(18000)  0.26746000(18000)  0.38667
 C11_82  C 1.0  0.76746000(20000)  0.47480000(18000)  0.26746000(18000)  0.38667
 C11_83  C 1.0  0.26746000(20000)  0.47480000(18000)  0.76746000(18000)  0.38667
 C11_84  C 1.0  0.26746000(20000)  0.97480000(18000)  0.26746000(18000)  0.38667
 C11_85  C 1.0  0.76746000(20000)  0.26746000(18000)  0.47480000(18000)  0.38667
 C11_86  C 1.0  0.26746000(20000)  0.26746000(18000)  0.97480000(18000)  0.38667
 C11_87  C 1.0  0.26746000(20000)  0.76746000(18000)  0.47480000(18000)  0.38667
 C11_88  C 1.0  0.97480000(20000)  0.26746000(18000)  0.73254000(18000)  0.38667
 C11_89  C 1.0  0.47480000(20000)  0.26746000(18000)  0.23254000(18000)  0.38667
 C11_90  C 1.0  0.47480000(20000)  0.76746000(18000)  0.73254000(18000)  0.38667
 C11_91  C 1.0  0.76746000(20000)  0.47480000(18000)  0.73254000(18000)  0.38667
 C11_92  C 1.0  0.26746000(20000)  0.47480000(18000)  0.23254000(18000)  0.38667
 C11_93  C 1.0  0.26746000(20000)  0.97480000(18000)  0.73254000(18000)  0.38667
 C11_94  C 1.0  0.76746000(20000)  0.26746000(18000)  0.52520000(18000)  0.38667
 C11_95  C 1.0  0.26746000(20000)  0.26746000(18000)  0.02520000(18000)  0.38667
 C11_96  C 1.0  0.26746000(20000)  0.76746000(18000)  0.52520000(18000)  0.38667
 C1_2  C 1.0  0.14749000(14000)  0.14749000(16000)  0.17323000(14000)  0.37067
 C1_3  C 1.0  0.17323000(14000)  0.14749000(16000)  0.14749000(14000)  0.37067
 C1_4  C 1.0  0.14749000(14000)  0.17323000(16000)  0.85251000(14000)  0.37067
 C1_5  C 1.0  0.14749000(14000)  0.14749000(16000)  0.82677000(14000)  0.37067
 C1_6  C 1.0  0.17323000(14000)  0.14749000(16000)  0.85251000(14000)  0.37067
 C1_7  C 1.0  0.85251000(14000)  0.17323000(16000)  0.14749000(14000)  0.37067
 C1_8  C 1.0  0.85251000(14000)  0.14749000(16000)  0.17323000(14000)  0.37067
 C1_9  C 1.0  0.82677000(14000)  0.14749000(16000)  0.14749000(14000)  0.37067
 C1_10  C 1.0  0.85251000(14000)  0.17323000(16000)  0.85251000(14000)  0.37067
 C1_11  C 1.0  0.85251000(14000)  0.14749000(16000)  0.82677000(14000)  0.37067
 C1_12  C 1.0  0.82677000(14000)  0.14749000(16000)  0.85251000(14000)  0.37067
 C1_13  C 1.0  0.17323000(14000)  0.85251000(16000)  0.14749000(14000)  0.37067
 C1_14  C 1.0  0.14749000(14000)  0.85251000(16000)  0.17323000(14000)  0.37067
 C1_15  C 1.0  0.14749000(14000)  0.82677000(16000)  0.14749000(14000)  0.37067
 C1_16  C 1.0  0.17323000(14000)  0.85251000(16000)  0.85251000(14000)  0.37067
 C1_17  C 1.0  0.14749000(14000)  0.85251000(16000)  0.82677000(14000)  0.37067
 C1_18  C 1.0  0.14749000(14000)  0.82677000(16000)  0.85251000(14000)  0.37067
 C1_19  C 1.0  0.85251000(14000)  0.82677000(16000)  0.85251000(14000)  0.37067
 C1_20  C 1.0  0.85251000(14000)  0.85251000(16000)  0.82677000(14000)  0.37067
 C1_21  C 1.0  0.82677000(14000)  0.85251000(16000)  0.85251000(14000)  0.37067
 C1_22  C 1.0  0.85251000(14000)  0.82677000(16000)  0.14749000(14000)  0.37067
 C1_23  C 1.0  0.85251000(14000)  0.85251000(16000)  0.17323000(14000)  0.37067
 C1_24  C 1.0  0.82677000(14000)  0.85251000(16000)  0.14749000(14000)  0.37067
 C1_25  C 1.0  0.14749000(14000)  0.67323000(16000)  0.64749000(14000)  0.37067
 C1_26  C 1.0  0.64749000(14000)  0.67323000(16000)  0.14749000(14000)  0.37067
 C1_27  C 1.0  0.64749000(14000)  0.17323000(16000)  0.64749000(14000)  0.37067
 C1_28  C 1.0  0.14749000(14000)  0.64749000(16000)  0.67323000(14000)  0.37067
 C1_29  C 1.0  0.64749000(14000)  0.64749000(16000)  0.17323000(14000)  0.37067
 C1_30  C 1.0  0.64749000(14000)  0.14749000(16000)  0.67323000(14000)  0.37067
 C1_31  C 1.0  0.17323000(14000)  0.64749000(16000)  0.64749000(14000)  0.37067
 C1_32  C 1.0  0.67323000(14000)  0.64749000(16000)  0.14749000(14000)  0.37067
 C1_33  C 1.0  0.67323000(14000)  0.14749000(16000)  0.64749000(14000)  0.37067
 C1_34  C 1.0  0.14749000(14000)  0.67323000(16000)  0.35251000(14000)  0.37067
 C1_35  C 1.0  0.64749000(14000)  0.67323000(16000)  0.85251000(14000)  0.37067
 C1_36  C 1.0  0.64749000(14000)  0.17323000(16000)  0.35251000(14000)  0.37067
 C1_37  C 1.0  0.14749000(14000)  0.64749000(16000)  0.32677000(14000)  0.37067
 C1_38  C 1.0  0.64749000(14000)  0.64749000(16000)  0.82677000(14000)  0.37067
 C1_39  C 1.0  0.64749000(14000)  0.14749000(16000)  0.32677000(14000)  0.37067
 C1_40  C 1.0  0.17323000(14000)  0.64749000(16000)  0.35251000(14000)  0.37067
 C1_41  C 1.0  0.67323000(14000)  0.64749000(16000)  0.85251000(14000)  0.37067
 C1_42  C 1.0  0.67323000(14000)  0.14749000(16000)  0.35251000(14000)  0.37067
 C1_43  C 1.0  0.85251000(14000)  0.67323000(16000)  0.64749000(14000)  0.37067
 C1_44  C 1.0  0.35251000(14000)  0.67323000(16000)  0.14749000(14000)  0.37067
 C1_45  C 1.0  0.35251000(14000)  0.17323000(16000)  0.64749000(14000)  0.37067
 C1_46  C 1.0  0.85251000(14000)  0.64749000(16000)  0.67323000(14000)  0.37067
 C1_47  C 1.0  0.35251000(14000)  0.64749000(16000)  0.17323000(14000)  0.37067
 C1_48  C 1.0  0.35251000(14000)  0.14749000(16000)  0.67323000(14000)  0.37067
 C1_49  C 1.0  0.82677000(14000)  0.64749000(16000)  0.64749000(14000)  0.37067
 C1_50  C 1.0  0.32677000(14000)  0.64749000(16000)  0.14749000(14000)  0.37067
 C1_51  C 1.0  0.32677000(14000)  0.14749000(16000)  0.64749000(14000)  0.37067
 C1_52  C 1.0  0.85251000(14000)  0.67323000(16000)  0.35251000(14000)  0.37067
 C1_53  C 1.0  0.35251000(14000)  0.67323000(16000)  0.85251000(14000)  0.37067
 C1_54  C 1.0  0.35251000(14000)  0.17323000(16000)  0.35251000(14000)  0.37067
 C1_55  C 1.0  0.85251000(14000)  0.64749000(16000)  0.32677000(14000)  0.37067
 C1_56  C 1.0  0.35251000(14000)  0.64749000(16000)  0.82677000(14000)  0.37067
 C1_57  C 1.0  0.35251000(14000)  0.14749000(16000)  0.32677000(14000)  0.37067
 C1_58  C 1.0  0.82677000(14000)  0.64749000(16000)  0.35251000(14000)  0.37067
 C1_59  C 1.0  0.32677000(14000)  0.64749000(16000)  0.85251000(14000)  0.37067
 C1_60  C 1.0  0.32677000(14000)  0.14749000(16000)  0.35251000(14000)  0.37067
 C1_61  C 1.0  0.17323000(14000)  0.35251000(16000)  0.64749000(14000)  0.37067
 C1_62  C 1.0  0.67323000(14000)  0.35251000(16000)  0.14749000(14000)  0.37067
 C1_63  C 1.0  0.67323000(14000)  0.85251000(16000)  0.64749000(14000)  0.37067
 C1_64  C 1.0  0.14749000(14000)  0.35251000(16000)  0.67323000(14000)  0.37067
 C1_65  C 1.0  0.64749000(14000)  0.35251000(16000)  0.17323000(14000)  0.37067
 C1_66  C 1.0  0.64749000(14000)  0.85251000(16000)  0.67323000(14000)  0.37067
 C1_67  C 1.0  0.14749000(14000)  0.32677000(16000)  0.64749000(14000)  0.37067
 C1_68  C 1.0  0.64749000(14000)  0.32677000(16000)  0.14749000(14000)  0.37067
 C1_69  C 1.0  0.64749000(14000)  0.82677000(16000)  0.64749000(14000)  0.37067
 C1_70  C 1.0  0.17323000(14000)  0.35251000(16000)  0.35251000(14000)  0.37067
 C1_71  C 1.0  0.67323000(14000)  0.35251000(16000)  0.85251000(14000)  0.37067
 C1_72  C 1.0  0.67323000(14000)  0.85251000(16000)  0.35251000(14000)  0.37067
 C1_73  C 1.0  0.14749000(14000)  0.35251000(16000)  0.32677000(14000)  0.37067
 C1_74  C 1.0  0.64749000(14000)  0.35251000(16000)  0.82677000(14000)  0.37067
 C1_75  C 1.0  0.64749000(14000)  0.85251000(16000)  0.32677000(14000)  0.37067
 C1_76  C 1.0  0.14749000(14000)  0.32677000(16000)  0.35251000(14000)  0.37067
 C1_77  C 1.0  0.64749000(14000)  0.32677000(16000)  0.85251000(14000)  0.37067
 C1_78  C 1.0  0.64749000(14000)  0.82677000(16000)  0.35251000(14000)  0.37067
 C1_79  C 1.0  0.85251000(14000)  0.32677000(16000)  0.35251000(14000)  0.37067
 C1_80  C 1.0  0.35251000(14000)  0.32677000(16000)  0.85251000(14000)  0.37067
 C1_81  C 1.0  0.35251000(14000)  0.82677000(16000)  0.35251000(14000)  0.37067
 C1_82  C 1.0  0.85251000(14000)  0.35251000(16000)  0.32677000(14000)  0.37067
 C1_83  C 1.0  0.35251000(14000)  0.35251000(16000)  0.82677000(14000)  0.37067
 C1_84  C 1.0  0.35251000(14000)  0.85251000(16000)  0.32677000(14000)  0.37067
 C1_85  C 1.0  0.82677000(14000)  0.35251000(16000)  0.35251000(14000)  0.37067
 C1_86  C 1.0  0.32677000(14000)  0.35251000(16000)  0.85251000(14000)  0.37067
 C1_87  C 1.0  0.32677000(14000)  0.85251000(16000)  0.35251000(14000)  0.37067
 C1_88  C 1.0  0.85251000(14000)  0.32677000(16000)  0.64749000(14000)  0.37067
 C1_89  C 1.0  0.35251000(14000)  0.32677000(16000)  0.14749000(14000)  0.37067
 C1_90  C 1.0  0.35251000(14000)  0.82677000(16000)  0.64749000(14000)  0.37067
 C1_91  C 1.0  0.85251000(14000)  0.35251000(16000)  0.67323000(14000)  0.37067
 C1_92  C 1.0  0.35251000(14000)  0.35251000(16000)  0.17323000(14000)  0.37067
 C1_93  C 1.0  0.35251000(14000)  0.85251000(16000)  0.67323000(14000)  0.37067
 C1_94  C 1.0  0.82677000(14000)  0.35251000(16000)  0.64749000(14000)  0.37067
 C1_95  C 1.0  0.32677000(14000)  0.35251000(16000)  0.14749000(14000)  0.37067
 C1_96  C 1.0  0.32677000(14000)  0.85251000(16000)  0.64749000(14000)  0.37067
 C2_2  C 1.0  0.16460000(16000)  0.13880000(15000)  0.16460000(15000)  0.35933
 C2_3  C 1.0  0.16460000(16000)  0.16460000(15000)  0.13880000(15000)  0.35933
 C2_4  C 1.0  0.13880000(16000)  0.16460000(15000)  0.83540000(15000)  0.35933
 C2_5  C 1.0  0.16460000(16000)  0.13880000(15000)  0.83540000(15000)  0.35933
 C2_6  C 1.0  0.16460000(16000)  0.16460000(15000)  0.86120000(15000)  0.35933
 C2_7  C 1.0  0.86120000(16000)  0.16460000(15000)  0.16460000(15000)  0.35933
 C2_8  C 1.0  0.83540000(16000)  0.13880000(15000)  0.16460000(15000)  0.35933
 C2_9  C 1.0  0.83540000(16000)  0.16460000(15000)  0.13880000(15000)  0.35933
 C2_10  C 1.0  0.86120000(16000)  0.16460000(15000)  0.83540000(15000)  0.35933
 C2_11  C 1.0  0.83540000(16000)  0.13880000(15000)  0.83540000(15000)  0.35933
 C2_12  C 1.0  0.83540000(16000)  0.16460000(15000)  0.86120000(15000)  0.35933
 C2_13  C 1.0  0.16460000(16000)  0.86120000(15000)  0.16460000(15000)  0.35933
 C2_14  C 1.0  0.13880000(16000)  0.83540000(15000)  0.16460000(15000)  0.35933
 C2_15  C 1.0  0.16460000(16000)  0.83540000(15000)  0.13880000(15000)  0.35933
 C2_16  C 1.0  0.16460000(16000)  0.86120000(15000)  0.83540000(15000)  0.35933
 C2_17  C 1.0  0.13880000(16000)  0.83540000(15000)  0.83540000(15000)  0.35933
 C2_18  C 1.0  0.16460000(16000)  0.83540000(15000)  0.86120000(15000)  0.35933
 C2_19  C 1.0  0.86120000(16000)  0.83540000(15000)  0.83540000(15000)  0.35933
 C2_20  C 1.0  0.83540000(16000)  0.86120000(15000)  0.83540000(15000)  0.35933
 C2_21  C 1.0  0.83540000(16000)  0.83540000(15000)  0.86120000(15000)  0.35933
 C2_22  C 1.0  0.86120000(16000)  0.83540000(15000)  0.16460000(15000)  0.35933
 C2_23  C 1.0  0.83540000(16000)  0.86120000(15000)  0.16460000(15000)  0.35933
 C2_24  C 1.0  0.83540000(16000)  0.83540000(15000)  0.13880000(15000)  0.35933
 C2_25  C 1.0  0.13880000(16000)  0.66460000(15000)  0.66460000(15000)  0.35933
 C2_26  C 1.0  0.63880000(16000)  0.66460000(15000)  0.16460000(15000)  0.35933
 C2_27  C 1.0  0.63880000(16000)  0.16460000(15000)  0.66460000(15000)  0.35933
 C2_28  C 1.0  0.16460000(16000)  0.63880000(15000)  0.66460000(15000)  0.35933
 C2_29  C 1.0  0.66460000(16000)  0.63880000(15000)  0.16460000(15000)  0.35933
 C2_30  C 1.0  0.66460000(16000)  0.13880000(15000)  0.66460000(15000)  0.35933
 C2_31  C 1.0  0.16460000(16000)  0.66460000(15000)  0.63880000(15000)  0.35933
 C2_32  C 1.0  0.66460000(16000)  0.66460000(15000)  0.13880000(15000)  0.35933
 C2_33  C 1.0  0.66460000(16000)  0.16460000(15000)  0.63880000(15000)  0.35933
 C2_34  C 1.0  0.13880000(16000)  0.66460000(15000)  0.33540000(15000)  0.35933
 C2_35  C 1.0  0.63880000(16000)  0.66460000(15000)  0.83540000(15000)  0.35933
 C2_36  C 1.0  0.63880000(16000)  0.16460000(15000)  0.33540000(15000)  0.35933
 C2_37  C 1.0  0.16460000(16000)  0.63880000(15000)  0.33540000(15000)  0.35933
 C2_38  C 1.0  0.66460000(16000)  0.63880000(15000)  0.83540000(15000)  0.35933
 C2_39  C 1.0  0.66460000(16000)  0.13880000(15000)  0.33540000(15000)  0.35933
 C2_40  C 1.0  0.16460000(16000)  0.66460000(15000)  0.36120000(15000)  0.35933
 C2_41  C 1.0  0.66460000(16000)  0.66460000(15000)  0.86120000(15000)  0.35933
 C2_42  C 1.0  0.66460000(16000)  0.16460000(15000)  0.36120000(15000)  0.35933
 C2_43  C 1.0  0.86120000(16000)  0.66460000(15000)  0.66460000(15000)  0.35933
 C2_44  C 1.0  0.36120000(16000)  0.66460000(15000)  0.16460000(15000)  0.35933
 C2_45  C 1.0  0.36120000(16000)  0.16460000(15000)  0.66460000(15000)  0.35933
 C2_46  C 1.0  0.83540000(16000)  0.63880000(15000)  0.66460000(15000)  0.35933
 C2_47  C 1.0  0.33540000(16000)  0.63880000(15000)  0.16460000(15000)  0.35933
 C2_48  C 1.0  0.33540000(16000)  0.13880000(15000)  0.66460000(15000)  0.35933
 C2_49  C 1.0  0.83540000(16000)  0.66460000(15000)  0.63880000(15000)  0.35933
 C2_50  C 1.0  0.33540000(16000)  0.66460000(15000)  0.13880000(15000)  0.35933
 C2_51  C 1.0  0.33540000(16000)  0.16460000(15000)  0.63880000(15000)  0.35933
 C2_52  C 1.0  0.86120000(16000)  0.66460000(15000)  0.33540000(15000)  0.35933
 C2_53  C 1.0  0.36120000(16000)  0.66460000(15000)  0.83540000(15000)  0.35933
 C2_54  C 1.0  0.36120000(16000)  0.16460000(15000)  0.33540000(15000)  0.35933
 C2_55  C 1.0  0.83540000(16000)  0.63880000(15000)  0.33540000(15000)  0.35933
 C2_56  C 1.0  0.33540000(16000)  0.63880000(15000)  0.83540000(15000)  0.35933
 C2_57  C 1.0  0.33540000(16000)  0.13880000(15000)  0.33540000(15000)  0.35933
 C2_58  C 1.0  0.83540000(16000)  0.66460000(15000)  0.36120000(15000)  0.35933
 C2_59  C 1.0  0.33540000(16000)  0.66460000(15000)  0.86120000(15000)  0.35933
 C2_60  C 1.0  0.33540000(16000)  0.16460000(15000)  0.36120000(15000)  0.35933
 C2_61  C 1.0  0.16460000(16000)  0.36120000(15000)  0.66460000(15000)  0.35933
 C2_62  C 1.0  0.66460000(16000)  0.36120000(15000)  0.16460000(15000)  0.35933
 C2_63  C 1.0  0.66460000(16000)  0.86120000(15000)  0.66460000(15000)  0.35933
 C2_64  C 1.0  0.13880000(16000)  0.33540000(15000)  0.66460000(15000)  0.35933
 C2_65  C 1.0  0.63880000(16000)  0.33540000(15000)  0.16460000(15000)  0.35933
 C2_66  C 1.0  0.63880000(16000)  0.83540000(15000)  0.66460000(15000)  0.35933
 C2_67  C 1.0  0.16460000(16000)  0.33540000(15000)  0.63880000(15000)  0.35933
 C2_68  C 1.0  0.66460000(16000)  0.33540000(15000)  0.13880000(15000)  0.35933
 C2_69  C 1.0  0.66460000(16000)  0.83540000(15000)  0.63880000(15000)  0.35933
 C2_70  C 1.0  0.16460000(16000)  0.36120000(15000)  0.33540000(15000)  0.35933
 C2_71  C 1.0  0.66460000(16000)  0.36120000(15000)  0.83540000(15000)  0.35933
 C2_72  C 1.0  0.66460000(16000)  0.86120000(15000)  0.33540000(15000)  0.35933
 C2_73  C 1.0  0.13880000(16000)  0.33540000(15000)  0.33540000(15000)  0.35933
 C2_74  C 1.0  0.63880000(16000)  0.33540000(15000)  0.83540000(15000)  0.35933
 C2_75  C 1.0  0.63880000(16000)  0.83540000(15000)  0.33540000(15000)  0.35933
 C2_76  C 1.0  0.16460000(16000)  0.33540000(15000)  0.36120000(15000)  0.35933
 C2_77  C 1.0  0.66460000(16000)  0.33540000(15000)  0.86120000(15000)  0.35933
 C2_78  C 1.0  0.66460000(16000)  0.83540000(15000)  0.36120000(15000)  0.35933
 C2_79  C 1.0  0.86120000(16000)  0.33540000(15000)  0.33540000(15000)  0.35933
 C2_80  C 1.0  0.36120000(16000)  0.33540000(15000)  0.83540000(15000)  0.35933
 C2_81  C 1.0  0.36120000(16000)  0.83540000(15000)  0.33540000(15000)  0.35933
 C2_82  C 1.0  0.83540000(16000)  0.36120000(15000)  0.33540000(15000)  0.35933
 C2_83  C 1.0  0.33540000(16000)  0.36120000(15000)  0.83540000(15000)  0.35933
 C2_84  C 1.0  0.33540000(16000)  0.86120000(15000)  0.33540000(15000)  0.35933
 C2_85  C 1.0  0.83540000(16000)  0.33540000(15000)  0.36120000(15000)  0.35933
 C2_86  C 1.0  0.33540000(16000)  0.33540000(15000)  0.86120000(15000)  0.35933
 C2_87  C 1.0  0.33540000(16000)  0.83540000(15000)  0.36120000(15000)  0.35933
 C2_88  C 1.0  0.86120000(16000)  0.33540000(15000)  0.66460000(15000)  0.35933
 C2_89  C 1.0  0.36120000(16000)  0.33540000(15000)  0.16460000(15000)  0.35933
 C2_90  C 1.0  0.36120000(16000)  0.83540000(15000)  0.66460000(15000)  0.35933
 C2_91  C 1.0  0.83540000(16000)  0.36120000(15000)  0.66460000(15000)  0.35933
 C2_92  C 1.0  0.33540000(16000)  0.36120000(15000)  0.16460000(15000)  0.35933
 C2_93  C 1.0  0.33540000(16000)  0.86120000(15000)  0.66460000(15000)  0.35933
 C2_94  C 1.0  0.83540000(16000)  0.33540000(15000)  0.63880000(15000)  0.35933
 C2_95  C 1.0  0.33540000(16000)  0.33540000(15000)  0.13880000(15000)  0.35933
 C2_96  C 1.0  0.33540000(16000)  0.83540000(15000)  0.63880000(15000)  0.35933
 C3_2  C 1.0  0.17570000(20000)  0.12250000(17000)  0.17570000(17000)  0.39200
 C3_3  C 1.0  0.17570000(20000)  0.17570000(17000)  0.12250000(17000)  0.39200
 C3_4  C 1.0  0.12250000(20000)  0.17570000(17000)  0.82430000(17000)  0.39200
 C3_5  C 1.0  0.17570000(20000)  0.12250000(17000)  0.82430000(17000)  0.39200
 C3_6  C 1.0  0.17570000(20000)  0.17570000(17000)  0.87750000(17000)  0.39200
 C3_7  C 1.0  0.87750000(20000)  0.17570000(17000)  0.17570000(17000)  0.39200
 C3_8  C 1.0  0.82430000(20000)  0.12250000(17000)  0.17570000(17000)  0.39200
 C3_9  C 1.0  0.82430000(20000)  0.17570000(17000)  0.12250000(17000)  0.39200
 C3_10  C 1.0  0.87750000(20000)  0.17570000(17000)  0.82430000(17000)  0.39200
 C3_11  C 1.0  0.82430000(20000)  0.12250000(17000)  0.82430000(17000)  0.39200
 C3_12  C 1.0  0.82430000(20000)  0.17570000(17000)  0.87750000(17000)  0.39200
 C3_13  C 1.0  0.17570000(20000)  0.87750000(17000)  0.17570000(17000)  0.39200
 C3_14  C 1.0  0.12250000(20000)  0.82430000(17000)  0.17570000(17000)  0.39200
 C3_15  C 1.0  0.17570000(20000)  0.82430000(17000)  0.12250000(17000)  0.39200
 C3_16  C 1.0  0.17570000(20000)  0.87750000(17000)  0.82430000(17000)  0.39200
 C3_17  C 1.0  0.12250000(20000)  0.82430000(17000)  0.82430000(17000)  0.39200
 C3_18  C 1.0  0.17570000(20000)  0.82430000(17000)  0.87750000(17000)  0.39200
 C3_19  C 1.0  0.87750000(20000)  0.82430000(17000)  0.82430000(17000)  0.39200
 C3_20  C 1.0  0.82430000(20000)  0.87750000(17000)  0.82430000(17000)  0.39200
 C3_21  C 1.0  0.82430000(20000)  0.82430000(17000)  0.87750000(17000)  0.39200
 C3_22  C 1.0  0.87750000(20000)  0.82430000(17000)  0.17570000(17000)  0.39200
 C3_23  C 1.0  0.82430000(20000)  0.87750000(17000)  0.17570000(17000)  0.39200
 C3_24  C 1.0  0.82430000(20000)  0.82430000(17000)  0.12250000(17000)  0.39200
 C3_25  C 1.0  0.12250000(20000)  0.67570000(17000)  0.67570000(17000)  0.39200
 C3_26  C 1.0  0.62250000(20000)  0.67570000(17000)  0.17570000(17000)  0.39200
 C3_27  C 1.0  0.62250000(20000)  0.17570000(17000)  0.67570000(17000)  0.39200
 C3_28  C 1.0  0.17570000(20000)  0.62250000(17000)  0.67570000(17000)  0.39200
 C3_29  C 1.0  0.67570000(20000)  0.62250000(17000)  0.17570000(17000)  0.39200
 C3_30  C 1.0  0.67570000(20000)  0.12250000(17000)  0.67570000(17000)  0.39200
 C3_31  C 1.0  0.17570000(20000)  0.67570000(17000)  0.62250000(17000)  0.39200
 C3_32  C 1.0  0.67570000(20000)  0.67570000(17000)  0.12250000(17000)  0.39200
 C3_33  C 1.0  0.67570000(20000)  0.17570000(17000)  0.62250000(17000)  0.39200
 C3_34  C 1.0  0.12250000(20000)  0.67570000(17000)  0.32430000(17000)  0.39200
 C3_35  C 1.0  0.62250000(20000)  0.67570000(17000)  0.82430000(17000)  0.39200
 C3_36  C 1.0  0.62250000(20000)  0.17570000(17000)  0.32430000(17000)  0.39200
 C3_37  C 1.0  0.17570000(20000)  0.62250000(17000)  0.32430000(17000)  0.39200
 C3_38  C 1.0  0.67570000(20000)  0.62250000(17000)  0.82430000(17000)  0.39200
 C3_39  C 1.0  0.67570000(20000)  0.12250000(17000)  0.32430000(17000)  0.39200
 C3_40  C 1.0  0.17570000(20000)  0.67570000(17000)  0.37750000(17000)  0.39200
 C3_41  C 1.0  0.67570000(20000)  0.67570000(17000)  0.87750000(17000)  0.39200
 C3_42  C 1.0  0.67570000(20000)  0.17570000(17000)  0.37750000(17000)  0.39200
 C3_43  C 1.0  0.87750000(20000)  0.67570000(17000)  0.67570000(17000)  0.39200
 C3_44  C 1.0  0.37750000(20000)  0.67570000(17000)  0.17570000(17000)  0.39200
 C3_45  C 1.0  0.37750000(20000)  0.17570000(17000)  0.67570000(17000)  0.39200
 C3_46  C 1.0  0.82430000(20000)  0.62250000(17000)  0.67570000(17000)  0.39200
 C3_47  C 1.0  0.32430000(20000)  0.62250000(17000)  0.17570000(17000)  0.39200
 C3_48  C 1.0  0.32430000(20000)  0.12250000(17000)  0.67570000(17000)  0.39200
 C3_49  C 1.0  0.82430000(20000)  0.67570000(17000)  0.62250000(17000)  0.39200
 C3_50  C 1.0  0.32430000(20000)  0.67570000(17000)  0.12250000(17000)  0.39200
 C3_51  C 1.0  0.32430000(20000)  0.17570000(17000)  0.62250000(17000)  0.39200
 C3_52  C 1.0  0.87750000(20000)  0.67570000(17000)  0.32430000(17000)  0.39200
 C3_53  C 1.0  0.37750000(20000)  0.67570000(17000)  0.82430000(17000)  0.39200
 C3_54  C 1.0  0.37750000(20000)  0.17570000(17000)  0.32430000(17000)  0.39200
 C3_55  C 1.0  0.82430000(20000)  0.62250000(17000)  0.32430000(17000)  0.39200
 C3_56  C 1.0  0.32430000(20000)  0.62250000(17000)  0.82430000(17000)  0.39200
 C3_57  C 1.0  0.32430000(20000)  0.12250000(17000)  0.32430000(17000)  0.39200
 C3_58  C 1.0  0.82430000(20000)  0.67570000(17000)  0.37750000(17000)  0.39200
 C3_59  C 1.0  0.32430000(20000)  0.67570000(17000)  0.87750000(17000)  0.39200
 C3_60  C 1.0  0.32430000(20000)  0.17570000(17000)  0.37750000(17000)  0.39200
 C3_61  C 1.0  0.17570000(20000)  0.37750000(17000)  0.67570000(17000)  0.39200
 C3_62  C 1.0  0.67570000(20000)  0.37750000(17000)  0.17570000(17000)  0.39200
 C3_63  C 1.0  0.67570000(20000)  0.87750000(17000)  0.67570000(17000)  0.39200
 C3_64  C 1.0  0.12250000(20000)  0.32430000(17000)  0.67570000(17000)  0.39200
 C3_65  C 1.0  0.62250000(20000)  0.32430000(17000)  0.17570000(17000)  0.39200
 C3_66  C 1.0  0.62250000(20000)  0.82430000(17000)  0.67570000(17000)  0.39200
 C3_67  C 1.0  0.17570000(20000)  0.32430000(17000)  0.62250000(17000)  0.39200
 C3_68  C 1.0  0.67570000(20000)  0.32430000(17000)  0.12250000(17000)  0.39200
 C3_69  C 1.0  0.67570000(20000)  0.82430000(17000)  0.62250000(17000)  0.39200
 C3_70  C 1.0  0.17570000(20000)  0.37750000(17000)  0.32430000(17000)  0.39200
 C3_71  C 1.0  0.67570000(20000)  0.37750000(17000)  0.82430000(17000)  0.39200
 C3_72  C 1.0  0.67570000(20000)  0.87750000(17000)  0.32430000(17000)  0.39200
 C3_73  C 1.0  0.12250000(20000)  0.32430000(17000)  0.32430000(17000)  0.39200
 C3_74  C 1.0  0.62250000(20000)  0.32430000(17000)  0.82430000(17000)  0.39200
 C3_75  C 1.0  0.62250000(20000)  0.82430000(17000)  0.32430000(17000)  0.39200
 C3_76  C 1.0  0.17570000(20000)  0.32430000(17000)  0.37750000(17000)  0.39200
 C3_77  C 1.0  0.67570000(20000)  0.32430000(17000)  0.87750000(17000)  0.39200
 C3_78  C 1.0  0.67570000(20000)  0.82430000(17000)  0.37750000(17000)  0.39200
 C3_79  C 1.0  0.87750000(20000)  0.32430000(17000)  0.32430000(17000)  0.39200
 C3_80  C 1.0  0.37750000(20000)  0.32430000(17000)  0.82430000(17000)  0.39200
 C3_81  C 1.0  0.37750000(20000)  0.82430000(17000)  0.32430000(17000)  0.39200
 C3_82  C 1.0  0.82430000(20000)  0.37750000(17000)  0.32430000(17000)  0.39200
 C3_83  C 1.0  0.32430000(20000)  0.37750000(17000)  0.82430000(17000)  0.39200
 C3_84  C 1.0  0.32430000(20000)  0.87750000(17000)  0.32430000(17000)  0.39200
 C3_85  C 1.0  0.82430000(20000)  0.32430000(17000)  0.37750000(17000)  0.39200
 C3_86  C 1.0  0.32430000(20000)  0.32430000(17000)  0.87750000(17000)  0.39200
 C3_87  C 1.0  0.32430000(20000)  0.82430000(17000)  0.37750000(17000)  0.39200
 C3_88  C 1.0  0.87750000(20000)  0.32430000(17000)  0.67570000(17000)  0.39200
 C3_89  C 1.0  0.37750000(20000)  0.32430000(17000)  0.17570000(17000)  0.39200
 C3_90  C 1.0  0.37750000(20000)  0.82430000(17000)  0.67570000(17000)  0.39200
 C3_91  C 1.0  0.82430000(20000)  0.37750000(17000)  0.67570000(17000)  0.39200
 C3_92  C 1.0  0.32430000(20000)  0.37750000(17000)  0.17570000(17000)  0.39200
 C3_93  C 1.0  0.32430000(20000)  0.87750000(17000)  0.67570000(17000)  0.39200
 C3_94  C 1.0  0.82430000(20000)  0.32430000(17000)  0.62250000(17000)  0.39200
 C3_95  C 1.0  0.32430000(20000)  0.32430000(17000)  0.12250000(17000)  0.39200
 C3_96  C 1.0  0.32430000(20000)  0.82430000(17000)  0.62250000(17000)  0.39200
 C4_2  C 1.0  0.16750000(18000)  0.11476000(15000)  0.19329000(16000)  0.55667
 C4_3  C 1.0  0.19329000(18000)  0.16750000(15000)  0.11476000(16000)  0.55667
 C4_4  C 1.0  0.11476000(18000)  0.19329000(15000)  0.83250000(16000)  0.55667
 C4_5  C 1.0  0.16750000(18000)  0.11476000(15000)  0.80671000(16000)  0.55667
 C4_6  C 1.0  0.19329000(18000)  0.16750000(15000)  0.88524000(16000)  0.55667
 C4_7  C 1.0  0.88524000(18000)  0.19329000(15000)  0.16750000(16000)  0.55667
 C4_8  C 1.0  0.83250000(18000)  0.11476000(15000)  0.19329000(16000)  0.55667
 C4_9  C 1.0  0.80671000(18000)  0.16750000(15000)  0.11476000(16000)  0.55667
 C4_10  C 1.0  0.88524000(18000)  0.19329000(15000)  0.83250000(16000)  0.55667
 C4_11  C 1.0  0.83250000(18000)  0.11476000(15000)  0.80671000(16000)  0.55667
 C4_12  C 1.0  0.80671000(18000)  0.16750000(15000)  0.88524000(16000)  0.55667
 C4_13  C 1.0  0.19329000(18000)  0.11476000(15000)  0.16750000(16000)  0.55667
 C4_14  C 1.0  0.11476000(18000)  0.16750000(15000)  0.19329000(16000)  0.55667
 C4_15  C 1.0  0.16750000(18000)  0.19329000(15000)  0.11476000(16000)  0.55667
 C4_16  C 1.0  0.19329000(18000)  0.11476000(15000)  0.83250000(16000)  0.55667
 C4_17  C 1.0  0.11476000(18000)  0.16750000(15000)  0.80671000(16000)  0.55667
 C4_18  C 1.0  0.16750000(18000)  0.19329000(15000)  0.88524000(16000)  0.55667
 C4_19  C 1.0  0.19329000(18000)  0.88524000(15000)  0.16750000(16000)  0.55667
 C4_20  C 1.0  0.11476000(18000)  0.83250000(15000)  0.19329000(16000)  0.55667
 C4_21  C 1.0  0.16750000(18000)  0.80671000(15000)  0.11476000(16000)  0.55667
 C4_22  C 1.0  0.19329000(18000)  0.88524000(15000)  0.83250000(16000)  0.55667
 C4_23  C 1.0  0.11476000(18000)  0.83250000(15000)  0.80671000(16000)  0.55667
 C4_24  C 1.0  0.16750000(18000)  0.80671000(15000)  0.88524000(16000)  0.55667
 C4_25  C 1.0  0.88524000(18000)  0.80671000(15000)  0.83250000(16000)  0.55667
 C4_26  C 1.0  0.83250000(18000)  0.88524000(15000)  0.80671000(16000)  0.55667
 C4_27  C 1.0  0.80671000(18000)  0.83250000(15000)  0.88524000(16000)  0.55667
 C4_28  C 1.0  0.88524000(18000)  0.80671000(15000)  0.16750000(16000)  0.55667
 C4_29  C 1.0  0.83250000(18000)  0.88524000(15000)  0.19329000(16000)  0.55667
 C4_30  C 1.0  0.80671000(18000)  0.83250000(15000)  0.11476000(16000)  0.55667
 C4_31  C 1.0  0.11476000(18000)  0.80671000(15000)  0.83250000(16000)  0.55667
 C4_32  C 1.0  0.16750000(18000)  0.88524000(15000)  0.80671000(16000)  0.55667
 C4_33  C 1.0  0.19329000(18000)  0.83250000(15000)  0.88524000(16000)  0.55667
 C4_34  C 1.0  0.11476000(18000)  0.80671000(15000)  0.16750000(16000)  0.55667
 C4_35  C 1.0  0.16750000(18000)  0.88524000(15000)  0.19329000(16000)  0.55667
 C4_36  C 1.0  0.19329000(18000)  0.83250000(15000)  0.11476000(16000)  0.55667
 C4_37  C 1.0  0.80671000(18000)  0.88524000(15000)  0.83250000(16000)  0.55667
 C4_38  C 1.0  0.88524000(18000)  0.83250000(15000)  0.80671000(16000)  0.55667
 C4_39  C 1.0  0.83250000(18000)  0.80671000(15000)  0.88524000(16000)  0.55667
 C4_40  C 1.0  0.80671000(18000)  0.88524000(15000)  0.16750000(16000)  0.55667
 C4_41  C 1.0  0.88524000(18000)  0.83250000(15000)  0.19329000(16000)  0.55667
 C4_42  C 1.0  0.83250000(18000)  0.80671000(15000)  0.11476000(16000)  0.55667
 C4_43  C 1.0  0.80671000(18000)  0.11476000(15000)  0.83250000(16000)  0.55667
 C4_44  C 1.0  0.88524000(18000)  0.16750000(15000)  0.80671000(16000)  0.55667
 C4_45  C 1.0  0.83250000(18000)  0.19329000(15000)  0.88524000(16000)  0.55667
 C4_46  C 1.0  0.80671000(18000)  0.11476000(15000)  0.16750000(16000)  0.55667
 C4_47  C 1.0  0.88524000(18000)  0.16750000(15000)  0.19329000(16000)  0.55667
 C4_48  C 1.0  0.83250000(18000)  0.19329000(15000)  0.11476000(16000)  0.55667
 C4_49  C 1.0  0.11476000(18000)  0.69329000(15000)  0.66750000(16000)  0.55667
 C4_50  C 1.0  0.61476000(18000)  0.69329000(15000)  0.16750000(16000)  0.55667
 C4_51  C 1.0  0.61476000(18000)  0.19329000(15000)  0.66750000(16000)  0.55667
 C4_52  C 1.0  0.16750000(18000)  0.61476000(15000)  0.69329000(16000)  0.55667
 C4_53  C 1.0  0.66750000(18000)  0.61476000(15000)  0.19329000(16000)  0.55667
 C4_54  C 1.0  0.66750000(18000)  0.11476000(15000)  0.69329000(16000)  0.55667
 C4_55  C 1.0  0.19329000(18000)  0.66750000(15000)  0.61476000(16000)  0.55667
 C4_56  C 1.0  0.69329000(18000)  0.66750000(15000)  0.11476000(16000)  0.55667
 C4_57  C 1.0  0.69329000(18000)  0.16750000(15000)  0.61476000(16000)  0.55667
 C4_58  C 1.0  0.11476000(18000)  0.69329000(15000)  0.33250000(16000)  0.55667
 C4_59  C 1.0  0.61476000(18000)  0.69329000(15000)  0.83250000(16000)  0.55667
 C4_60  C 1.0  0.61476000(18000)  0.19329000(15000)  0.33250000(16000)  0.55667
 C4_61  C 1.0  0.16750000(18000)  0.61476000(15000)  0.30671000(16000)  0.55667
 C4_62  C 1.0  0.66750000(18000)  0.61476000(15000)  0.80671000(16000)  0.55667
 C4_63  C 1.0  0.66750000(18000)  0.11476000(15000)  0.30671000(16000)  0.55667
 C4_64  C 1.0  0.19329000(18000)  0.66750000(15000)  0.38524000(16000)  0.55667
 C4_65  C 1.0  0.69329000(18000)  0.66750000(15000)  0.88524000(16000)  0.55667
 C4_66  C 1.0  0.69329000(18000)  0.16750000(15000)  0.38524000(16000)  0.55667
 C4_67  C 1.0  0.88524000(18000)  0.69329000(15000)  0.66750000(16000)  0.55667
 C4_68  C 1.0  0.38524000(18000)  0.69329000(15000)  0.16750000(16000)  0.55667
 C4_69  C 1.0  0.38524000(18000)  0.19329000(15000)  0.66750000(16000)  0.55667
 C4_70  C 1.0  0.83250000(18000)  0.61476000(15000)  0.69329000(16000)  0.55667
 C4_71  C 1.0  0.33250000(18000)  0.61476000(15000)  0.19329000(16000)  0.55667
 C4_72  C 1.0  0.33250000(18000)  0.11476000(15000)  0.69329000(16000)  0.55667
 C4_73  C 1.0  0.80671000(18000)  0.66750000(15000)  0.61476000(16000)  0.55667
 C4_74  C 1.0  0.30671000(18000)  0.66750000(15000)  0.11476000(16000)  0.55667
 C4_75  C 1.0  0.30671000(18000)  0.16750000(15000)  0.61476000(16000)  0.55667
 C4_76  C 1.0  0.88524000(18000)  0.69329000(15000)  0.33250000(16000)  0.55667
 C4_77  C 1.0  0.38524000(18000)  0.69329000(15000)  0.83250000(16000)  0.55667
 C4_78  C 1.0  0.38524000(18000)  0.19329000(15000)  0.33250000(16000)  0.55667
 C4_79  C 1.0  0.83250000(18000)  0.61476000(15000)  0.30671000(16000)  0.55667
 C4_80  C 1.0  0.33250000(18000)  0.61476000(15000)  0.80671000(16000)  0.55667
 C4_81  C 1.0  0.33250000(18000)  0.11476000(15000)  0.30671000(16000)  0.55667
 C4_82  C 1.0  0.80671000(18000)  0.66750000(15000)  0.38524000(16000)  0.55667
 C4_83  C 1.0  0.30671000(18000)  0.66750000(15000)  0.88524000(16000)  0.55667
 C4_84  C 1.0  0.30671000(18000)  0.16750000(15000)  0.38524000(16000)  0.55667
 C4_85  C 1.0  0.19329000(18000)  0.61476000(15000)  0.66750000(16000)  0.55667
 C4_86  C 1.0  0.69329000(18000)  0.61476000(15000)  0.16750000(16000)  0.55667
 C4_87  C 1.0  0.69329000(18000)  0.11476000(15000)  0.66750000(16000)  0.55667
 C4_88  C 1.0  0.11476000(18000)  0.66750000(15000)  0.69329000(16000)  0.55667
 C4_89  C 1.0  0.61476000(18000)  0.66750000(15000)  0.19329000(16000)  0.55667
 C4_90  C 1.0  0.61476000(18000)  0.16750000(15000)  0.69329000(16000)  0.55667
 C4_91  C 1.0  0.16750000(18000)  0.69329000(15000)  0.61476000(16000)  0.55667
 C4_92  C 1.0  0.66750000(18000)  0.69329000(15000)  0.11476000(16000)  0.55667
 C4_93  C 1.0  0.66750000(18000)  0.19329000(15000)  0.61476000(16000)  0.55667
 C4_94  C 1.0  0.19329000(18000)  0.61476000(15000)  0.33250000(16000)  0.55667
 C4_95  C 1.0  0.69329000(18000)  0.61476000(15000)  0.83250000(16000)  0.55667
 C4_96  C 1.0  0.69329000(18000)  0.11476000(15000)  0.33250000(16000)  0.55667
 C4_97  C 1.0  0.11476000(18000)  0.66750000(15000)  0.30671000(16000)  0.55667
 C4_98  C 1.0  0.61476000(18000)  0.66750000(15000)  0.80671000(16000)  0.55667
 C4_99  C 1.0  0.61476000(18000)  0.16750000(15000)  0.30671000(16000)  0.55667
 C4_100  C 1.0  0.16750000(18000)  0.69329000(15000)  0.38524000(16000)  0.55667
 C4_101  C 1.0  0.66750000(18000)  0.69329000(15000)  0.88524000(16000)  0.55667
 C4_102  C 1.0  0.66750000(18000)  0.19329000(15000)  0.38524000(16000)  0.55667
 C4_103  C 1.0  0.19329000(18000)  0.38524000(15000)  0.66750000(16000)  0.55667
 C4_104  C 1.0  0.69329000(18000)  0.38524000(15000)  0.16750000(16000)  0.55667
 C4_105  C 1.0  0.69329000(18000)  0.88524000(15000)  0.66750000(16000)  0.55667
 C4_106  C 1.0  0.11476000(18000)  0.33250000(15000)  0.69329000(16000)  0.55667
 C4_107  C 1.0  0.61476000(18000)  0.33250000(15000)  0.19329000(16000)  0.55667
 C4_108  C 1.0  0.61476000(18000)  0.83250000(15000)  0.69329000(16000)  0.55667
 C4_109  C 1.0  0.16750000(18000)  0.30671000(15000)  0.61476000(16000)  0.55667
 C4_110  C 1.0  0.66750000(18000)  0.30671000(15000)  0.11476000(16000)  0.55667
 C4_111  C 1.0  0.66750000(18000)  0.80671000(15000)  0.61476000(16000)  0.55667
 C4_112  C 1.0  0.19329000(18000)  0.38524000(15000)  0.33250000(16000)  0.55667
 C4_113  C 1.0  0.69329000(18000)  0.38524000(15000)  0.83250000(16000)  0.55667
 C4_114  C 1.0  0.69329000(18000)  0.88524000(15000)  0.33250000(16000)  0.55667
 C4_115  C 1.0  0.11476000(18000)  0.33250000(15000)  0.30671000(16000)  0.55667
 C4_116  C 1.0  0.61476000(18000)  0.33250000(15000)  0.80671000(16000)  0.55667
 C4_117  C 1.0  0.61476000(18000)  0.83250000(15000)  0.30671000(16000)  0.55667
 C4_118  C 1.0  0.16750000(18000)  0.30671000(15000)  0.38524000(16000)  0.55667
 C4_119  C 1.0  0.66750000(18000)  0.30671000(15000)  0.88524000(16000)  0.55667
 C4_120  C 1.0  0.66750000(18000)  0.80671000(15000)  0.38524000(16000)  0.55667
 C4_121  C 1.0  0.88524000(18000)  0.30671000(15000)  0.33250000(16000)  0.55667
 C4_122  C 1.0  0.38524000(18000)  0.30671000(15000)  0.83250000(16000)  0.55667
 C4_123  C 1.0  0.38524000(18000)  0.80671000(15000)  0.33250000(16000)  0.55667
 C4_124  C 1.0  0.83250000(18000)  0.38524000(15000)  0.30671000(16000)  0.55667
 C4_125  C 1.0  0.33250000(18000)  0.38524000(15000)  0.80671000(16000)  0.55667
 C4_126  C 1.0  0.33250000(18000)  0.88524000(15000)  0.30671000(16000)  0.55667
 C4_127  C 1.0  0.80671000(18000)  0.33250000(15000)  0.38524000(16000)  0.55667
 C4_128  C 1.0  0.30671000(18000)  0.33250000(15000)  0.88524000(16000)  0.55667
 C4_129  C 1.0  0.30671000(18000)  0.83250000(15000)  0.38524000(16000)  0.55667
 C4_130  C 1.0  0.88524000(18000)  0.30671000(15000)  0.66750000(16000)  0.55667
 C4_131  C 1.0  0.38524000(18000)  0.30671000(15000)  0.16750000(16000)  0.55667
 C4_132  C 1.0  0.38524000(18000)  0.80671000(15000)  0.66750000(16000)  0.55667
 C4_133  C 1.0  0.83250000(18000)  0.38524000(15000)  0.69329000(16000)  0.55667
 C4_134  C 1.0  0.33250000(18000)  0.38524000(15000)  0.19329000(16000)  0.55667
 C4_135  C 1.0  0.33250000(18000)  0.88524000(15000)  0.69329000(16000)  0.55667
 C4_136  C 1.0  0.80671000(18000)  0.33250000(15000)  0.61476000(16000)  0.55667
 C4_137  C 1.0  0.30671000(18000)  0.33250000(15000)  0.11476000(16000)  0.55667
 C4_138  C 1.0  0.30671000(18000)  0.83250000(15000)  0.61476000(16000)  0.55667
 C4_139  C 1.0  0.11476000(18000)  0.30671000(15000)  0.33250000(16000)  0.55667
 C4_140  C 1.0  0.61476000(18000)  0.30671000(15000)  0.83250000(16000)  0.55667
 C4_141  C 1.0  0.61476000(18000)  0.80671000(15000)  0.33250000(16000)  0.55667
 C4_142  C 1.0  0.16750000(18000)  0.38524000(15000)  0.30671000(16000)  0.55667
 C4_143  C 1.0  0.66750000(18000)  0.38524000(15000)  0.80671000(16000)  0.55667
 C4_144  C 1.0  0.66750000(18000)  0.88524000(15000)  0.30671000(16000)  0.55667
 C4_145  C 1.0  0.19329000(18000)  0.33250000(15000)  0.38524000(16000)  0.55667
 C4_146  C 1.0  0.69329000(18000)  0.33250000(15000)  0.88524000(16000)  0.55667
 C4_147  C 1.0  0.69329000(18000)  0.83250000(15000)  0.38524000(16000)  0.55667
 C4_148  C 1.0  0.11476000(18000)  0.30671000(15000)  0.66750000(16000)  0.55667
 C4_149  C 1.0  0.61476000(18000)  0.30671000(15000)  0.16750000(16000)  0.55667
 C4_150  C 1.0  0.61476000(18000)  0.80671000(15000)  0.66750000(16000)  0.55667
 C4_151  C 1.0  0.16750000(18000)  0.38524000(15000)  0.69329000(16000)  0.55667
 C4_152  C 1.0  0.66750000(18000)  0.38524000(15000)  0.19329000(16000)  0.55667
 C4_153  C 1.0  0.66750000(18000)  0.88524000(15000)  0.69329000(16000)  0.55667
 C4_154  C 1.0  0.19329000(18000)  0.33250000(15000)  0.61476000(16000)  0.55667
 C4_155  C 1.0  0.69329000(18000)  0.33250000(15000)  0.11476000(16000)  0.55667
 C4_156  C 1.0  0.69329000(18000)  0.83250000(15000)  0.61476000(16000)  0.55667
 C4_157  C 1.0  0.80671000(18000)  0.38524000(15000)  0.33250000(16000)  0.55667
 C4_158  C 1.0  0.30671000(18000)  0.38524000(15000)  0.83250000(16000)  0.55667
 C4_159  C 1.0  0.30671000(18000)  0.88524000(15000)  0.33250000(16000)  0.55667
 C4_160  C 1.0  0.88524000(18000)  0.33250000(15000)  0.30671000(16000)  0.55667
 C4_161  C 1.0  0.38524000(18000)  0.33250000(15000)  0.80671000(16000)  0.55667
 C4_162  C 1.0  0.38524000(18000)  0.83250000(15000)  0.30671000(16000)  0.55667
 C4_163  C 1.0  0.83250000(18000)  0.30671000(15000)  0.38524000(16000)  0.55667
 C4_164  C 1.0  0.33250000(18000)  0.30671000(15000)  0.88524000(16000)  0.55667
 C4_165  C 1.0  0.33250000(18000)  0.80671000(15000)  0.38524000(16000)  0.55667
 C4_166  C 1.0  0.80671000(18000)  0.38524000(15000)  0.66750000(16000)  0.55667
 C4_167  C 1.0  0.30671000(18000)  0.38524000(15000)  0.16750000(16000)  0.55667
 C4_168  C 1.0  0.30671000(18000)  0.88524000(15000)  0.66750000(16000)  0.55667
 C4_169  C 1.0  0.88524000(18000)  0.33250000(15000)  0.69329000(16000)  0.55667
 C4_170  C 1.0  0.38524000(18000)  0.33250000(15000)  0.19329000(16000)  0.55667
 C4_171  C 1.0  0.38524000(18000)  0.83250000(15000)  0.69329000(16000)  0.55667
 C4_172  C 1.0  0.83250000(18000)  0.30671000(15000)  0.61476000(16000)  0.55667
 C4_173  C 1.0  0.33250000(18000)  0.30671000(15000)  0.11476000(16000)  0.55667
 C4_174  C 1.0  0.33250000(18000)  0.80671000(15000)  0.61476000(16000)  0.55667
 C4_175  C 1.0  0.80671000(18000)  0.61476000(15000)  0.33250000(16000)  0.55667
 C4_176  C 1.0  0.30671000(18000)  0.61476000(15000)  0.83250000(16000)  0.55667
 C4_177  C 1.0  0.30671000(18000)  0.11476000(15000)  0.33250000(16000)  0.55667
 C4_178  C 1.0  0.88524000(18000)  0.66750000(15000)  0.30671000(16000)  0.55667
 C4_179  C 1.0  0.38524000(18000)  0.66750000(15000)  0.80671000(16000)  0.55667
 C4_180  C 1.0  0.38524000(18000)  0.16750000(15000)  0.30671000(16000)  0.55667
 C4_181  C 1.0  0.83250000(18000)  0.69329000(15000)  0.38524000(16000)  0.55667
 C4_182  C 1.0  0.33250000(18000)  0.69329000(15000)  0.88524000(16000)  0.55667
 C4_183  C 1.0  0.33250000(18000)  0.19329000(15000)  0.38524000(16000)  0.55667
 C4_184  C 1.0  0.80671000(18000)  0.61476000(15000)  0.66750000(16000)  0.55667
 C4_185  C 1.0  0.30671000(18000)  0.61476000(15000)  0.16750000(16000)  0.55667
 C4_186  C 1.0  0.30671000(18000)  0.11476000(15000)  0.66750000(16000)  0.55667
 C4_187  C 1.0  0.88524000(18000)  0.66750000(15000)  0.69329000(16000)  0.55667
 C4_188  C 1.0  0.38524000(18000)  0.66750000(15000)  0.19329000(16000)  0.55667
 C4_189  C 1.0  0.38524000(18000)  0.16750000(15000)  0.69329000(16000)  0.55667
 C4_190  C 1.0  0.83250000(18000)  0.69329000(15000)  0.61476000(16000)  0.55667
 C4_191  C 1.0  0.33250000(18000)  0.69329000(15000)  0.11476000(16000)  0.55667
 C4_192  C 1.0  0.33250000(18000)  0.19329000(15000)  0.61476000(16000)  0.55667
 C5_2  C 1.0  0.17653000(20000)  0.09840000(19000)  0.20241000(17000)  0.54000
 C5_3  C 1.0  0.20241000(20000)  0.17653000(19000)  0.09840000(17000)  0.54000
 C5_4  C 1.0  0.09840000(20000)  0.20241000(19000)  0.82347000(17000)  0.54000
 C5_5  C 1.0  0.17653000(20000)  0.09840000(19000)  0.79759000(17000)  0.54000
 C5_6  C 1.0  0.20241000(20000)  0.17653000(19000)  0.90160000(17000)  0.54000
 C5_7  C 1.0  0.90160000(20000)  0.20241000(19000)  0.17653000(17000)  0.54000
 C5_8  C 1.0  0.82347000(20000)  0.09840000(19000)  0.20241000(17000)  0.54000
 C5_9  C 1.0  0.79759000(20000)  0.17653000(19000)  0.09840000(17000)  0.54000
 C5_10  C 1.0  0.90160000(20000)  0.20241000(19000)  0.82347000(17000)  0.54000
 C5_11  C 1.0  0.82347000(20000)  0.09840000(19000)  0.79759000(17000)  0.54000
 C5_12  C 1.0  0.79759000(20000)  0.17653000(19000)  0.90160000(17000)  0.54000
 C5_13  C 1.0  0.20241000(20000)  0.09840000(19000)  0.17653000(17000)  0.54000
 C5_14  C 1.0  0.09840000(20000)  0.17653000(19000)  0.20241000(17000)  0.54000
 C5_15  C 1.0  0.17653000(20000)  0.20241000(19000)  0.09840000(17000)  0.54000
 C5_16  C 1.0  0.20241000(20000)  0.09840000(19000)  0.82347000(17000)  0.54000
 C5_17  C 1.0  0.09840000(20000)  0.17653000(19000)  0.79759000(17000)  0.54000
 C5_18  C 1.0  0.17653000(20000)  0.20241000(19000)  0.90160000(17000)  0.54000
 C5_19  C 1.0  0.20241000(20000)  0.90160000(19000)  0.17653000(17000)  0.54000
 C5_20  C 1.0  0.09840000(20000)  0.82347000(19000)  0.20241000(17000)  0.54000
 C5_21  C 1.0  0.17653000(20000)  0.79759000(19000)  0.09840000(17000)  0.54000
 C5_22  C 1.0  0.20241000(20000)  0.90160000(19000)  0.82347000(17000)  0.54000
 C5_23  C 1.0  0.09840000(20000)  0.82347000(19000)  0.79759000(17000)  0.54000
 C5_24  C 1.0  0.17653000(20000)  0.79759000(19000)  0.90160000(17000)  0.54000
 C5_25  C 1.0  0.90160000(20000)  0.79759000(19000)  0.82347000(17000)  0.54000
 C5_26  C 1.0  0.82347000(20000)  0.90160000(19000)  0.79759000(17000)  0.54000
 C5_27  C 1.0  0.79759000(20000)  0.82347000(19000)  0.90160000(17000)  0.54000
 C5_28  C 1.0  0.90160000(20000)  0.79759000(19000)  0.17653000(17000)  0.54000
 C5_29  C 1.0  0.82347000(20000)  0.90160000(19000)  0.20241000(17000)  0.54000
 C5_30  C 1.0  0.79759000(20000)  0.82347000(19000)  0.09840000(17000)  0.54000
 C5_31  C 1.0  0.09840000(20000)  0.79759000(19000)  0.82347000(17000)  0.54000
 C5_32  C 1.0  0.17653000(20000)  0.90160000(19000)  0.79759000(17000)  0.54000
 C5_33  C 1.0  0.20241000(20000)  0.82347000(19000)  0.90160000(17000)  0.54000
 C5_34  C 1.0  0.09840000(20000)  0.79759000(19000)  0.17653000(17000)  0.54000
 C5_35  C 1.0  0.17653000(20000)  0.90160000(19000)  0.20241000(17000)  0.54000
 C5_36  C 1.0  0.20241000(20000)  0.82347000(19000)  0.09840000(17000)  0.54000
 C5_37  C 1.0  0.79759000(20000)  0.90160000(19000)  0.82347000(17000)  0.54000
 C5_38  C 1.0  0.90160000(20000)  0.82347000(19000)  0.79759000(17000)  0.54000
 C5_39  C 1.0  0.82347000(20000)  0.79759000(19000)  0.90160000(17000)  0.54000
 C5_40  C 1.0  0.79759000(20000)  0.90160000(19000)  0.17653000(17000)  0.54000
 C5_41  C 1.0  0.90160000(20000)  0.82347000(19000)  0.20241000(17000)  0.54000
 C5_42  C 1.0  0.82347000(20000)  0.79759000(19000)  0.09840000(17000)  0.54000
 C5_43  C 1.0  0.79759000(20000)  0.09840000(19000)  0.82347000(17000)  0.54000
 C5_44  C 1.0  0.90160000(20000)  0.17653000(19000)  0.79759000(17000)  0.54000
 C5_45  C 1.0  0.82347000(20000)  0.20241000(19000)  0.90160000(17000)  0.54000
 C5_46  C 1.0  0.79759000(20000)  0.09840000(19000)  0.17653000(17000)  0.54000
 C5_47  C 1.0  0.90160000(20000)  0.17653000(19000)  0.20241000(17000)  0.54000
 C5_48  C 1.0  0.82347000(20000)  0.20241000(19000)  0.09840000(17000)  0.54000
 C5_49  C 1.0  0.09840000(20000)  0.70241000(19000)  0.67653000(17000)  0.54000
 C5_50  C 1.0  0.59840000(20000)  0.70241000(19000)  0.17653000(17000)  0.54000
 C5_51  C 1.0  0.59840000(20000)  0.20241000(19000)  0.67653000(17000)  0.54000
 C5_52  C 1.0  0.17653000(20000)  0.59840000(19000)  0.70241000(17000)  0.54000
 C5_53  C 1.0  0.67653000(20000)  0.59840000(19000)  0.20241000(17000)  0.54000
 C5_54  C 1.0  0.67653000(20000)  0.09840000(19000)  0.70241000(17000)  0.54000
 C5_55  C 1.0  0.20241000(20000)  0.67653000(19000)  0.59840000(17000)  0.54000
 C5_56  C 1.0  0.70241000(20000)  0.67653000(19000)  0.09840000(17000)  0.54000
 C5_57  C 1.0  0.70241000(20000)  0.17653000(19000)  0.59840000(17000)  0.54000
 C5_58  C 1.0  0.09840000(20000)  0.70241000(19000)  0.32347000(17000)  0.54000
 C5_59  C 1.0  0.59840000(20000)  0.70241000(19000)  0.82347000(17000)  0.54000
 C5_60  C 1.0  0.59840000(20000)  0.20241000(19000)  0.32347000(17000)  0.54000
 C5_61  C 1.0  0.17653000(20000)  0.59840000(19000)  0.29759000(17000)  0.54000
 C5_62  C 1.0  0.67653000(20000)  0.59840000(19000)  0.79759000(17000)  0.54000
 C5_63  C 1.0  0.67653000(20000)  0.09840000(19000)  0.29759000(17000)  0.54000
 C5_64  C 1.0  0.20241000(20000)  0.67653000(19000)  0.40160000(17000)  0.54000
 C5_65  C 1.0  0.70241000(20000)  0.67653000(19000)  0.90160000(17000)  0.54000
 C5_66  C 1.0  0.70241000(20000)  0.17653000(19000)  0.40160000(17000)  0.54000
 C5_67  C 1.0  0.90160000(20000)  0.70241000(19000)  0.67653000(17000)  0.54000
 C5_68  C 1.0  0.40160000(20000)  0.70241000(19000)  0.17653000(17000)  0.54000
 C5_69  C 1.0  0.40160000(20000)  0.20241000(19000)  0.67653000(17000)  0.54000
 C5_70  C 1.0  0.82347000(20000)  0.59840000(19000)  0.70241000(17000)  0.54000
 C5_71  C 1.0  0.32347000(20000)  0.59840000(19000)  0.20241000(17000)  0.54000
 C5_72  C 1.0  0.32347000(20000)  0.09840000(19000)  0.70241000(17000)  0.54000
 C5_73  C 1.0  0.79759000(20000)  0.67653000(19000)  0.59840000(17000)  0.54000
 C5_74  C 1.0  0.29759000(20000)  0.67653000(19000)  0.09840000(17000)  0.54000
 C5_75  C 1.0  0.29759000(20000)  0.17653000(19000)  0.59840000(17000)  0.54000
 C5_76  C 1.0  0.90160000(20000)  0.70241000(19000)  0.32347000(17000)  0.54000
 C5_77  C 1.0  0.40160000(20000)  0.70241000(19000)  0.82347000(17000)  0.54000
 C5_78  C 1.0  0.40160000(20000)  0.20241000(19000)  0.32347000(17000)  0.54000
 C5_79  C 1.0  0.82347000(20000)  0.59840000(19000)  0.29759000(17000)  0.54000
 C5_80  C 1.0  0.32347000(20000)  0.59840000(19000)  0.79759000(17000)  0.54000
 C5_81  C 1.0  0.32347000(20000)  0.09840000(19000)  0.29759000(17000)  0.54000
 C5_82  C 1.0  0.79759000(20000)  0.67653000(19000)  0.40160000(17000)  0.54000
 C5_83  C 1.0  0.29759000(20000)  0.67653000(19000)  0.90160000(17000)  0.54000
 C5_84  C 1.0  0.29759000(20000)  0.17653000(19000)  0.40160000(17000)  0.54000
 C5_85  C 1.0  0.20241000(20000)  0.59840000(19000)  0.67653000(17000)  0.54000
 C5_86  C 1.0  0.70241000(20000)  0.59840000(19000)  0.17653000(17000)  0.54000
 C5_87  C 1.0  0.70241000(20000)  0.09840000(19000)  0.67653000(17000)  0.54000
 C5_88  C 1.0  0.09840000(20000)  0.67653000(19000)  0.70241000(17000)  0.54000
 C5_89  C 1.0  0.59840000(20000)  0.67653000(19000)  0.20241000(17000)  0.54000
 C5_90  C 1.0  0.59840000(20000)  0.17653000(19000)  0.70241000(17000)  0.54000
 C5_91  C 1.0  0.17653000(20000)  0.70241000(19000)  0.59840000(17000)  0.54000
 C5_92  C 1.0  0.67653000(20000)  0.70241000(19000)  0.09840000(17000)  0.54000
 C5_93  C 1.0  0.67653000(20000)  0.20241000(19000)  0.59840000(17000)  0.54000
 C5_94  C 1.0  0.20241000(20000)  0.59840000(19000)  0.32347000(17000)  0.54000
 C5_95  C 1.0  0.70241000(20000)  0.59840000(19000)  0.82347000(17000)  0.54000
 C5_96  C 1.0  0.70241000(20000)  0.09840000(19000)  0.32347000(17000)  0.54000
 C5_97  C 1.0  0.09840000(20000)  0.67653000(19000)  0.29759000(17000)  0.54000
 C5_98  C 1.0  0.59840000(20000)  0.67653000(19000)  0.79759000(17000)  0.54000
 C5_99  C 1.0  0.59840000(20000)  0.17653000(19000)  0.29759000(17000)  0.54000
 C5_100  C 1.0  0.17653000(20000)  0.70241000(19000)  0.40160000(17000)  0.54000
 C5_101  C 1.0  0.67653000(20000)  0.70241000(19000)  0.90160000(17000)  0.54000
 C5_102  C 1.0  0.67653000(20000)  0.20241000(19000)  0.40160000(17000)  0.54000
 C5_103  C 1.0  0.20241000(20000)  0.40160000(19000)  0.67653000(17000)  0.54000
 C5_104  C 1.0  0.70241000(20000)  0.40160000(19000)  0.17653000(17000)  0.54000
 C5_105  C 1.0  0.70241000(20000)  0.90160000(19000)  0.67653000(17000)  0.54000
 C5_106  C 1.0  0.09840000(20000)  0.32347000(19000)  0.70241000(17000)  0.54000
 C5_107  C 1.0  0.59840000(20000)  0.32347000(19000)  0.20241000(17000)  0.54000
 C5_108  C 1.0  0.59840000(20000)  0.82347000(19000)  0.70241000(17000)  0.54000
 C5_109  C 1.0  0.17653000(20000)  0.29759000(19000)  0.59840000(17000)  0.54000
 C5_110  C 1.0  0.67653000(20000)  0.29759000(19000)  0.09840000(17000)  0.54000
 C5_111  C 1.0  0.67653000(20000)  0.79759000(19000)  0.59840000(17000)  0.54000
 C5_112  C 1.0  0.20241000(20000)  0.40160000(19000)  0.32347000(17000)  0.54000
 C5_113  C 1.0  0.70241000(20000)  0.40160000(19000)  0.82347000(17000)  0.54000
 C5_114  C 1.0  0.70241000(20000)  0.90160000(19000)  0.32347000(17000)  0.54000
 C5_115  C 1.0  0.09840000(20000)  0.32347000(19000)  0.29759000(17000)  0.54000
 C5_116  C 1.0  0.59840000(20000)  0.32347000(19000)  0.79759000(17000)  0.54000
 C5_117  C 1.0  0.59840000(20000)  0.82347000(19000)  0.29759000(17000)  0.54000
 C5_118  C 1.0  0.17653000(20000)  0.29759000(19000)  0.40160000(17000)  0.54000
 C5_119  C 1.0  0.67653000(20000)  0.29759000(19000)  0.90160000(17000)  0.54000
 C5_120  C 1.0  0.67653000(20000)  0.79759000(19000)  0.40160000(17000)  0.54000
 C5_121  C 1.0  0.90160000(20000)  0.29759000(19000)  0.32347000(17000)  0.54000
 C5_122  C 1.0  0.40160000(20000)  0.29759000(19000)  0.82347000(17000)  0.54000
 C5_123  C 1.0  0.40160000(20000)  0.79759000(19000)  0.32347000(17000)  0.54000
 C5_124  C 1.0  0.82347000(20000)  0.40160000(19000)  0.29759000(17000)  0.54000
 C5_125  C 1.0  0.32347000(20000)  0.40160000(19000)  0.79759000(17000)  0.54000
 C5_126  C 1.0  0.32347000(20000)  0.90160000(19000)  0.29759000(17000)  0.54000
 C5_127  C 1.0  0.79759000(20000)  0.32347000(19000)  0.40160000(17000)  0.54000
 C5_128  C 1.0  0.29759000(20000)  0.32347000(19000)  0.90160000(17000)  0.54000
 C5_129  C 1.0  0.29759000(20000)  0.82347000(19000)  0.40160000(17000)  0.54000
 C5_130  C 1.0  0.90160000(20000)  0.29759000(19000)  0.67653000(17000)  0.54000
 C5_131  C 1.0  0.40160000(20000)  0.29759000(19000)  0.17653000(17000)  0.54000
 C5_132  C 1.0  0.40160000(20000)  0.79759000(19000)  0.67653000(17000)  0.54000
 C5_133  C 1.0  0.82347000(20000)  0.40160000(19000)  0.70241000(17000)  0.54000
 C5_134  C 1.0  0.32347000(20000)  0.40160000(19000)  0.20241000(17000)  0.54000
 C5_135  C 1.0  0.32347000(20000)  0.90160000(19000)  0.70241000(17000)  0.54000
 C5_136  C 1.0  0.79759000(20000)  0.32347000(19000)  0.59840000(17000)  0.54000
 C5_137  C 1.0  0.29759000(20000)  0.32347000(19000)  0.09840000(17000)  0.54000
 C5_138  C 1.0  0.29759000(20000)  0.82347000(19000)  0.59840000(17000)  0.54000
 C5_139  C 1.0  0.09840000(20000)  0.29759000(19000)  0.32347000(17000)  0.54000
 C5_140  C 1.0  0.59840000(20000)  0.29759000(19000)  0.82347000(17000)  0.54000
 C5_141  C 1.0  0.59840000(20000)  0.79759000(19000)  0.32347000(17000)  0.54000
 C5_142  C 1.0  0.17653000(20000)  0.40160000(19000)  0.29759000(17000)  0.54000
 C5_143  C 1.0  0.67653000(20000)  0.40160000(19000)  0.79759000(17000)  0.54000
 C5_144  C 1.0  0.67653000(20000)  0.90160000(19000)  0.29759000(17000)  0.54000
 C5_145  C 1.0  0.20241000(20000)  0.32347000(19000)  0.40160000(17000)  0.54000
 C5_146  C 1.0  0.70241000(20000)  0.32347000(19000)  0.90160000(17000)  0.54000
 C5_147  C 1.0  0.70241000(20000)  0.82347000(19000)  0.40160000(17000)  0.54000
 C5_148  C 1.0  0.09840000(20000)  0.29759000(19000)  0.67653000(17000)  0.54000
 C5_149  C 1.0  0.59840000(20000)  0.29759000(19000)  0.17653000(17000)  0.54000
 C5_150  C 1.0  0.59840000(20000)  0.79759000(19000)  0.67653000(17000)  0.54000
 C5_151  C 1.0  0.17653000(20000)  0.40160000(19000)  0.70241000(17000)  0.54000
 C5_152  C 1.0  0.67653000(20000)  0.40160000(19000)  0.20241000(17000)  0.54000
 C5_153  C 1.0  0.67653000(20000)  0.90160000(19000)  0.70241000(17000)  0.54000
 C5_154  C 1.0  0.20241000(20000)  0.32347000(19000)  0.59840000(17000)  0.54000
 C5_155  C 1.0  0.70241000(20000)  0.32347000(19000)  0.09840000(17000)  0.54000
 C5_156  C 1.0  0.70241000(20000)  0.82347000(19000)  0.59840000(17000)  0.54000
 C5_157  C 1.0  0.79759000(20000)  0.40160000(19000)  0.32347000(17000)  0.54000
 C5_158  C 1.0  0.29759000(20000)  0.40160000(19000)  0.82347000(17000)  0.54000
 C5_159  C 1.0  0.29759000(20000)  0.90160000(19000)  0.32347000(17000)  0.54000
 C5_160  C 1.0  0.90160000(20000)  0.32347000(19000)  0.29759000(17000)  0.54000
 C5_161  C 1.0  0.40160000(20000)  0.32347000(19000)  0.79759000(17000)  0.54000
 C5_162  C 1.0  0.40160000(20000)  0.82347000(19000)  0.29759000(17000)  0.54000
 C5_163  C 1.0  0.82347000(20000)  0.29759000(19000)  0.40160000(17000)  0.54000
 C5_164  C 1.0  0.32347000(20000)  0.29759000(19000)  0.90160000(17000)  0.54000
 C5_165  C 1.0  0.32347000(20000)  0.79759000(19000)  0.40160000(17000)  0.54000
 C5_166  C 1.0  0.79759000(20000)  0.40160000(19000)  0.67653000(17000)  0.54000
 C5_167  C 1.0  0.29759000(20000)  0.40160000(19000)  0.17653000(17000)  0.54000
 C5_168  C 1.0  0.29759000(20000)  0.90160000(19000)  0.67653000(17000)  0.54000
 C5_169  C 1.0  0.90160000(20000)  0.32347000(19000)  0.70241000(17000)  0.54000
 C5_170  C 1.0  0.40160000(20000)  0.32347000(19000)  0.20241000(17000)  0.54000
 C5_171  C 1.0  0.40160000(20000)  0.82347000(19000)  0.70241000(17000)  0.54000
 C5_172  C 1.0  0.82347000(20000)  0.29759000(19000)  0.59840000(17000)  0.54000
 C5_173  C 1.0  0.32347000(20000)  0.29759000(19000)  0.09840000(17000)  0.54000
 C5_174  C 1.0  0.32347000(20000)  0.79759000(19000)  0.59840000(17000)  0.54000
 C5_175  C 1.0  0.79759000(20000)  0.59840000(19000)  0.32347000(17000)  0.54000
 C5_176  C 1.0  0.29759000(20000)  0.59840000(19000)  0.82347000(17000)  0.54000
 C5_177  C 1.0  0.29759000(20000)  0.09840000(19000)  0.32347000(17000)  0.54000
 C5_178  C 1.0  0.90160000(20000)  0.67653000(19000)  0.29759000(17000)  0.54000
 C5_179  C 1.0  0.40160000(20000)  0.67653000(19000)  0.79759000(17000)  0.54000
 C5_180  C 1.0  0.40160000(20000)  0.17653000(19000)  0.29759000(17000)  0.54000
 C5_181  C 1.0  0.82347000(20000)  0.70241000(19000)  0.40160000(17000)  0.54000
 C5_182  C 1.0  0.32347000(20000)  0.70241000(19000)  0.90160000(17000)  0.54000
 C5_183  C 1.0  0.32347000(20000)  0.20241000(19000)  0.40160000(17000)  0.54000
 C5_184  C 1.0  0.79759000(20000)  0.59840000(19000)  0.67653000(17000)  0.54000
 C5_185  C 1.0  0.29759000(20000)  0.59840000(19000)  0.17653000(17000)  0.54000
 C5_186  C 1.0  0.29759000(20000)  0.09840000(19000)  0.67653000(17000)  0.54000
 C5_187  C 1.0  0.90160000(20000)  0.67653000(19000)  0.70241000(17000)  0.54000
 C5_188  C 1.0  0.40160000(20000)  0.67653000(19000)  0.20241000(17000)  0.54000
 C5_189  C 1.0  0.40160000(20000)  0.17653000(19000)  0.70241000(17000)  0.54000
 C5_190  C 1.0  0.82347000(20000)  0.70241000(19000)  0.59840000(17000)  0.54000
 C5_191  C 1.0  0.32347000(20000)  0.70241000(19000)  0.09840000(17000)  0.54000
 C5_192  C 1.0  0.32347000(20000)  0.20241000(19000)  0.59840000(17000)  0.54000
 C6_2  C 1.0  0.19295000(20000)  0.08970000(18000)  0.19295000(18000)  0.33267
 C6_3  C 1.0  0.19295000(20000)  0.19295000(18000)  0.08970000(18000)  0.33267
 C6_4  C 1.0  0.08970000(20000)  0.19295000(18000)  0.80705000(18000)  0.33267
 C6_5  C 1.0  0.19295000(20000)  0.08970000(18000)  0.80705000(18000)  0.33267
 C6_6  C 1.0  0.19295000(20000)  0.19295000(18000)  0.91030000(18000)  0.33267
 C6_7  C 1.0  0.91030000(20000)  0.19295000(18000)  0.19295000(18000)  0.33267
 C6_8  C 1.0  0.80705000(20000)  0.08970000(18000)  0.19295000(18000)  0.33267
 C6_9  C 1.0  0.80705000(20000)  0.19295000(18000)  0.08970000(18000)  0.33267
 C6_10  C 1.0  0.91030000(20000)  0.19295000(18000)  0.80705000(18000)  0.33267
 C6_11  C 1.0  0.80705000(20000)  0.08970000(18000)  0.80705000(18000)  0.33267
 C6_12  C 1.0  0.80705000(20000)  0.19295000(18000)  0.91030000(18000)  0.33267
 C6_13  C 1.0  0.19295000(20000)  0.91030000(18000)  0.19295000(18000)  0.33267
 C6_14  C 1.0  0.08970000(20000)  0.80705000(18000)  0.19295000(18000)  0.33267
 C6_15  C 1.0  0.19295000(20000)  0.80705000(18000)  0.08970000(18000)  0.33267
 C6_16  C 1.0  0.19295000(20000)  0.91030000(18000)  0.80705000(18000)  0.33267
 C6_17  C 1.0  0.08970000(20000)  0.80705000(18000)  0.80705000(18000)  0.33267
 C6_18  C 1.0  0.19295000(20000)  0.80705000(18000)  0.91030000(18000)  0.33267
 C6_19  C 1.0  0.91030000(20000)  0.80705000(18000)  0.80705000(18000)  0.33267
 C6_20  C 1.0  0.80705000(20000)  0.91030000(18000)  0.80705000(18000)  0.33267
 C6_21  C 1.0  0.80705000(20000)  0.80705000(18000)  0.91030000(18000)  0.33267
 C6_22  C 1.0  0.91030000(20000)  0.80705000(18000)  0.19295000(18000)  0.33267
 C6_23  C 1.0  0.80705000(20000)  0.91030000(18000)  0.19295000(18000)  0.33267
 C6_24  C 1.0  0.80705000(20000)  0.80705000(18000)  0.08970000(18000)  0.33267
 C6_25  C 1.0  0.08970000(20000)  0.69295000(18000)  0.69295000(18000)  0.33267
 C6_26  C 1.0  0.58970000(20000)  0.69295000(18000)  0.19295000(18000)  0.33267
 C6_27  C 1.0  0.58970000(20000)  0.19295000(18000)  0.69295000(18000)  0.33267
 C6_28  C 1.0  0.19295000(20000)  0.58970000(18000)  0.69295000(18000)  0.33267
 C6_29  C 1.0  0.69295000(20000)  0.58970000(18000)  0.19295000(18000)  0.33267
 C6_30  C 1.0  0.69295000(20000)  0.08970000(18000)  0.69295000(18000)  0.33267
 C6_31  C 1.0  0.19295000(20000)  0.69295000(18000)  0.58970000(18000)  0.33267
 C6_32  C 1.0  0.69295000(20000)  0.69295000(18000)  0.08970000(18000)  0.33267
 C6_33  C 1.0  0.69295000(20000)  0.19295000(18000)  0.58970000(18000)  0.33267
 C6_34  C 1.0  0.08970000(20000)  0.69295000(18000)  0.30705000(18000)  0.33267
 C6_35  C 1.0  0.58970000(20000)  0.69295000(18000)  0.80705000(18000)  0.33267
 C6_36  C 1.0  0.58970000(20000)  0.19295000(18000)  0.30705000(18000)  0.33267
 C6_37  C 1.0  0.19295000(20000)  0.58970000(18000)  0.30705000(18000)  0.33267
 C6_38  C 1.0  0.69295000(20000)  0.58970000(18000)  0.80705000(18000)  0.33267
 C6_39  C 1.0  0.69295000(20000)  0.08970000(18000)  0.30705000(18000)  0.33267
 C6_40  C 1.0  0.19295000(20000)  0.69295000(18000)  0.41030000(18000)  0.33267
 C6_41  C 1.0  0.69295000(20000)  0.69295000(18000)  0.91030000(18000)  0.33267
 C6_42  C 1.0  0.69295000(20000)  0.19295000(18000)  0.41030000(18000)  0.33267
 C6_43  C 1.0  0.91030000(20000)  0.69295000(18000)  0.69295000(18000)  0.33267
 C6_44  C 1.0  0.41030000(20000)  0.69295000(18000)  0.19295000(18000)  0.33267
 C6_45  C 1.0  0.41030000(20000)  0.19295000(18000)  0.69295000(18000)  0.33267
 C6_46  C 1.0  0.80705000(20000)  0.58970000(18000)  0.69295000(18000)  0.33267
 C6_47  C 1.0  0.30705000(20000)  0.58970000(18000)  0.19295000(18000)  0.33267
 C6_48  C 1.0  0.30705000(20000)  0.08970000(18000)  0.69295000(18000)  0.33267
 C6_49  C 1.0  0.80705000(20000)  0.69295000(18000)  0.58970000(18000)  0.33267
 C6_50  C 1.0  0.30705000(20000)  0.69295000(18000)  0.08970000(18000)  0.33267
 C6_51  C 1.0  0.30705000(20000)  0.19295000(18000)  0.58970000(18000)  0.33267
 C6_52  C 1.0  0.91030000(20000)  0.69295000(18000)  0.30705000(18000)  0.33267
 C6_53  C 1.0  0.41030000(20000)  0.69295000(18000)  0.80705000(18000)  0.33267
 C6_54  C 1.0  0.41030000(20000)  0.19295000(18000)  0.30705000(18000)  0.33267
 C6_55  C 1.0  0.80705000(20000)  0.58970000(18000)  0.30705000(18000)  0.33267
 C6_56  C 1.0  0.30705000(20000)  0.58970000(18000)  0.80705000(18000)  0.33267
 C6_57  C 1.0  0.30705000(20000)  0.08970000(18000)  0.30705000(18000)  0.33267
 C6_58  C 1.0  0.80705000(20000)  0.69295000(18000)  0.41030000(18000)  0.33267
 C6_59  C 1.0  0.30705000(20000)  0.69295000(18000)  0.91030000(18000)  0.33267
 C6_60  C 1.0  0.30705000(20000)  0.19295000(18000)  0.41030000(18000)  0.33267
 C6_61  C 1.0  0.19295000(20000)  0.41030000(18000)  0.69295000(18000)  0.33267
 C6_62  C 1.0  0.69295000(20000)  0.41030000(18000)  0.19295000(18000)  0.33267
 C6_63  C 1.0  0.69295000(20000)  0.91030000(18000)  0.69295000(18000)  0.33267
 C6_64  C 1.0  0.08970000(20000)  0.30705000(18000)  0.69295000(18000)  0.33267
 C6_65  C 1.0  0.58970000(20000)  0.30705000(18000)  0.19295000(18000)  0.33267
 C6_66  C 1.0  0.58970000(20000)  0.80705000(18000)  0.69295000(18000)  0.33267
 C6_67  C 1.0  0.19295000(20000)  0.30705000(18000)  0.58970000(18000)  0.33267
 C6_68  C 1.0  0.69295000(20000)  0.30705000(18000)  0.08970000(18000)  0.33267
 C6_69  C 1.0  0.69295000(20000)  0.80705000(18000)  0.58970000(18000)  0.33267
 C6_70  C 1.0  0.19295000(20000)  0.41030000(18000)  0.30705000(18000)  0.33267
 C6_71  C 1.0  0.69295000(20000)  0.41030000(18000)  0.80705000(18000)  0.33267
 C6_72  C 1.0  0.69295000(20000)  0.91030000(18000)  0.30705000(18000)  0.33267
 C6_73  C 1.0  0.08970000(20000)  0.30705000(18000)  0.30705000(18000)  0.33267
 C6_74  C 1.0  0.58970000(20000)  0.30705000(18000)  0.80705000(18000)  0.33267
 C6_75  C 1.0  0.58970000(20000)  0.80705000(18000)  0.30705000(18000)  0.33267
 C6_76  C 1.0  0.19295000(20000)  0.30705000(18000)  0.41030000(18000)  0.33267
 C6_77  C 1.0  0.69295000(20000)  0.30705000(18000)  0.91030000(18000)  0.33267
 C6_78  C 1.0  0.69295000(20000)  0.80705000(18000)  0.41030000(18000)  0.33267
 C6_79  C 1.0  0.91030000(20000)  0.30705000(18000)  0.30705000(18000)  0.33267
 C6_80  C 1.0  0.41030000(20000)  0.30705000(18000)  0.80705000(18000)  0.33267
 C6_81  C 1.0  0.41030000(20000)  0.80705000(18000)  0.30705000(18000)  0.33267
 C6_82  C 1.0  0.80705000(20000)  0.41030000(18000)  0.30705000(18000)  0.33267
 C6_83  C 1.0  0.30705000(20000)  0.41030000(18000)  0.80705000(18000)  0.33267
 C6_84  C 1.0  0.30705000(20000)  0.91030000(18000)  0.30705000(18000)  0.33267
 C6_85  C 1.0  0.80705000(20000)  0.30705000(18000)  0.41030000(18000)  0.33267
 C6_86  C 1.0  0.30705000(20000)  0.30705000(18000)  0.91030000(18000)  0.33267
 C6_87  C 1.0  0.30705000(20000)  0.80705000(18000)  0.41030000(18000)  0.33267
 C6_88  C 1.0  0.91030000(20000)  0.30705000(18000)  0.69295000(18000)  0.33267
 C6_89  C 1.0  0.41030000(20000)  0.30705000(18000)  0.19295000(18000)  0.33267
 C6_90  C 1.0  0.41030000(20000)  0.80705000(18000)  0.69295000(18000)  0.33267
 C6_91  C 1.0  0.80705000(20000)  0.41030000(18000)  0.69295000(18000)  0.33267
 C6_92  C 1.0  0.30705000(20000)  0.41030000(18000)  0.19295000(18000)  0.33267
 C6_93  C 1.0  0.30705000(20000)  0.91030000(18000)  0.69295000(18000)  0.33267
 C6_94  C 1.0  0.80705000(20000)  0.30705000(18000)  0.58970000(18000)  0.33267
 C6_95  C 1.0  0.30705000(20000)  0.30705000(18000)  0.08970000(18000)  0.33267
 C6_96  C 1.0  0.30705000(20000)  0.80705000(18000)  0.58970000(18000)  0.33267
 C7_2  C 1.0  0.20205000(17000)  0.07159000(12000)  0.20205000(12000)  0.23667
 C7_3  C 1.0  0.20205000(17000)  0.20205000(12000)  0.07159000(12000)  0.23667
 C7_4  C 1.0  0.07159000(17000)  0.20205000(12000)  0.79795000(12000)  0.23667
 C7_5  C 1.0  0.20205000(17000)  0.07159000(12000)  0.79795000(12000)  0.23667
 C7_6  C 1.0  0.20205000(17000)  0.20205000(12000)  0.92841000(12000)  0.23667
 C7_7  C 1.0  0.92841000(17000)  0.20205000(12000)  0.20205000(12000)  0.23667
 C7_8  C 1.0  0.79795000(17000)  0.07159000(12000)  0.20205000(12000)  0.23667
 C7_9  C 1.0  0.79795000(17000)  0.20205000(12000)  0.07159000(12000)  0.23667
 C7_10  C 1.0  0.92841000(17000)  0.20205000(12000)  0.79795000(12000)  0.23667
 C7_11  C 1.0  0.79795000(17000)  0.07159000(12000)  0.79795000(12000)  0.23667
 C7_12  C 1.0  0.79795000(17000)  0.20205000(12000)  0.92841000(12000)  0.23667
 C7_13  C 1.0  0.20205000(17000)  0.92841000(12000)  0.20205000(12000)  0.23667
 C7_14  C 1.0  0.07159000(17000)  0.79795000(12000)  0.20205000(12000)  0.23667
 C7_15  C 1.0  0.20205000(17000)  0.79795000(12000)  0.07159000(12000)  0.23667
 C7_16  C 1.0  0.20205000(17000)  0.92841000(12000)  0.79795000(12000)  0.23667
 C7_17  C 1.0  0.07159000(17000)  0.79795000(12000)  0.79795000(12000)  0.23667
 C7_18  C 1.0  0.20205000(17000)  0.79795000(12000)  0.92841000(12000)  0.23667
 C7_19  C 1.0  0.92841000(17000)  0.79795000(12000)  0.79795000(12000)  0.23667
 C7_20  C 1.0  0.79795000(17000)  0.92841000(12000)  0.79795000(12000)  0.23667
 C7_21  C 1.0  0.79795000(17000)  0.79795000(12000)  0.92841000(12000)  0.23667
 C7_22  C 1.0  0.92841000(17000)  0.79795000(12000)  0.20205000(12000)  0.23667
 C7_23  C 1.0  0.79795000(17000)  0.92841000(12000)  0.20205000(12000)  0.23667
 C7_24  C 1.0  0.79795000(17000)  0.79795000(12000)  0.07159000(12000)  0.23667
 C7_25  C 1.0  0.07159000(17000)  0.70205000(12000)  0.70205000(12000)  0.23667
 C7_26  C 1.0  0.57159000(17000)  0.70205000(12000)  0.20205000(12000)  0.23667
 C7_27  C 1.0  0.57159000(17000)  0.20205000(12000)  0.70205000(12000)  0.23667
 C7_28  C 1.0  0.20205000(17000)  0.57159000(12000)  0.70205000(12000)  0.23667
 C7_29  C 1.0  0.70205000(17000)  0.57159000(12000)  0.20205000(12000)  0.23667
 C7_30  C 1.0  0.70205000(17000)  0.07159000(12000)  0.70205000(12000)  0.23667
 C7_31  C 1.0  0.20205000(17000)  0.70205000(12000)  0.57159000(12000)  0.23667
 C7_32  C 1.0  0.70205000(17000)  0.70205000(12000)  0.07159000(12000)  0.23667
 C7_33  C 1.0  0.70205000(17000)  0.20205000(12000)  0.57159000(12000)  0.23667
 C7_34  C 1.0  0.07159000(17000)  0.70205000(12000)  0.29795000(12000)  0.23667
 C7_35  C 1.0  0.57159000(17000)  0.70205000(12000)  0.79795000(12000)  0.23667
 C7_36  C 1.0  0.57159000(17000)  0.20205000(12000)  0.29795000(12000)  0.23667
 C7_37  C 1.0  0.20205000(17000)  0.57159000(12000)  0.29795000(12000)  0.23667
 C7_38  C 1.0  0.70205000(17000)  0.57159000(12000)  0.79795000(12000)  0.23667
 C7_39  C 1.0  0.70205000(17000)  0.07159000(12000)  0.29795000(12000)  0.23667
 C7_40  C 1.0  0.20205000(17000)  0.70205000(12000)  0.42841000(12000)  0.23667
 C7_41  C 1.0  0.70205000(17000)  0.70205000(12000)  0.92841000(12000)  0.23667
 C7_42  C 1.0  0.70205000(17000)  0.20205000(12000)  0.42841000(12000)  0.23667
 C7_43  C 1.0  0.92841000(17000)  0.70205000(12000)  0.70205000(12000)  0.23667
 C7_44  C 1.0  0.42841000(17000)  0.70205000(12000)  0.20205000(12000)  0.23667
 C7_45  C 1.0  0.42841000(17000)  0.20205000(12000)  0.70205000(12000)  0.23667
 C7_46  C 1.0  0.79795000(17000)  0.57159000(12000)  0.70205000(12000)  0.23667
 C7_47  C 1.0  0.29795000(17000)  0.57159000(12000)  0.20205000(12000)  0.23667
 C7_48  C 1.0  0.29795000(17000)  0.07159000(12000)  0.70205000(12000)  0.23667
 C7_49  C 1.0  0.79795000(17000)  0.70205000(12000)  0.57159000(12000)  0.23667
 C7_50  C 1.0  0.29795000(17000)  0.70205000(12000)  0.07159000(12000)  0.23667
 C7_51  C 1.0  0.29795000(17000)  0.20205000(12000)  0.57159000(12000)  0.23667
 C7_52  C 1.0  0.92841000(17000)  0.70205000(12000)  0.29795000(12000)  0.23667
 C7_53  C 1.0  0.42841000(17000)  0.70205000(12000)  0.79795000(12000)  0.23667
 C7_54  C 1.0  0.42841000(17000)  0.20205000(12000)  0.29795000(12000)  0.23667
 C7_55  C 1.0  0.79795000(17000)  0.57159000(12000)  0.29795000(12000)  0.23667
 C7_56  C 1.0  0.29795000(17000)  0.57159000(12000)  0.79795000(12000)  0.23667
 C7_57  C 1.0  0.29795000(17000)  0.07159000(12000)  0.29795000(12000)  0.23667
 C7_58  C 1.0  0.79795000(17000)  0.70205000(12000)  0.42841000(12000)  0.23667
 C7_59  C 1.0  0.29795000(17000)  0.70205000(12000)  0.92841000(12000)  0.23667
 C7_60  C 1.0  0.29795000(17000)  0.20205000(12000)  0.42841000(12000)  0.23667
 C7_61  C 1.0  0.20205000(17000)  0.42841000(12000)  0.70205000(12000)  0.23667
 C7_62  C 1.0  0.70205000(17000)  0.42841000(12000)  0.20205000(12000)  0.23667
 C7_63  C 1.0  0.70205000(17000)  0.92841000(12000)  0.70205000(12000)  0.23667
 C7_64  C 1.0  0.07159000(17000)  0.29795000(12000)  0.70205000(12000)  0.23667
 C7_65  C 1.0  0.57159000(17000)  0.29795000(12000)  0.20205000(12000)  0.23667
 C7_66  C 1.0  0.57159000(17000)  0.79795000(12000)  0.70205000(12000)  0.23667
 C7_67  C 1.0  0.20205000(17000)  0.29795000(12000)  0.57159000(12000)  0.23667
 C7_68  C 1.0  0.70205000(17000)  0.29795000(12000)  0.07159000(12000)  0.23667
 C7_69  C 1.0  0.70205000(17000)  0.79795000(12000)  0.57159000(12000)  0.23667
 C7_70  C 1.0  0.20205000(17000)  0.42841000(12000)  0.29795000(12000)  0.23667
 C7_71  C 1.0  0.70205000(17000)  0.42841000(12000)  0.79795000(12000)  0.23667
 C7_72  C 1.0  0.70205000(17000)  0.92841000(12000)  0.29795000(12000)  0.23667
 C7_73  C 1.0  0.07159000(17000)  0.29795000(12000)  0.29795000(12000)  0.23667
 C7_74  C 1.0  0.57159000(17000)  0.29795000(12000)  0.79795000(12000)  0.23667
 C7_75  C 1.0  0.57159000(17000)  0.79795000(12000)  0.29795000(12000)  0.23667
 C7_76  C 1.0  0.20205000(17000)  0.29795000(12000)  0.42841000(12000)  0.23667
 C7_77  C 1.0  0.70205000(17000)  0.29795000(12000)  0.92841000(12000)  0.23667
 C7_78  C 1.0  0.70205000(17000)  0.79795000(12000)  0.42841000(12000)  0.23667
 C7_79  C 1.0  0.92841000(17000)  0.29795000(12000)  0.29795000(12000)  0.23667
 C7_80  C 1.0  0.42841000(17000)  0.29795000(12000)  0.79795000(12000)  0.23667
 C7_81  C 1.0  0.42841000(17000)  0.79795000(12000)  0.29795000(12000)  0.23667
 C7_82  C 1.0  0.79795000(17000)  0.42841000(12000)  0.29795000(12000)  0.23667
 C7_83  C 1.0  0.29795000(17000)  0.42841000(12000)  0.79795000(12000)  0.23667
 C7_84  C 1.0  0.29795000(17000)  0.92841000(12000)  0.29795000(12000)  0.23667
 C7_85  C 1.0  0.79795000(17000)  0.29795000(12000)  0.42841000(12000)  0.23667
 C7_86  C 1.0  0.29795000(17000)  0.29795000(12000)  0.92841000(12000)  0.23667
 C7_87  C 1.0  0.29795000(17000)  0.79795000(12000)  0.42841000(12000)  0.23667
 C7_88  C 1.0  0.92841000(17000)  0.29795000(12000)  0.70205000(12000)  0.23667
 C7_89  C 1.0  0.42841000(17000)  0.29795000(12000)  0.20205000(12000)  0.23667
 C7_90  C 1.0  0.42841000(17000)  0.79795000(12000)  0.70205000(12000)  0.23667
 C7_91  C 1.0  0.79795000(17000)  0.42841000(12000)  0.70205000(12000)  0.23667
 C7_92  C 1.0  0.29795000(17000)  0.42841000(12000)  0.20205000(12000)  0.23667
 C7_93  C 1.0  0.29795000(17000)  0.92841000(12000)  0.70205000(12000)  0.23667
 C7_94  C 1.0  0.79795000(17000)  0.29795000(12000)  0.57159000(12000)  0.23667
 C7_95  C 1.0  0.29795000(17000)  0.29795000(12000)  0.07159000(12000)  0.23667
 C7_96  C 1.0  0.29795000(17000)  0.79795000(12000)  0.57159000(12000)  0.23667
 C8_2  C 1.0  0.19384000(16000)  0.06450000(12000)  0.21978000(13000)  0.33633
 C8_3  C 1.0  0.21978000(16000)  0.19384000(12000)  0.06450000(13000)  0.33633
 C8_4  C 1.0  0.06450000(16000)  0.21978000(12000)  0.80616000(13000)  0.33633
 C8_5  C 1.0  0.19384000(16000)  0.06450000(12000)  0.78022000(13000)  0.33633
 C8_6  C 1.0  0.21978000(16000)  0.19384000(12000)  0.93550000(13000)  0.33633
 C8_7  C 1.0  0.93550000(16000)  0.21978000(12000)  0.19384000(13000)  0.33633
 C8_8  C 1.0  0.80616000(16000)  0.06450000(12000)  0.21978000(13000)  0.33633
 C8_9  C 1.0  0.78022000(16000)  0.19384000(12000)  0.06450000(13000)  0.33633
 C8_10  C 1.0  0.93550000(16000)  0.21978000(12000)  0.80616000(13000)  0.33633
 C8_11  C 1.0  0.80616000(16000)  0.06450000(12000)  0.78022000(13000)  0.33633
 C8_12  C 1.0  0.78022000(16000)  0.19384000(12000)  0.93550000(13000)  0.33633
 C8_13  C 1.0  0.21978000(16000)  0.06450000(12000)  0.19384000(13000)  0.33633
 C8_14  C 1.0  0.06450000(16000)  0.19384000(12000)  0.21978000(13000)  0.33633
 C8_15  C 1.0  0.19384000(16000)  0.21978000(12000)  0.06450000(13000)  0.33633
 C8_16  C 1.0  0.21978000(16000)  0.06450000(12000)  0.80616000(13000)  0.33633
 C8_17  C 1.0  0.06450000(16000)  0.19384000(12000)  0.78022000(13000)  0.33633
 C8_18  C 1.0  0.19384000(16000)  0.21978000(12000)  0.93550000(13000)  0.33633
 C8_19  C 1.0  0.21978000(16000)  0.93550000(12000)  0.19384000(13000)  0.33633
 C8_20  C 1.0  0.06450000(16000)  0.80616000(12000)  0.21978000(13000)  0.33633
 C8_21  C 1.0  0.19384000(16000)  0.78022000(12000)  0.06450000(13000)  0.33633
 C8_22  C 1.0  0.21978000(16000)  0.93550000(12000)  0.80616000(13000)  0.33633
 C8_23  C 1.0  0.06450000(16000)  0.80616000(12000)  0.78022000(13000)  0.33633
 C8_24  C 1.0  0.19384000(16000)  0.78022000(12000)  0.93550000(13000)  0.33633
 C8_25  C 1.0  0.93550000(16000)  0.78022000(12000)  0.80616000(13000)  0.33633
 C8_26  C 1.0  0.80616000(16000)  0.93550000(12000)  0.78022000(13000)  0.33633
 C8_27  C 1.0  0.78022000(16000)  0.80616000(12000)  0.93550000(13000)  0.33633
 C8_28  C 1.0  0.93550000(16000)  0.78022000(12000)  0.19384000(13000)  0.33633
 C8_29  C 1.0  0.80616000(16000)  0.93550000(12000)  0.21978000(13000)  0.33633
 C8_30  C 1.0  0.78022000(16000)  0.80616000(12000)  0.06450000(13000)  0.33633
 C8_31  C 1.0  0.06450000(16000)  0.78022000(12000)  0.80616000(13000)  0.33633
 C8_32  C 1.0  0.19384000(16000)  0.93550000(12000)  0.78022000(13000)  0.33633
 C8_33  C 1.0  0.21978000(16000)  0.80616000(12000)  0.93550000(13000)  0.33633
 C8_34  C 1.0  0.06450000(16000)  0.78022000(12000)  0.19384000(13000)  0.33633
 C8_35  C 1.0  0.19384000(16000)  0.93550000(12000)  0.21978000(13000)  0.33633
 C8_36  C 1.0  0.21978000(16000)  0.80616000(12000)  0.06450000(13000)  0.33633
 C8_37  C 1.0  0.78022000(16000)  0.93550000(12000)  0.80616000(13000)  0.33633
 C8_38  C 1.0  0.93550000(16000)  0.80616000(12000)  0.78022000(13000)  0.33633
 C8_39  C 1.0  0.80616000(16000)  0.78022000(12000)  0.93550000(13000)  0.33633
 C8_40  C 1.0  0.78022000(16000)  0.93550000(12000)  0.19384000(13000)  0.33633
 C8_41  C 1.0  0.93550000(16000)  0.80616000(12000)  0.21978000(13000)  0.33633
 C8_42  C 1.0  0.80616000(16000)  0.78022000(12000)  0.06450000(13000)  0.33633
 C8_43  C 1.0  0.78022000(16000)  0.06450000(12000)  0.80616000(13000)  0.33633
 C8_44  C 1.0  0.93550000(16000)  0.19384000(12000)  0.78022000(13000)  0.33633
 C8_45  C 1.0  0.80616000(16000)  0.21978000(12000)  0.93550000(13000)  0.33633
 C8_46  C 1.0  0.78022000(16000)  0.06450000(12000)  0.19384000(13000)  0.33633
 C8_47  C 1.0  0.93550000(16000)  0.19384000(12000)  0.21978000(13000)  0.33633
 C8_48  C 1.0  0.80616000(16000)  0.21978000(12000)  0.06450000(13000)  0.33633
 C8_49  C 1.0  0.06450000(16000)  0.71978000(12000)  0.69384000(13000)  0.33633
 C8_50  C 1.0  0.56450000(16000)  0.71978000(12000)  0.19384000(13000)  0.33633
 C8_51  C 1.0  0.56450000(16000)  0.21978000(12000)  0.69384000(13000)  0.33633
 C8_52  C 1.0  0.19384000(16000)  0.56450000(12000)  0.71978000(13000)  0.33633
 C8_53  C 1.0  0.69384000(16000)  0.56450000(12000)  0.21978000(13000)  0.33633
 C8_54  C 1.0  0.69384000(16000)  0.06450000(12000)  0.71978000(13000)  0.33633
 C8_55  C 1.0  0.21978000(16000)  0.69384000(12000)  0.56450000(13000)  0.33633
 C8_56  C 1.0  0.71978000(16000)  0.69384000(12000)  0.06450000(13000)  0.33633
 C8_57  C 1.0  0.71978000(16000)  0.19384000(12000)  0.56450000(13000)  0.33633
 C8_58  C 1.0  0.06450000(16000)  0.71978000(12000)  0.30616000(13000)  0.33633
 C8_59  C 1.0  0.56450000(16000)  0.71978000(12000)  0.80616000(13000)  0.33633
 C8_60  C 1.0  0.56450000(16000)  0.21978000(12000)  0.30616000(13000)  0.33633
 C8_61  C 1.0  0.19384000(16000)  0.56450000(12000)  0.28022000(13000)  0.33633
 C8_62  C 1.0  0.69384000(16000)  0.56450000(12000)  0.78022000(13000)  0.33633
 C8_63  C 1.0  0.69384000(16000)  0.06450000(12000)  0.28022000(13000)  0.33633
 C8_64  C 1.0  0.21978000(16000)  0.69384000(12000)  0.43550000(13000)  0.33633
 C8_65  C 1.0  0.71978000(16000)  0.69384000(12000)  0.93550000(13000)  0.33633
 C8_66  C 1.0  0.71978000(16000)  0.19384000(12000)  0.43550000(13000)  0.33633
 C8_67  C 1.0  0.93550000(16000)  0.71978000(12000)  0.69384000(13000)  0.33633
 C8_68  C 1.0  0.43550000(16000)  0.71978000(12000)  0.19384000(13000)  0.33633
 C8_69  C 1.0  0.43550000(16000)  0.21978000(12000)  0.69384000(13000)  0.33633
 C8_70  C 1.0  0.80616000(16000)  0.56450000(12000)  0.71978000(13000)  0.33633
 C8_71  C 1.0  0.30616000(16000)  0.56450000(12000)  0.21978000(13000)  0.33633
 C8_72  C 1.0  0.30616000(16000)  0.06450000(12000)  0.71978000(13000)  0.33633
 C8_73  C 1.0  0.78022000(16000)  0.69384000(12000)  0.56450000(13000)  0.33633
 C8_74  C 1.0  0.28022000(16000)  0.69384000(12000)  0.06450000(13000)  0.33633
 C8_75  C 1.0  0.28022000(16000)  0.19384000(12000)  0.56450000(13000)  0.33633
 C8_76  C 1.0  0.93550000(16000)  0.71978000(12000)  0.30616000(13000)  0.33633
 C8_77  C 1.0  0.43550000(16000)  0.71978000(12000)  0.80616000(13000)  0.33633
 C8_78  C 1.0  0.43550000(16000)  0.21978000(12000)  0.30616000(13000)  0.33633
 C8_79  C 1.0  0.80616000(16000)  0.56450000(12000)  0.28022000(13000)  0.33633
 C8_80  C 1.0  0.30616000(16000)  0.56450000(12000)  0.78022000(13000)  0.33633
 C8_81  C 1.0  0.30616000(16000)  0.06450000(12000)  0.28022000(13000)  0.33633
 C8_82  C 1.0  0.78022000(16000)  0.69384000(12000)  0.43550000(13000)  0.33633
 C8_83  C 1.0  0.28022000(16000)  0.69384000(12000)  0.93550000(13000)  0.33633
 C8_84  C 1.0  0.28022000(16000)  0.19384000(12000)  0.43550000(13000)  0.33633
 C8_85  C 1.0  0.21978000(16000)  0.56450000(12000)  0.69384000(13000)  0.33633
 C8_86  C 1.0  0.71978000(16000)  0.56450000(12000)  0.19384000(13000)  0.33633
 C8_87  C 1.0  0.71978000(16000)  0.06450000(12000)  0.69384000(13000)  0.33633
 C8_88  C 1.0  0.06450000(16000)  0.69384000(12000)  0.71978000(13000)  0.33633
 C8_89  C 1.0  0.56450000(16000)  0.69384000(12000)  0.21978000(13000)  0.33633
 C8_90  C 1.0  0.56450000(16000)  0.19384000(12000)  0.71978000(13000)  0.33633
 C8_91  C 1.0  0.19384000(16000)  0.71978000(12000)  0.56450000(13000)  0.33633
 C8_92  C 1.0  0.69384000(16000)  0.71978000(12000)  0.06450000(13000)  0.33633
 C8_93  C 1.0  0.69384000(16000)  0.21978000(12000)  0.56450000(13000)  0.33633
 C8_94  C 1.0  0.21978000(16000)  0.56450000(12000)  0.30616000(13000)  0.33633
 C8_95  C 1.0  0.71978000(16000)  0.56450000(12000)  0.80616000(13000)  0.33633
 C8_96  C 1.0  0.71978000(16000)  0.06450000(12000)  0.30616000(13000)  0.33633
 C8_97  C 1.0  0.06450000(16000)  0.69384000(12000)  0.28022000(13000)  0.33633
 C8_98  C 1.0  0.56450000(16000)  0.69384000(12000)  0.78022000(13000)  0.33633
 C8_99  C 1.0  0.56450000(16000)  0.19384000(12000)  0.28022000(13000)  0.33633
 C8_100  C 1.0  0.19384000(16000)  0.71978000(12000)  0.43550000(13000)  0.33633
 C8_101  C 1.0  0.69384000(16000)  0.71978000(12000)  0.93550000(13000)  0.33633
 C8_102  C 1.0  0.69384000(16000)  0.21978000(12000)  0.43550000(13000)  0.33633
 C8_103  C 1.0  0.21978000(16000)  0.43550000(12000)  0.69384000(13000)  0.33633
 C8_104  C 1.0  0.71978000(16000)  0.43550000(12000)  0.19384000(13000)  0.33633
 C8_105  C 1.0  0.71978000(16000)  0.93550000(12000)  0.69384000(13000)  0.33633
 C8_106  C 1.0  0.06450000(16000)  0.30616000(12000)  0.71978000(13000)  0.33633
 C8_107  C 1.0  0.56450000(16000)  0.30616000(12000)  0.21978000(13000)  0.33633
 C8_108  C 1.0  0.56450000(16000)  0.80616000(12000)  0.71978000(13000)  0.33633
 C8_109  C 1.0  0.19384000(16000)  0.28022000(12000)  0.56450000(13000)  0.33633
 C8_110  C 1.0  0.69384000(16000)  0.28022000(12000)  0.06450000(13000)  0.33633
 C8_111  C 1.0  0.69384000(16000)  0.78022000(12000)  0.56450000(13000)  0.33633
 C8_112  C 1.0  0.21978000(16000)  0.43550000(12000)  0.30616000(13000)  0.33633
 C8_113  C 1.0  0.71978000(16000)  0.43550000(12000)  0.80616000(13000)  0.33633
 C8_114  C 1.0  0.71978000(16000)  0.93550000(12000)  0.30616000(13000)  0.33633
 C8_115  C 1.0  0.06450000(16000)  0.30616000(12000)  0.28022000(13000)  0.33633
 C8_116  C 1.0  0.56450000(16000)  0.30616000(12000)  0.78022000(13000)  0.33633
 C8_117  C 1.0  0.56450000(16000)  0.80616000(12000)  0.28022000(13000)  0.33633
 C8_118  C 1.0  0.19384000(16000)  0.28022000(12000)  0.43550000(13000)  0.33633
 C8_119  C 1.0  0.69384000(16000)  0.28022000(12000)  0.93550000(13000)  0.33633
 C8_120  C 1.0  0.69384000(16000)  0.78022000(12000)  0.43550000(13000)  0.33633
 C8_121  C 1.0  0.93550000(16000)  0.28022000(12000)  0.30616000(13000)  0.33633
 C8_122  C 1.0  0.43550000(16000)  0.28022000(12000)  0.80616000(13000)  0.33633
 C8_123  C 1.0  0.43550000(16000)  0.78022000(12000)  0.30616000(13000)  0.33633
 C8_124  C 1.0  0.80616000(16000)  0.43550000(12000)  0.28022000(13000)  0.33633
 C8_125  C 1.0  0.30616000(16000)  0.43550000(12000)  0.78022000(13000)  0.33633
 C8_126  C 1.0  0.30616000(16000)  0.93550000(12000)  0.28022000(13000)  0.33633
 C8_127  C 1.0  0.78022000(16000)  0.30616000(12000)  0.43550000(13000)  0.33633
 C8_128  C 1.0  0.28022000(16000)  0.30616000(12000)  0.93550000(13000)  0.33633
 C8_129  C 1.0  0.28022000(16000)  0.80616000(12000)  0.43550000(13000)  0.33633
 C8_130  C 1.0  0.93550000(16000)  0.28022000(12000)  0.69384000(13000)  0.33633
 C8_131  C 1.0  0.43550000(16000)  0.28022000(12000)  0.19384000(13000)  0.33633
 C8_132  C 1.0  0.43550000(16000)  0.78022000(12000)  0.69384000(13000)  0.33633
 C8_133  C 1.0  0.80616000(16000)  0.43550000(12000)  0.71978000(13000)  0.33633
 C8_134  C 1.0  0.30616000(16000)  0.43550000(12000)  0.21978000(13000)  0.33633
 C8_135  C 1.0  0.30616000(16000)  0.93550000(12000)  0.71978000(13000)  0.33633
 C8_136  C 1.0  0.78022000(16000)  0.30616000(12000)  0.56450000(13000)  0.33633
 C8_137  C 1.0  0.28022000(16000)  0.30616000(12000)  0.06450000(13000)  0.33633
 C8_138  C 1.0  0.28022000(16000)  0.80616000(12000)  0.56450000(13000)  0.33633
 C8_139  C 1.0  0.06450000(16000)  0.28022000(12000)  0.30616000(13000)  0.33633
 C8_140  C 1.0  0.56450000(16000)  0.28022000(12000)  0.80616000(13000)  0.33633
 C8_141  C 1.0  0.56450000(16000)  0.78022000(12000)  0.30616000(13000)  0.33633
 C8_142  C 1.0  0.19384000(16000)  0.43550000(12000)  0.28022000(13000)  0.33633
 C8_143  C 1.0  0.69384000(16000)  0.43550000(12000)  0.78022000(13000)  0.33633
 C8_144  C 1.0  0.69384000(16000)  0.93550000(12000)  0.28022000(13000)  0.33633
 C8_145  C 1.0  0.21978000(16000)  0.30616000(12000)  0.43550000(13000)  0.33633
 C8_146  C 1.0  0.71978000(16000)  0.30616000(12000)  0.93550000(13000)  0.33633
 C8_147  C 1.0  0.71978000(16000)  0.80616000(12000)  0.43550000(13000)  0.33633
 C8_148  C 1.0  0.06450000(16000)  0.28022000(12000)  0.69384000(13000)  0.33633
 C8_149  C 1.0  0.56450000(16000)  0.28022000(12000)  0.19384000(13000)  0.33633
 C8_150  C 1.0  0.56450000(16000)  0.78022000(12000)  0.69384000(13000)  0.33633
 C8_151  C 1.0  0.19384000(16000)  0.43550000(12000)  0.71978000(13000)  0.33633
 C8_152  C 1.0  0.69384000(16000)  0.43550000(12000)  0.21978000(13000)  0.33633
 C8_153  C 1.0  0.69384000(16000)  0.93550000(12000)  0.71978000(13000)  0.33633
 C8_154  C 1.0  0.21978000(16000)  0.30616000(12000)  0.56450000(13000)  0.33633
 C8_155  C 1.0  0.71978000(16000)  0.30616000(12000)  0.06450000(13000)  0.33633
 C8_156  C 1.0  0.71978000(16000)  0.80616000(12000)  0.56450000(13000)  0.33633
 C8_157  C 1.0  0.78022000(16000)  0.43550000(12000)  0.30616000(13000)  0.33633
 C8_158  C 1.0  0.28022000(16000)  0.43550000(12000)  0.80616000(13000)  0.33633
 C8_159  C 1.0  0.28022000(16000)  0.93550000(12000)  0.30616000(13000)  0.33633
 C8_160  C 1.0  0.93550000(16000)  0.30616000(12000)  0.28022000(13000)  0.33633
 C8_161  C 1.0  0.43550000(16000)  0.30616000(12000)  0.78022000(13000)  0.33633
 C8_162  C 1.0  0.43550000(16000)  0.80616000(12000)  0.28022000(13000)  0.33633
 C8_163  C 1.0  0.80616000(16000)  0.28022000(12000)  0.43550000(13000)  0.33633
 C8_164  C 1.0  0.30616000(16000)  0.28022000(12000)  0.93550000(13000)  0.33633
 C8_165  C 1.0  0.30616000(16000)  0.78022000(12000)  0.43550000(13000)  0.33633
 C8_166  C 1.0  0.78022000(16000)  0.43550000(12000)  0.69384000(13000)  0.33633
 C8_167  C 1.0  0.28022000(16000)  0.43550000(12000)  0.19384000(13000)  0.33633
 C8_168  C 1.0  0.28022000(16000)  0.93550000(12000)  0.69384000(13000)  0.33633
 C8_169  C 1.0  0.93550000(16000)  0.30616000(12000)  0.71978000(13000)  0.33633
 C8_170  C 1.0  0.43550000(16000)  0.30616000(12000)  0.21978000(13000)  0.33633
 C8_171  C 1.0  0.43550000(16000)  0.80616000(12000)  0.71978000(13000)  0.33633
 C8_172  C 1.0  0.80616000(16000)  0.28022000(12000)  0.56450000(13000)  0.33633
 C8_173  C 1.0  0.30616000(16000)  0.28022000(12000)  0.06450000(13000)  0.33633
 C8_174  C 1.0  0.30616000(16000)  0.78022000(12000)  0.56450000(13000)  0.33633
 C8_175  C 1.0  0.78022000(16000)  0.56450000(12000)  0.30616000(13000)  0.33633
 C8_176  C 1.0  0.28022000(16000)  0.56450000(12000)  0.80616000(13000)  0.33633
 C8_177  C 1.0  0.28022000(16000)  0.06450000(12000)  0.30616000(13000)  0.33633
 C8_178  C 1.0  0.93550000(16000)  0.69384000(12000)  0.28022000(13000)  0.33633
 C8_179  C 1.0  0.43550000(16000)  0.69384000(12000)  0.78022000(13000)  0.33633
 C8_180  C 1.0  0.43550000(16000)  0.19384000(12000)  0.28022000(13000)  0.33633
 C8_181  C 1.0  0.80616000(16000)  0.71978000(12000)  0.43550000(13000)  0.33633
 C8_182  C 1.0  0.30616000(16000)  0.71978000(12000)  0.93550000(13000)  0.33633
 C8_183  C 1.0  0.30616000(16000)  0.21978000(12000)  0.43550000(13000)  0.33633
 C8_184  C 1.0  0.78022000(16000)  0.56450000(12000)  0.69384000(13000)  0.33633
 C8_185  C 1.0  0.28022000(16000)  0.56450000(12000)  0.19384000(13000)  0.33633
 C8_186  C 1.0  0.28022000(16000)  0.06450000(12000)  0.69384000(13000)  0.33633
 C8_187  C 1.0  0.93550000(16000)  0.69384000(12000)  0.71978000(13000)  0.33633
 C8_188  C 1.0  0.43550000(16000)  0.69384000(12000)  0.21978000(13000)  0.33633
 C8_189  C 1.0  0.43550000(16000)  0.19384000(12000)  0.71978000(13000)  0.33633
 C8_190  C 1.0  0.80616000(16000)  0.71978000(12000)  0.56450000(13000)  0.33633
 C8_191  C 1.0  0.30616000(16000)  0.71978000(12000)  0.06450000(13000)  0.33633
 C8_192  C 1.0  0.30616000(16000)  0.21978000(12000)  0.56450000(13000)  0.33633
 C9_2  C 1.0  0.20379000(16000)  0.04903000(15000)  0.22973000(14000)  0.37167
 C9_3  C 1.0  0.22973000(16000)  0.20379000(15000)  0.04903000(14000)  0.37167
 C9_4  C 1.0  0.04903000(16000)  0.22973000(15000)  0.79621000(14000)  0.37167
 C9_5  C 1.0  0.20379000(16000)  0.04903000(15000)  0.77027000(14000)  0.37167
 C9_6  C 1.0  0.22973000(16000)  0.20379000(15000)  0.95097000(14000)  0.37167
 C9_7  C 1.0  0.95097000(16000)  0.22973000(15000)  0.20379000(14000)  0.37167
 C9_8  C 1.0  0.79621000(16000)  0.04903000(15000)  0.22973000(14000)  0.37167
 C9_9  C 1.0  0.77027000(16000)  0.20379000(15000)  0.04903000(14000)  0.37167
 C9_10  C 1.0  0.95097000(16000)  0.22973000(15000)  0.79621000(14000)  0.37167
 C9_11  C 1.0  0.79621000(16000)  0.04903000(15000)  0.77027000(14000)  0.37167
 C9_12  C 1.0  0.77027000(16000)  0.20379000(15000)  0.95097000(14000)  0.37167
 C9_13  C 1.0  0.22973000(16000)  0.04903000(15000)  0.20379000(14000)  0.37167
 C9_14  C 1.0  0.04903000(16000)  0.20379000(15000)  0.22973000(14000)  0.37167
 C9_15  C 1.0  0.20379000(16000)  0.22973000(15000)  0.04903000(14000)  0.37167
 C9_16  C 1.0  0.22973000(16000)  0.04903000(15000)  0.79621000(14000)  0.37167
 C9_17  C 1.0  0.04903000(16000)  0.20379000(15000)  0.77027000(14000)  0.37167
 C9_18  C 1.0  0.20379000(16000)  0.22973000(15000)  0.95097000(14000)  0.37167
 C9_19  C 1.0  0.22973000(16000)  0.95097000(15000)  0.20379000(14000)  0.37167
 C9_20  C 1.0  0.04903000(16000)  0.79621000(15000)  0.22973000(14000)  0.37167
 C9_21  C 1.0  0.20379000(16000)  0.77027000(15000)  0.04903000(14000)  0.37167
 C9_22  C 1.0  0.22973000(16000)  0.95097000(15000)  0.79621000(14000)  0.37167
 C9_23  C 1.0  0.04903000(16000)  0.79621000(15000)  0.77027000(14000)  0.37167
 C9_24  C 1.0  0.20379000(16000)  0.77027000(15000)  0.95097000(14000)  0.37167
 C9_25  C 1.0  0.95097000(16000)  0.77027000(15000)  0.79621000(14000)  0.37167
 C9_26  C 1.0  0.79621000(16000)  0.95097000(15000)  0.77027000(14000)  0.37167
 C9_27  C 1.0  0.77027000(16000)  0.79621000(15000)  0.95097000(14000)  0.37167
 C9_28  C 1.0  0.95097000(16000)  0.77027000(15000)  0.20379000(14000)  0.37167
 C9_29  C 1.0  0.79621000(16000)  0.95097000(15000)  0.22973000(14000)  0.37167
 C9_30  C 1.0  0.77027000(16000)  0.79621000(15000)  0.04903000(14000)  0.37167
 C9_31  C 1.0  0.04903000(16000)  0.77027000(15000)  0.79621000(14000)  0.37167
 C9_32  C 1.0  0.20379000(16000)  0.95097000(15000)  0.77027000(14000)  0.37167
 C9_33  C 1.0  0.22973000(16000)  0.79621000(15000)  0.95097000(14000)  0.37167
 C9_34  C 1.0  0.04903000(16000)  0.77027000(15000)  0.20379000(14000)  0.37167
 C9_35  C 1.0  0.20379000(16000)  0.95097000(15000)  0.22973000(14000)  0.37167
 C9_36  C 1.0  0.22973000(16000)  0.79621000(15000)  0.04903000(14000)  0.37167
 C9_37  C 1.0  0.77027000(16000)  0.95097000(15000)  0.79621000(14000)  0.37167
 C9_38  C 1.0  0.95097000(16000)  0.79621000(15000)  0.77027000(14000)  0.37167
 C9_39  C 1.0  0.79621000(16000)  0.77027000(15000)  0.95097000(14000)  0.37167
 C9_40  C 1.0  0.77027000(16000)  0.95097000(15000)  0.20379000(14000)  0.37167
 C9_41  C 1.0  0.95097000(16000)  0.79621000(15000)  0.22973000(14000)  0.37167
 C9_42  C 1.0  0.79621000(16000)  0.77027000(15000)  0.04903000(14000)  0.37167
 C9_43  C 1.0  0.77027000(16000)  0.04903000(15000)  0.79621000(14000)  0.37167
 C9_44  C 1.0  0.95097000(16000)  0.20379000(15000)  0.77027000(14000)  0.37167
 C9_45  C 1.0  0.79621000(16000)  0.22973000(15000)  0.95097000(14000)  0.37167
 C9_46  C 1.0  0.77027000(16000)  0.04903000(15000)  0.20379000(14000)  0.37167
 C9_47  C 1.0  0.95097000(16000)  0.20379000(15000)  0.22973000(14000)  0.37167
 C9_48  C 1.0  0.79621000(16000)  0.22973000(15000)  0.04903000(14000)  0.37167
 C9_49  C 1.0  0.04903000(16000)  0.72973000(15000)  0.70379000(14000)  0.37167
 C9_50  C 1.0  0.54903000(16000)  0.72973000(15000)  0.20379000(14000)  0.37167
 C9_51  C 1.0  0.54903000(16000)  0.22973000(15000)  0.70379000(14000)  0.37167
 C9_52  C 1.0  0.20379000(16000)  0.54903000(15000)  0.72973000(14000)  0.37167
 C9_53  C 1.0  0.70379000(16000)  0.54903000(15000)  0.22973000(14000)  0.37167
 C9_54  C 1.0  0.70379000(16000)  0.04903000(15000)  0.72973000(14000)  0.37167
 C9_55  C 1.0  0.22973000(16000)  0.70379000(15000)  0.54903000(14000)  0.37167
 C9_56  C 1.0  0.72973000(16000)  0.70379000(15000)  0.04903000(14000)  0.37167
 C9_57  C 1.0  0.72973000(16000)  0.20379000(15000)  0.54903000(14000)  0.37167
 C9_58  C 1.0  0.04903000(16000)  0.72973000(15000)  0.29621000(14000)  0.37167
 C9_59  C 1.0  0.54903000(16000)  0.72973000(15000)  0.79621000(14000)  0.37167
 C9_60  C 1.0  0.54903000(16000)  0.22973000(15000)  0.29621000(14000)  0.37167
 C9_61  C 1.0  0.20379000(16000)  0.54903000(15000)  0.27027000(14000)  0.37167
 C9_62  C 1.0  0.70379000(16000)  0.54903000(15000)  0.77027000(14000)  0.37167
 C9_63  C 1.0  0.70379000(16000)  0.04903000(15000)  0.27027000(14000)  0.37167
 C9_64  C 1.0  0.22973000(16000)  0.70379000(15000)  0.45097000(14000)  0.37167
 C9_65  C 1.0  0.72973000(16000)  0.70379000(15000)  0.95097000(14000)  0.37167
 C9_66  C 1.0  0.72973000(16000)  0.20379000(15000)  0.45097000(14000)  0.37167
 C9_67  C 1.0  0.95097000(16000)  0.72973000(15000)  0.70379000(14000)  0.37167
 C9_68  C 1.0  0.45097000(16000)  0.72973000(15000)  0.20379000(14000)  0.37167
 C9_69  C 1.0  0.45097000(16000)  0.22973000(15000)  0.70379000(14000)  0.37167
 C9_70  C 1.0  0.79621000(16000)  0.54903000(15000)  0.72973000(14000)  0.37167
 C9_71  C 1.0  0.29621000(16000)  0.54903000(15000)  0.22973000(14000)  0.37167
 C9_72  C 1.0  0.29621000(16000)  0.04903000(15000)  0.72973000(14000)  0.37167
 C9_73  C 1.0  0.77027000(16000)  0.70379000(15000)  0.54903000(14000)  0.37167
 C9_74  C 1.0  0.27027000(16000)  0.70379000(15000)  0.04903000(14000)  0.37167
 C9_75  C 1.0  0.27027000(16000)  0.20379000(15000)  0.54903000(14000)  0.37167
 C9_76  C 1.0  0.95097000(16000)  0.72973000(15000)  0.29621000(14000)  0.37167
 C9_77  C 1.0  0.45097000(16000)  0.72973000(15000)  0.79621000(14000)  0.37167
 C9_78  C 1.0  0.45097000(16000)  0.22973000(15000)  0.29621000(14000)  0.37167
 C9_79  C 1.0  0.79621000(16000)  0.54903000(15000)  0.27027000(14000)  0.37167
 C9_80  C 1.0  0.29621000(16000)  0.54903000(15000)  0.77027000(14000)  0.37167
 C9_81  C 1.0  0.29621000(16000)  0.04903000(15000)  0.27027000(14000)  0.37167
 C9_82  C 1.0  0.77027000(16000)  0.70379000(15000)  0.45097000(14000)  0.37167
 C9_83  C 1.0  0.27027000(16000)  0.70379000(15000)  0.95097000(14000)  0.37167
 C9_84  C 1.0  0.27027000(16000)  0.20379000(15000)  0.45097000(14000)  0.37167
 C9_85  C 1.0  0.22973000(16000)  0.54903000(15000)  0.70379000(14000)  0.37167
 C9_86  C 1.0  0.72973000(16000)  0.54903000(15000)  0.20379000(14000)  0.37167
 C9_87  C 1.0  0.72973000(16000)  0.04903000(15000)  0.70379000(14000)  0.37167
 C9_88  C 1.0  0.04903000(16000)  0.70379000(15000)  0.72973000(14000)  0.37167
 C9_89  C 1.0  0.54903000(16000)  0.70379000(15000)  0.22973000(14000)  0.37167
 C9_90  C 1.0  0.54903000(16000)  0.20379000(15000)  0.72973000(14000)  0.37167
 C9_91  C 1.0  0.20379000(16000)  0.72973000(15000)  0.54903000(14000)  0.37167
 C9_92  C 1.0  0.70379000(16000)  0.72973000(15000)  0.04903000(14000)  0.37167
 C9_93  C 1.0  0.70379000(16000)  0.22973000(15000)  0.54903000(14000)  0.37167
 C9_94  C 1.0  0.22973000(16000)  0.54903000(15000)  0.29621000(14000)  0.37167
 C9_95  C 1.0  0.72973000(16000)  0.54903000(15000)  0.79621000(14000)  0.37167
 C9_96  C 1.0  0.72973000(16000)  0.04903000(15000)  0.29621000(14000)  0.37167
 C9_97  C 1.0  0.04903000(16000)  0.70379000(15000)  0.27027000(14000)  0.37167
 C9_98  C 1.0  0.54903000(16000)  0.70379000(15000)  0.77027000(14000)  0.37167
 C9_99  C 1.0  0.54903000(16000)  0.20379000(15000)  0.27027000(14000)  0.37167
 C9_100  C 1.0  0.20379000(16000)  0.72973000(15000)  0.45097000(14000)  0.37167
 C9_101  C 1.0  0.70379000(16000)  0.72973000(15000)  0.95097000(14000)  0.37167
 C9_102  C 1.0  0.70379000(16000)  0.22973000(15000)  0.45097000(14000)  0.37167
 C9_103  C 1.0  0.22973000(16000)  0.45097000(15000)  0.70379000(14000)  0.37167
 C9_104  C 1.0  0.72973000(16000)  0.45097000(15000)  0.20379000(14000)  0.37167
 C9_105  C 1.0  0.72973000(16000)  0.95097000(15000)  0.70379000(14000)  0.37167
 C9_106  C 1.0  0.04903000(16000)  0.29621000(15000)  0.72973000(14000)  0.37167
 C9_107  C 1.0  0.54903000(16000)  0.29621000(15000)  0.22973000(14000)  0.37167
 C9_108  C 1.0  0.54903000(16000)  0.79621000(15000)  0.72973000(14000)  0.37167
 C9_109  C 1.0  0.20379000(16000)  0.27027000(15000)  0.54903000(14000)  0.37167
 C9_110  C 1.0  0.70379000(16000)  0.27027000(15000)  0.04903000(14000)  0.37167
 C9_111  C 1.0  0.70379000(16000)  0.77027000(15000)  0.54903000(14000)  0.37167
 C9_112  C 1.0  0.22973000(16000)  0.45097000(15000)  0.29621000(14000)  0.37167
 C9_113  C 1.0  0.72973000(16000)  0.45097000(15000)  0.79621000(14000)  0.37167
 C9_114  C 1.0  0.72973000(16000)  0.95097000(15000)  0.29621000(14000)  0.37167
 C9_115  C 1.0  0.04903000(16000)  0.29621000(15000)  0.27027000(14000)  0.37167
 C9_116  C 1.0  0.54903000(16000)  0.29621000(15000)  0.77027000(14000)  0.37167
 C9_117  C 1.0  0.54903000(16000)  0.79621000(15000)  0.27027000(14000)  0.37167
 C9_118  C 1.0  0.20379000(16000)  0.27027000(15000)  0.45097000(14000)  0.37167
 C9_119  C 1.0  0.70379000(16000)  0.27027000(15000)  0.95097000(14000)  0.37167
 C9_120  C 1.0  0.70379000(16000)  0.77027000(15000)  0.45097000(14000)  0.37167
 C9_121  C 1.0  0.95097000(16000)  0.27027000(15000)  0.29621000(14000)  0.37167
 C9_122  C 1.0  0.45097000(16000)  0.27027000(15000)  0.79621000(14000)  0.37167
 C9_123  C 1.0  0.45097000(16000)  0.77027000(15000)  0.29621000(14000)  0.37167
 C9_124  C 1.0  0.79621000(16000)  0.45097000(15000)  0.27027000(14000)  0.37167
 C9_125  C 1.0  0.29621000(16000)  0.45097000(15000)  0.77027000(14000)  0.37167
 C9_126  C 1.0  0.29621000(16000)  0.95097000(15000)  0.27027000(14000)  0.37167
 C9_127  C 1.0  0.77027000(16000)  0.29621000(15000)  0.45097000(14000)  0.37167
 C9_128  C 1.0  0.27027000(16000)  0.29621000(15000)  0.95097000(14000)  0.37167
 C9_129  C 1.0  0.27027000(16000)  0.79621000(15000)  0.45097000(14000)  0.37167
 C9_130  C 1.0  0.95097000(16000)  0.27027000(15000)  0.70379000(14000)  0.37167
 C9_131  C 1.0  0.45097000(16000)  0.27027000(15000)  0.20379000(14000)  0.37167
 C9_132  C 1.0  0.45097000(16000)  0.77027000(15000)  0.70379000(14000)  0.37167
 C9_133  C 1.0  0.79621000(16000)  0.45097000(15000)  0.72973000(14000)  0.37167
 C9_134  C 1.0  0.29621000(16000)  0.45097000(15000)  0.22973000(14000)  0.37167
 C9_135  C 1.0  0.29621000(16000)  0.95097000(15000)  0.72973000(14000)  0.37167
 C9_136  C 1.0  0.77027000(16000)  0.29621000(15000)  0.54903000(14000)  0.37167
 C9_137  C 1.0  0.27027000(16000)  0.29621000(15000)  0.04903000(14000)  0.37167
 C9_138  C 1.0  0.27027000(16000)  0.79621000(15000)  0.54903000(14000)  0.37167
 C9_139  C 1.0  0.04903000(16000)  0.27027000(15000)  0.29621000(14000)  0.37167
 C9_140  C 1.0  0.54903000(16000)  0.27027000(15000)  0.79621000(14000)  0.37167
 C9_141  C 1.0  0.54903000(16000)  0.77027000(15000)  0.29621000(14000)  0.37167
 C9_142  C 1.0  0.20379000(16000)  0.45097000(15000)  0.27027000(14000)  0.37167
 C9_143  C 1.0  0.70379000(16000)  0.45097000(15000)  0.77027000(14000)  0.37167
 C9_144  C 1.0  0.70379000(16000)  0.95097000(15000)  0.27027000(14000)  0.37167
 C9_145  C 1.0  0.22973000(16000)  0.29621000(15000)  0.45097000(14000)  0.37167
 C9_146  C 1.0  0.72973000(16000)  0.29621000(15000)  0.95097000(14000)  0.37167
 C9_147  C 1.0  0.72973000(16000)  0.79621000(15000)  0.45097000(14000)  0.37167
 C9_148  C 1.0  0.04903000(16000)  0.27027000(15000)  0.70379000(14000)  0.37167
 C9_149  C 1.0  0.54903000(16000)  0.27027000(15000)  0.20379000(14000)  0.37167
 C9_150  C 1.0  0.54903000(16000)  0.77027000(15000)  0.70379000(14000)  0.37167
 C9_151  C 1.0  0.20379000(16000)  0.45097000(15000)  0.72973000(14000)  0.37167
 C9_152  C 1.0  0.70379000(16000)  0.45097000(15000)  0.22973000(14000)  0.37167
 C9_153  C 1.0  0.70379000(16000)  0.95097000(15000)  0.72973000(14000)  0.37167
 C9_154  C 1.0  0.22973000(16000)  0.29621000(15000)  0.54903000(14000)  0.37167
 C9_155  C 1.0  0.72973000(16000)  0.29621000(15000)  0.04903000(14000)  0.37167
 C9_156  C 1.0  0.72973000(16000)  0.79621000(15000)  0.54903000(14000)  0.37167
 C9_157  C 1.0  0.77027000(16000)  0.45097000(15000)  0.29621000(14000)  0.37167
 C9_158  C 1.0  0.27027000(16000)  0.45097000(15000)  0.79621000(14000)  0.37167
 C9_159  C 1.0  0.27027000(16000)  0.95097000(15000)  0.29621000(14000)  0.37167
 C9_160  C 1.0  0.95097000(16000)  0.29621000(15000)  0.27027000(14000)  0.37167
 C9_161  C 1.0  0.45097000(16000)  0.29621000(15000)  0.77027000(14000)  0.37167
 C9_162  C 1.0  0.45097000(16000)  0.79621000(15000)  0.27027000(14000)  0.37167
 C9_163  C 1.0  0.79621000(16000)  0.27027000(15000)  0.45097000(14000)  0.37167
 C9_164  C 1.0  0.29621000(16000)  0.27027000(15000)  0.95097000(14000)  0.37167
 C9_165  C 1.0  0.29621000(16000)  0.77027000(15000)  0.45097000(14000)  0.37167
 C9_166  C 1.0  0.77027000(16000)  0.45097000(15000)  0.70379000(14000)  0.37167
 C9_167  C 1.0  0.27027000(16000)  0.45097000(15000)  0.20379000(14000)  0.37167
 C9_168  C 1.0  0.27027000(16000)  0.95097000(15000)  0.70379000(14000)  0.37167
 C9_169  C 1.0  0.95097000(16000)  0.29621000(15000)  0.72973000(14000)  0.37167
 C9_170  C 1.0  0.45097000(16000)  0.29621000(15000)  0.22973000(14000)  0.37167
 C9_171  C 1.0  0.45097000(16000)  0.79621000(15000)  0.72973000(14000)  0.37167
 C9_172  C 1.0  0.79621000(16000)  0.27027000(15000)  0.54903000(14000)  0.37167
 C9_173  C 1.0  0.29621000(16000)  0.27027000(15000)  0.04903000(14000)  0.37167
 C9_174  C 1.0  0.29621000(16000)  0.77027000(15000)  0.54903000(14000)  0.37167
 C9_175  C 1.0  0.77027000(16000)  0.54903000(15000)  0.29621000(14000)  0.37167
 C9_176  C 1.0  0.27027000(16000)  0.54903000(15000)  0.79621000(14000)  0.37167
 C9_177  C 1.0  0.27027000(16000)  0.04903000(15000)  0.29621000(14000)  0.37167
 C9_178  C 1.0  0.95097000(16000)  0.70379000(15000)  0.27027000(14000)  0.37167
 C9_179  C 1.0  0.45097000(16000)  0.70379000(15000)  0.77027000(14000)  0.37167
 C9_180  C 1.0  0.45097000(16000)  0.20379000(15000)  0.27027000(14000)  0.37167
 C9_181  C 1.0  0.79621000(16000)  0.72973000(15000)  0.45097000(14000)  0.37167
 C9_182  C 1.0  0.29621000(16000)  0.72973000(15000)  0.95097000(14000)  0.37167
 C9_183  C 1.0  0.29621000(16000)  0.22973000(15000)  0.45097000(14000)  0.37167
 C9_184  C 1.0  0.77027000(16000)  0.54903000(15000)  0.70379000(14000)  0.37167
 C9_185  C 1.0  0.27027000(16000)  0.54903000(15000)  0.20379000(14000)  0.37167
 C9_186  C 1.0  0.27027000(16000)  0.04903000(15000)  0.70379000(14000)  0.37167
 C9_187  C 1.0  0.95097000(16000)  0.70379000(15000)  0.72973000(14000)  0.37167
 C9_188  C 1.0  0.45097000(16000)  0.70379000(15000)  0.22973000(14000)  0.37167
 C9_189  C 1.0  0.45097000(16000)  0.20379000(15000)  0.72973000(14000)  0.37167
 C9_190  C 1.0  0.79621000(16000)  0.72973000(15000)  0.54903000(14000)  0.37167
 C9_191  C 1.0  0.29621000(16000)  0.72973000(15000)  0.04903000(14000)  0.37167
 C9_192  C 1.0  0.29621000(16000)  0.22973000(15000)  0.54903000(14000)  0.37167
 Cu1  Cu 1.0  0.00000000(0)  0.26364000(3000)  0.23636000(3000)  0.23467
 Cu1_2  Cu 1.0  0.23636000(0)  0.00000000(3000)  0.26364000(3000)  0.23467
 Cu1_3  Cu 1.0  0.26364000(0)  0.23636000(3000)  0.00000000(3000)  0.23467
 Cu1_4  Cu 1.0  0.00000000(0)  0.26364000(3000)  0.76364000(3000)  0.23467
 Cu1_5  Cu 1.0  0.23636000(0)  0.00000000(3000)  0.73636000(3000)  0.23467
 Cu1_6  Cu 1.0  0.76364000(0)  0.00000000(3000)  0.26364000(3000)  0.23467
 Cu1_7  Cu 1.0  0.73636000(0)  0.23636000(3000)  0.00000000(3000)  0.23467
 Cu1_8  Cu 1.0  0.76364000(0)  0.00000000(3000)  0.73636000(3000)  0.23467
 Cu1_9  Cu 1.0  0.26364000(0)  0.00000000(3000)  0.23636000(3000)  0.23467
 Cu1_10  Cu 1.0  0.00000000(0)  0.23636000(3000)  0.26364000(3000)  0.23467
 Cu1_11  Cu 1.0  0.23636000(0)  0.26364000(3000)  0.00000000(3000)  0.23467
 Cu1_12  Cu 1.0  0.26364000(0)  0.00000000(3000)  0.76364000(3000)  0.23467
 Cu1_13  Cu 1.0  0.00000000(0)  0.23636000(3000)  0.73636000(3000)  0.23467
 Cu1_14  Cu 1.0  0.00000000(0)  0.76364000(3000)  0.26364000(3000)  0.23467
 Cu1_15  Cu 1.0  0.23636000(0)  0.73636000(3000)  0.00000000(3000)  0.23467
 Cu1_16  Cu 1.0  0.00000000(0)  0.76364000(3000)  0.73636000(3000)  0.23467
 Cu1_17  Cu 1.0  0.00000000(0)  0.73636000(3000)  0.76364000(3000)  0.23467
 Cu1_18  Cu 1.0  0.73636000(0)  0.76364000(3000)  0.00000000(3000)  0.23467
 Cu1_19  Cu 1.0  0.00000000(0)  0.73636000(3000)  0.23636000(3000)  0.23467
 Cu1_20  Cu 1.0  0.26364000(0)  0.76364000(3000)  0.00000000(3000)  0.23467
 Cu1_21  Cu 1.0  0.73636000(0)  0.00000000(3000)  0.76364000(3000)  0.23467
 Cu1_22  Cu 1.0  0.76364000(0)  0.73636000(3000)  0.00000000(3000)  0.23467
 Cu1_23  Cu 1.0  0.73636000(0)  0.00000000(3000)  0.23636000(3000)  0.23467
 Cu1_24  Cu 1.0  0.76364000(0)  0.26364000(3000)  0.00000000(3000)  0.23467
 Cu1_25  Cu 1.0  0.50000000(0)  0.76364000(3000)  0.23636000(3000)  0.23467
 Cu1_26  Cu 1.0  0.50000000(0)  0.26364000(3000)  0.73636000(3000)  0.23467
 Cu1_27  Cu 1.0  0.23636000(0)  0.50000000(3000)  0.76364000(3000)  0.23467
 Cu1_28  Cu 1.0  0.73636000(0)  0.50000000(3000)  0.26364000(3000)  0.23467
 Cu1_29  Cu 1.0  0.26364000(0)  0.73636000(3000)  0.50000000(3000)  0.23467
 Cu1_30  Cu 1.0  0.76364000(0)  0.23636000(3000)  0.50000000(3000)  0.23467
 Cu1_31  Cu 1.0  0.50000000(0)  0.76364000(3000)  0.76364000(3000)  0.23467
 Cu1_32  Cu 1.0  0.50000000(0)  0.26364000(3000)  0.26364000(3000)  0.23467
 Cu1_33  Cu 1.0  0.23636000(0)  0.50000000(3000)  0.23636000(3000)  0.23467
 Cu1_34  Cu 1.0  0.73636000(0)  0.50000000(3000)  0.73636000(3000)  0.23467
 Cu1_35  Cu 1.0  0.76364000(0)  0.50000000(3000)  0.76364000(3000)  0.23467
 Cu1_36  Cu 1.0  0.26364000(0)  0.50000000(3000)  0.26364000(3000)  0.23467
 Cu1_37  Cu 1.0  0.73636000(0)  0.73636000(3000)  0.50000000(3000)  0.23467
 Cu1_38  Cu 1.0  0.23636000(0)  0.23636000(3000)  0.50000000(3000)  0.23467
 Cu1_39  Cu 1.0  0.76364000(0)  0.50000000(3000)  0.23636000(3000)  0.23467
 Cu1_40  Cu 1.0  0.26364000(0)  0.50000000(3000)  0.73636000(3000)  0.23467
 Cu1_41  Cu 1.0  0.50000000(0)  0.73636000(3000)  0.26364000(3000)  0.23467
 Cu1_42  Cu 1.0  0.50000000(0)  0.23636000(3000)  0.76364000(3000)  0.23467
 Cu1_43  Cu 1.0  0.23636000(0)  0.76364000(3000)  0.50000000(3000)  0.23467
 Cu1_44  Cu 1.0  0.73636000(0)  0.26364000(3000)  0.50000000(3000)  0.23467
 Cu1_45  Cu 1.0  0.50000000(0)  0.73636000(3000)  0.73636000(3000)  0.23467
 Cu1_46  Cu 1.0  0.50000000(0)  0.23636000(3000)  0.23636000(3000)  0.23467
 Cu1_47  Cu 1.0  0.26364000(0)  0.26364000(3000)  0.50000000(3000)  0.23467
 Cu1_48  Cu 1.0  0.76364000(0)  0.76364000(3000)  0.50000000(3000)  0.23467
 H1  H 1.0  0.14200000(0)  0.18440000(0)  0.14200000(0)  0.44500
 H4  H 1.0  0.12040000(0)  0.19870000(0)  0.15640000(0)  0.67000
 H5  H 1.0  0.09350000(0)  0.21420000(0)  0.17190000(0)  0.64700
 H8  H 1.0  0.06980000(0)  0.22480000(0)  0.18230000(0)  0.40400
 H9  H 1.0  0.04440000(0)  0.24160000(0)  0.19910000(0)  0.44600
 H1_2  H 1.0  0.14200000(0)  0.14200000(0)  0.18440000(0)  0.44500
 H1_3  H 1.0  0.18440000(0)  0.14200000(0)  0.14200000(0)  0.44500
 H1_4  H 1.0  0.14200000(0)  0.18440000(0)  0.85800000(0)  0.44500
 H1_5  H 1.0  0.14200000(0)  0.14200000(0)  0.81560000(0)  0.44500
 H1_6  H 1.0  0.18440000(0)  0.14200000(0)  0.85800000(0)  0.44500
 H1_7  H 1.0  0.85800000(0)  0.18440000(0)  0.14200000(0)  0.44500
 H1_8  H 1.0  0.85800000(0)  0.14200000(0)  0.18440000(0)  0.44500
 H1_9  H 1.0  0.81560000(0)  0.14200000(0)  0.14200000(0)  0.44500
 H1_10  H 1.0  0.85800000(0)  0.18440000(0)  0.85800000(0)  0.44500
 H1_11  H 1.0  0.85800000(0)  0.14200000(0)  0.81560000(0)  0.44500
 H1_12  H 1.0  0.81560000(0)  0.14200000(0)  0.85800000(0)  0.44500
 H1_13  H 1.0  0.18440000(0)  0.85800000(0)  0.14200000(0)  0.44500
 H1_14  H 1.0  0.14200000(0)  0.85800000(0)  0.18440000(0)  0.44500
 H1_15  H 1.0  0.14200000(0)  0.81560000(0)  0.14200000(0)  0.44500
 H1_16  H 1.0  0.18440000(0)  0.85800000(0)  0.85800000(0)  0.44500
 H1_17  H 1.0  0.14200000(0)  0.85800000(0)  0.81560000(0)  0.44500
 H1_18  H 1.0  0.14200000(0)  0.81560000(0)  0.85800000(0)  0.44500
 H1_19  H 1.0  0.85800000(0)  0.81560000(0)  0.85800000(0)  0.44500
 H1_20  H 1.0  0.85800000(0)  0.85800000(0)  0.81560000(0)  0.44500
 H1_21  H 1.0  0.81560000(0)  0.85800000(0)  0.85800000(0)  0.44500
 H1_22  H 1.0  0.85800000(0)  0.81560000(0)  0.14200000(0)  0.44500
 H1_23  H 1.0  0.85800000(0)  0.85800000(0)  0.18440000(0)  0.44500
 H1_24  H 1.0  0.81560000(0)  0.85800000(0)  0.14200000(0)  0.44500
 H1_25  H 1.0  0.14200000(0)  0.68440000(0)  0.64200000(0)  0.44500
 H1_26  H 1.0  0.64200000(0)  0.68440000(0)  0.14200000(0)  0.44500
 H1_27  H 1.0  0.64200000(0)  0.18440000(0)  0.64200000(0)  0.44500
 H1_28  H 1.0  0.14200000(0)  0.64200000(0)  0.68440000(0)  0.44500
 H1_29  H 1.0  0.64200000(0)  0.64200000(0)  0.18440000(0)  0.44500
 H1_30  H 1.0  0.64200000(0)  0.14200000(0)  0.68440000(0)  0.44500
 H1_31  H 1.0  0.18440000(0)  0.64200000(0)  0.64200000(0)  0.44500
 H1_32  H 1.0  0.68440000(0)  0.64200000(0)  0.14200000(0)  0.44500
 H1_33  H 1.0  0.68440000(0)  0.14200000(0)  0.64200000(0)  0.44500
 H1_34  H 1.0  0.14200000(0)  0.68440000(0)  0.35800000(0)  0.44500
 H1_35  H 1.0  0.64200000(0)  0.68440000(0)  0.85800000(0)  0.44500
 H1_36  H 1.0  0.64200000(0)  0.18440000(0)  0.35800000(0)  0.44500
 H1_37  H 1.0  0.14200000(0)  0.64200000(0)  0.31560000(0)  0.44500
 H1_38  H 1.0  0.64200000(0)  0.64200000(0)  0.81560000(0)  0.44500
 H1_39  H 1.0  0.64200000(0)  0.14200000(0)  0.31560000(0)  0.44500
 H1_40  H 1.0  0.18440000(0)  0.64200000(0)  0.35800000(0)  0.44500
 H1_41  H 1.0  0.68440000(0)  0.64200000(0)  0.85800000(0)  0.44500
 H1_42  H 1.0  0.68440000(0)  0.14200000(0)  0.35800000(0)  0.44500
 H1_43  H 1.0  0.85800000(0)  0.68440000(0)  0.64200000(0)  0.44500
 H1_44  H 1.0  0.35800000(0)  0.68440000(0)  0.14200000(0)  0.44500
 H1_45  H 1.0  0.35800000(0)  0.18440000(0)  0.64200000(0)  0.44500
 H1_46  H 1.0  0.85800000(0)  0.64200000(0)  0.68440000(0)  0.44500
 H1_47  H 1.0  0.35800000(0)  0.64200000(0)  0.18440000(0)  0.44500
 H1_48  H 1.0  0.35800000(0)  0.14200000(0)  0.68440000(0)  0.44500
 H1_49  H 1.0  0.81560000(0)  0.64200000(0)  0.64200000(0)  0.44500
 H1_50  H 1.0  0.31560000(0)  0.64200000(0)  0.14200000(0)  0.44500
 H1_51  H 1.0  0.31560000(0)  0.14200000(0)  0.64200000(0)  0.44500
 H1_52  H 1.0  0.85800000(0)  0.68440000(0)  0.35800000(0)  0.44500
 H1_53  H 1.0  0.35800000(0)  0.68440000(0)  0.85800000(0)  0.44500
 H1_54  H 1.0  0.35800000(0)  0.18440000(0)  0.35800000(0)  0.44500
 H1_55  H 1.0  0.85800000(0)  0.64200000(0)  0.31560000(0)  0.44500
 H1_56  H 1.0  0.35800000(0)  0.64200000(0)  0.81560000(0)  0.44500
 H1_57  H 1.0  0.35800000(0)  0.14200000(0)  0.31560000(0)  0.44500
 H1_58  H 1.0  0.81560000(0)  0.64200000(0)  0.35800000(0)  0.44500
 H1_59  H 1.0  0.31560000(0)  0.64200000(0)  0.85800000(0)  0.44500
 H1_60  H 1.0  0.31560000(0)  0.14200000(0)  0.35800000(0)  0.44500
 H1_61  H 1.0  0.18440000(0)  0.35800000(0)  0.64200000(0)  0.44500
 H1_62  H 1.0  0.68440000(0)  0.35800000(0)  0.14200000(0)  0.44500
 H1_63  H 1.0  0.68440000(0)  0.85800000(0)  0.64200000(0)  0.44500
 H1_64  H 1.0  0.14200000(0)  0.35800000(0)  0.68440000(0)  0.44500
 H1_65  H 1.0  0.64200000(0)  0.35800000(0)  0.18440000(0)  0.44500
 H1_66  H 1.0  0.64200000(0)  0.85800000(0)  0.68440000(0)  0.44500
 H1_67  H 1.0  0.14200000(0)  0.31560000(0)  0.64200000(0)  0.44500
 H1_68  H 1.0  0.64200000(0)  0.31560000(0)  0.14200000(0)  0.44500
 H1_69  H 1.0  0.64200000(0)  0.81560000(0)  0.64200000(0)  0.44500
 H1_70  H 1.0  0.18440000(0)  0.35800000(0)  0.35800000(0)  0.44500
 H1_71  H 1.0  0.68440000(0)  0.35800000(0)  0.85800000(0)  0.44500
 H1_72  H 1.0  0.68440000(0)  0.85800000(0)  0.35800000(0)  0.44500
 H1_73  H 1.0  0.14200000(0)  0.35800000(0)  0.31560000(0)  0.44500
 H1_74  H 1.0  0.64200000(0)  0.35800000(0)  0.81560000(0)  0.44500
 H1_75  H 1.0  0.64200000(0)  0.85800000(0)  0.31560000(0)  0.44500
 H1_76  H 1.0  0.14200000(0)  0.31560000(0)  0.35800000(0)  0.44500
 H1_77  H 1.0  0.64200000(0)  0.31560000(0)  0.85800000(0)  0.44500
 H1_78  H 1.0  0.64200000(0)  0.81560000(0)  0.35800000(0)  0.44500
 H1_79  H 1.0  0.85800000(0)  0.31560000(0)  0.35800000(0)  0.44500
 H1_80  H 1.0  0.35800000(0)  0.31560000(0)  0.85800000(0)  0.44500
 H1_81  H 1.0  0.35800000(0)  0.81560000(0)  0.35800000(0)  0.44500
 H1_82  H 1.0  0.85800000(0)  0.35800000(0)  0.31560000(0)  0.44500
 H1_83  H 1.0  0.35800000(0)  0.35800000(0)  0.81560000(0)  0.44500
 H1_84  H 1.0  0.35800000(0)  0.85800000(0)  0.31560000(0)  0.44500
 H1_85  H 1.0  0.81560000(0)  0.35800000(0)  0.35800000(0)  0.44500
 H1_86  H 1.0  0.31560000(0)  0.35800000(0)  0.85800000(0)  0.44500
 H1_87  H 1.0  0.31560000(0)  0.85800000(0)  0.35800000(0)  0.44500
 H1_88  H 1.0  0.85800000(0)  0.31560000(0)  0.64200000(0)  0.44500
 H1_89  H 1.0  0.35800000(0)  0.31560000(0)  0.14200000(0)  0.44500
 H1_90  H 1.0  0.35800000(0)  0.81560000(0)  0.64200000(0)  0.44500
 H1_91  H 1.0  0.85800000(0)  0.35800000(0)  0.68440000(0)  0.44500
 H1_92  H 1.0  0.35800000(0)  0.35800000(0)  0.18440000(0)  0.44500
 H1_93  H 1.0  0.35800000(0)  0.85800000(0)  0.68440000(0)  0.44500
 H1_94  H 1.0  0.81560000(0)  0.35800000(0)  0.64200000(0)  0.44500
 H1_95  H 1.0  0.31560000(0)  0.35800000(0)  0.14200000(0)  0.44500
 H1_96  H 1.0  0.31560000(0)  0.85800000(0)  0.64200000(0)  0.44500
 H4_2  H 1.0  0.15640000(0)  0.12040000(0)  0.19870000(0)  0.67000
 H4_3  H 1.0  0.19870000(0)  0.15640000(0)  0.12040000(0)  0.67000
 H4_4  H 1.0  0.12040000(0)  0.19870000(0)  0.84360000(0)  0.67000
 H4_5  H 1.0  0.15640000(0)  0.12040000(0)  0.80130000(0)  0.67000
 H4_6  H 1.0  0.19870000(0)  0.15640000(0)  0.87960000(0)  0.67000
 H4_7  H 1.0  0.87960000(0)  0.19870000(0)  0.15640000(0)  0.67000
 H4_8  H 1.0  0.84360000(0)  0.12040000(0)  0.19870000(0)  0.67000
 H4_9  H 1.0  0.80130000(0)  0.15640000(0)  0.12040000(0)  0.67000
 H4_10  H 1.0  0.87960000(0)  0.19870000(0)  0.84360000(0)  0.67000
 H4_11  H 1.0  0.84360000(0)  0.12040000(0)  0.80130000(0)  0.67000
 H4_12  H 1.0  0.80130000(0)  0.15640000(0)  0.87960000(0)  0.67000
 H4_13  H 1.0  0.19870000(0)  0.12040000(0)  0.15640000(0)  0.67000
 H4_14  H 1.0  0.12040000(0)  0.15640000(0)  0.19870000(0)  0.67000
 H4_15  H 1.0  0.15640000(0)  0.19870000(0)  0.12040000(0)  0.67000
 H4_16  H 1.0  0.19870000(0)  0.12040000(0)  0.84360000(0)  0.67000
 H4_17  H 1.0  0.12040000(0)  0.15640000(0)  0.80130000(0)  0.67000
 H4_18  H 1.0  0.15640000(0)  0.19870000(0)  0.87960000(0)  0.67000
 H4_19  H 1.0  0.19870000(0)  0.87960000(0)  0.15640000(0)  0.67000
 H4_20  H 1.0  0.12040000(0)  0.84360000(0)  0.19870000(0)  0.67000
 H4_21  H 1.0  0.15640000(0)  0.80130000(0)  0.12040000(0)  0.67000
 H4_22  H 1.0  0.19870000(0)  0.87960000(0)  0.84360000(0)  0.67000
 H4_23  H 1.0  0.12040000(0)  0.84360000(0)  0.80130000(0)  0.67000
 H4_24  H 1.0  0.15640000(0)  0.80130000(0)  0.87960000(0)  0.67000
 H4_25  H 1.0  0.87960000(0)  0.80130000(0)  0.84360000(0)  0.67000
 H4_26  H 1.0  0.84360000(0)  0.87960000(0)  0.80130000(0)  0.67000
 H4_27  H 1.0  0.80130000(0)  0.84360000(0)  0.87960000(0)  0.67000
 H4_28  H 1.0  0.87960000(0)  0.80130000(0)  0.15640000(0)  0.67000
 H4_29  H 1.0  0.84360000(0)  0.87960000(0)  0.19870000(0)  0.67000
 H4_30  H 1.0  0.80130000(0)  0.84360000(0)  0.12040000(0)  0.67000
 H4_31  H 1.0  0.12040000(0)  0.80130000(0)  0.84360000(0)  0.67000
 H4_32  H 1.0  0.15640000(0)  0.87960000(0)  0.80130000(0)  0.67000
 H4_33  H 1.0  0.19870000(0)  0.84360000(0)  0.87960000(0)  0.67000
 H4_34  H 1.0  0.12040000(0)  0.80130000(0)  0.15640000(0)  0.67000
 H4_35  H 1.0  0.15640000(0)  0.87960000(0)  0.19870000(0)  0.67000
 H4_36  H 1.0  0.19870000(0)  0.84360000(0)  0.12040000(0)  0.67000
 H4_37  H 1.0  0.80130000(0)  0.87960000(0)  0.84360000(0)  0.67000
 H4_38  H 1.0  0.87960000(0)  0.84360000(0)  0.80130000(0)  0.67000
 H4_39  H 1.0  0.84360000(0)  0.80130000(0)  0.87960000(0)  0.67000
 H4_40  H 1.0  0.80130000(0)  0.87960000(0)  0.15640000(0)  0.67000
 H4_41  H 1.0  0.87960000(0)  0.84360000(0)  0.19870000(0)  0.67000
 H4_42  H 1.0  0.84360000(0)  0.80130000(0)  0.12040000(0)  0.67000
 H4_43  H 1.0  0.80130000(0)  0.12040000(0)  0.84360000(0)  0.67000
 H4_44  H 1.0  0.87960000(0)  0.15640000(0)  0.80130000(0)  0.67000
 H4_45  H 1.0  0.84360000(0)  0.19870000(0)  0.87960000(0)  0.67000
 H4_46  H 1.0  0.80130000(0)  0.12040000(0)  0.15640000(0)  0.67000
 H4_47  H 1.0  0.87960000(0)  0.15640000(0)  0.19870000(0)  0.67000
 H4_48  H 1.0  0.84360000(0)  0.19870000(0)  0.12040000(0)  0.67000
 H4_49  H 1.0  0.12040000(0)  0.69870000(0)  0.65640000(0)  0.67000
 H4_50  H 1.0  0.62040000(0)  0.69870000(0)  0.15640000(0)  0.67000
 H4_51  H 1.0  0.62040000(0)  0.19870000(0)  0.65640000(0)  0.67000
 H4_52  H 1.0  0.15640000(0)  0.62040000(0)  0.69870000(0)  0.67000
 H4_53  H 1.0  0.65640000(0)  0.62040000(0)  0.19870000(0)  0.67000
 H4_54  H 1.0  0.65640000(0)  0.12040000(0)  0.69870000(0)  0.67000
 H4_55  H 1.0  0.19870000(0)  0.65640000(0)  0.62040000(0)  0.67000
 H4_56  H 1.0  0.69870000(0)  0.65640000(0)  0.12040000(0)  0.67000
 H4_57  H 1.0  0.69870000(0)  0.15640000(0)  0.62040000(0)  0.67000
 H4_58  H 1.0  0.12040000(0)  0.69870000(0)  0.34360000(0)  0.67000
 H4_59  H 1.0  0.62040000(0)  0.69870000(0)  0.84360000(0)  0.67000
 H4_60  H 1.0  0.62040000(0)  0.19870000(0)  0.34360000(0)  0.67000
 H4_61  H 1.0  0.15640000(0)  0.62040000(0)  0.30130000(0)  0.67000
 H4_62  H 1.0  0.65640000(0)  0.62040000(0)  0.80130000(0)  0.67000
 H4_63  H 1.0  0.65640000(0)  0.12040000(0)  0.30130000(0)  0.67000
 H4_64  H 1.0  0.19870000(0)  0.65640000(0)  0.37960000(0)  0.67000
 H4_65  H 1.0  0.69870000(0)  0.65640000(0)  0.87960000(0)  0.67000
 H4_66  H 1.0  0.69870000(0)  0.15640000(0)  0.37960000(0)  0.67000
 H4_67  H 1.0  0.87960000(0)  0.69870000(0)  0.65640000(0)  0.67000
 H4_68  H 1.0  0.37960000(0)  0.69870000(0)  0.15640000(0)  0.67000
 H4_69  H 1.0  0.37960000(0)  0.19870000(0)  0.65640000(0)  0.67000
 H4_70  H 1.0  0.84360000(0)  0.62040000(0)  0.69870000(0)  0.67000
 H4_71  H 1.0  0.34360000(0)  0.62040000(0)  0.19870000(0)  0.67000
 H4_72  H 1.0  0.34360000(0)  0.12040000(0)  0.69870000(0)  0.67000
 H4_73  H 1.0  0.80130000(0)  0.65640000(0)  0.62040000(0)  0.67000
 H4_74  H 1.0  0.30130000(0)  0.65640000(0)  0.12040000(0)  0.67000
 H4_75  H 1.0  0.30130000(0)  0.15640000(0)  0.62040000(0)  0.67000
 H4_76  H 1.0  0.87960000(0)  0.69870000(0)  0.34360000(0)  0.67000
 H4_77  H 1.0  0.37960000(0)  0.69870000(0)  0.84360000(0)  0.67000
 H4_78  H 1.0  0.37960000(0)  0.19870000(0)  0.34360000(0)  0.67000
 H4_79  H 1.0  0.84360000(0)  0.62040000(0)  0.30130000(0)  0.67000
 H4_80  H 1.0  0.34360000(0)  0.62040000(0)  0.80130000(0)  0.67000
 H4_81  H 1.0  0.34360000(0)  0.12040000(0)  0.30130000(0)  0.67000
 H4_82  H 1.0  0.80130000(0)  0.65640000(0)  0.37960000(0)  0.67000
 H4_83  H 1.0  0.30130000(0)  0.65640000(0)  0.87960000(0)  0.67000
 H4_84  H 1.0  0.30130000(0)  0.15640000(0)  0.37960000(0)  0.67000
 H4_85  H 1.0  0.19870000(0)  0.62040000(0)  0.65640000(0)  0.67000
 H4_86  H 1.0  0.69870000(0)  0.62040000(0)  0.15640000(0)  0.67000
 H4_87  H 1.0  0.69870000(0)  0.12040000(0)  0.65640000(0)  0.67000
 H4_88  H 1.0  0.12040000(0)  0.65640000(0)  0.69870000(0)  0.67000
 H4_89  H 1.0  0.62040000(0)  0.65640000(0)  0.19870000(0)  0.67000
 H4_90  H 1.0  0.62040000(0)  0.15640000(0)  0.69870000(0)  0.67000
 H4_91  H 1.0  0.15640000(0)  0.69870000(0)  0.62040000(0)  0.67000
 H4_92  H 1.0  0.65640000(0)  0.69870000(0)  0.12040000(0)  0.67000
 H4_93  H 1.0  0.65640000(0)  0.19870000(0)  0.62040000(0)  0.67000
 H4_94  H 1.0  0.19870000(0)  0.62040000(0)  0.34360000(0)  0.67000
 H4_95  H 1.0  0.69870000(0)  0.62040000(0)  0.84360000(0)  0.67000
 H4_96  H 1.0  0.69870000(0)  0.12040000(0)  0.34360000(0)  0.67000
 H4_97  H 1.0  0.12040000(0)  0.65640000(0)  0.30130000(0)  0.67000
 H4_98  H 1.0  0.62040000(0)  0.65640000(0)  0.80130000(0)  0.67000
 H4_99  H 1.0  0.62040000(0)  0.15640000(0)  0.30130000(0)  0.67000
 H4_100  H 1.0  0.15640000(0)  0.69870000(0)  0.37960000(0)  0.67000
 H4_101  H 1.0  0.65640000(0)  0.69870000(0)  0.87960000(0)  0.67000
 H4_102  H 1.0  0.65640000(0)  0.19870000(0)  0.37960000(0)  0.67000
 H4_103  H 1.0  0.19870000(0)  0.37960000(0)  0.65640000(0)  0.67000
 H4_104  H 1.0  0.69870000(0)  0.37960000(0)  0.15640000(0)  0.67000
 H4_105  H 1.0  0.69870000(0)  0.87960000(0)  0.65640000(0)  0.67000
 H4_106  H 1.0  0.12040000(0)  0.34360000(0)  0.69870000(0)  0.67000
 H4_107  H 1.0  0.62040000(0)  0.34360000(0)  0.19870000(0)  0.67000
 H4_108  H 1.0  0.62040000(0)  0.84360000(0)  0.69870000(0)  0.67000
 H4_109  H 1.0  0.15640000(0)  0.30130000(0)  0.62040000(0)  0.67000
 H4_110  H 1.0  0.65640000(0)  0.30130000(0)  0.12040000(0)  0.67000
 H4_111  H 1.0  0.65640000(0)  0.80130000(0)  0.62040000(0)  0.67000
 H4_112  H 1.0  0.19870000(0)  0.37960000(0)  0.34360000(0)  0.67000
 H4_113  H 1.0  0.69870000(0)  0.37960000(0)  0.84360000(0)  0.67000
 H4_114  H 1.0  0.69870000(0)  0.87960000(0)  0.34360000(0)  0.67000
 H4_115  H 1.0  0.12040000(0)  0.34360000(0)  0.30130000(0)  0.67000
 H4_116  H 1.0  0.62040000(0)  0.34360000(0)  0.80130000(0)  0.67000
 H4_117  H 1.0  0.62040000(0)  0.84360000(0)  0.30130000(0)  0.67000
 H4_118  H 1.0  0.15640000(0)  0.30130000(0)  0.37960000(0)  0.67000
 H4_119  H 1.0  0.65640000(0)  0.30130000(0)  0.87960000(0)  0.67000
 H4_120  H 1.0  0.65640000(0)  0.80130000(0)  0.37960000(0)  0.67000
 H4_121  H 1.0  0.87960000(0)  0.30130000(0)  0.34360000(0)  0.67000
 H4_122  H 1.0  0.37960000(0)  0.30130000(0)  0.84360000(0)  0.67000
 H4_123  H 1.0  0.37960000(0)  0.80130000(0)  0.34360000(0)  0.67000
 H4_124  H 1.0  0.84360000(0)  0.37960000(0)  0.30130000(0)  0.67000
 H4_125  H 1.0  0.34360000(0)  0.37960000(0)  0.80130000(0)  0.67000
 H4_126  H 1.0  0.34360000(0)  0.87960000(0)  0.30130000(0)  0.67000
 H4_127  H 1.0  0.80130000(0)  0.34360000(0)  0.37960000(0)  0.67000
 H4_128  H 1.0  0.30130000(0)  0.34360000(0)  0.87960000(0)  0.67000
 H4_129  H 1.0  0.30130000(0)  0.84360000(0)  0.37960000(0)  0.67000
 H4_130  H 1.0  0.87960000(0)  0.30130000(0)  0.65640000(0)  0.67000
 H4_131  H 1.0  0.37960000(0)  0.30130000(0)  0.15640000(0)  0.67000
 H4_132  H 1.0  0.37960000(0)  0.80130000(0)  0.65640000(0)  0.67000
 H4_133  H 1.0  0.84360000(0)  0.37960000(0)  0.69870000(0)  0.67000
 H4_134  H 1.0  0.34360000(0)  0.37960000(0)  0.19870000(0)  0.67000
 H4_135  H 1.0  0.34360000(0)  0.87960000(0)  0.69870000(0)  0.67000
 H4_136  H 1.0  0.80130000(0)  0.34360000(0)  0.62040000(0)  0.67000
 H4_137  H 1.0  0.30130000(0)  0.34360000(0)  0.12040000(0)  0.67000
 H4_138  H 1.0  0.30130000(0)  0.84360000(0)  0.62040000(0)  0.67000
 H4_139  H 1.0  0.12040000(0)  0.30130000(0)  0.34360000(0)  0.67000
 H4_140  H 1.0  0.62040000(0)  0.30130000(0)  0.84360000(0)  0.67000
 H4_141  H 1.0  0.62040000(0)  0.80130000(0)  0.34360000(0)  0.67000
 H4_142  H 1.0  0.15640000(0)  0.37960000(0)  0.30130000(0)  0.67000
 H4_143  H 1.0  0.65640000(0)  0.37960000(0)  0.80130000(0)  0.67000
 H4_144  H 1.0  0.65640000(0)  0.87960000(0)  0.30130000(0)  0.67000
 H4_145  H 1.0  0.19870000(0)  0.34360000(0)  0.37960000(0)  0.67000
 H4_146  H 1.0  0.69870000(0)  0.34360000(0)  0.87960000(0)  0.67000
 H4_147  H 1.0  0.69870000(0)  0.84360000(0)  0.37960000(0)  0.67000
 H4_148  H 1.0  0.12040000(0)  0.30130000(0)  0.65640000(0)  0.67000
 H4_149  H 1.0  0.62040000(0)  0.30130000(0)  0.15640000(0)  0.67000
 H4_150  H 1.0  0.62040000(0)  0.80130000(0)  0.65640000(0)  0.67000
 H4_151  H 1.0  0.15640000(0)  0.37960000(0)  0.69870000(0)  0.67000
 H4_152  H 1.0  0.65640000(0)  0.37960000(0)  0.19870000(0)  0.67000
 H4_153  H 1.0  0.65640000(0)  0.87960000(0)  0.69870000(0)  0.67000
 H4_154  H 1.0  0.19870000(0)  0.34360000(0)  0.62040000(0)  0.67000
 H4_155  H 1.0  0.69870000(0)  0.34360000(0)  0.12040000(0)  0.67000
 H4_156  H 1.0  0.69870000(0)  0.84360000(0)  0.62040000(0)  0.67000
 H4_157  H 1.0  0.80130000(0)  0.37960000(0)  0.34360000(0)  0.67000
 H4_158  H 1.0  0.30130000(0)  0.37960000(0)  0.84360000(0)  0.67000
 H4_159  H 1.0  0.30130000(0)  0.87960000(0)  0.34360000(0)  0.67000
 H4_160  H 1.0  0.87960000(0)  0.34360000(0)  0.30130000(0)  0.67000
 H4_161  H 1.0  0.37960000(0)  0.34360000(0)  0.80130000(0)  0.67000
 H4_162  H 1.0  0.37960000(0)  0.84360000(0)  0.30130000(0)  0.67000
 H4_163  H 1.0  0.84360000(0)  0.30130000(0)  0.37960000(0)  0.67000
 H4_164  H 1.0  0.34360000(0)  0.30130000(0)  0.87960000(0)  0.67000
 H4_165  H 1.0  0.34360000(0)  0.80130000(0)  0.37960000(0)  0.67000
 H4_166  H 1.0  0.80130000(0)  0.37960000(0)  0.65640000(0)  0.67000
 H4_167  H 1.0  0.30130000(0)  0.37960000(0)  0.15640000(0)  0.67000
 H4_168  H 1.0  0.30130000(0)  0.87960000(0)  0.65640000(0)  0.67000
 H4_169  H 1.0  0.87960000(0)  0.34360000(0)  0.69870000(0)  0.67000
 H4_170  H 1.0  0.37960000(0)  0.34360000(0)  0.19870000(0)  0.67000
 H4_171  H 1.0  0.37960000(0)  0.84360000(0)  0.69870000(0)  0.67000
 H4_172  H 1.0  0.84360000(0)  0.30130000(0)  0.62040000(0)  0.67000
 H4_173  H 1.0  0.34360000(0)  0.30130000(0)  0.12040000(0)  0.67000
 H4_174  H 1.0  0.34360000(0)  0.80130000(0)  0.62040000(0)  0.67000
 H4_175  H 1.0  0.80130000(0)  0.62040000(0)  0.34360000(0)  0.67000
 H4_176  H 1.0  0.30130000(0)  0.62040000(0)  0.84360000(0)  0.67000
 H4_177  H 1.0  0.30130000(0)  0.12040000(0)  0.34360000(0)  0.67000
 H4_178  H 1.0  0.87960000(0)  0.65640000(0)  0.30130000(0)  0.67000
 H4_179  H 1.0  0.37960000(0)  0.65640000(0)  0.80130000(0)  0.67000
 H4_180  H 1.0  0.37960000(0)  0.15640000(0)  0.30130000(0)  0.67000
 H4_181  H 1.0  0.84360000(0)  0.69870000(0)  0.37960000(0)  0.67000
 H4_182  H 1.0  0.34360000(0)  0.69870000(0)  0.87960000(0)  0.67000
 H4_183  H 1.0  0.34360000(0)  0.19870000(0)  0.37960000(0)  0.67000
 H4_184  H 1.0  0.80130000(0)  0.62040000(0)  0.65640000(0)  0.67000
 H4_185  H 1.0  0.30130000(0)  0.62040000(0)  0.15640000(0)  0.67000
 H4_186  H 1.0  0.30130000(0)  0.12040000(0)  0.65640000(0)  0.67000
 H4_187  H 1.0  0.87960000(0)  0.65640000(0)  0.69870000(0)  0.67000
 H4_188  H 1.0  0.37960000(0)  0.65640000(0)  0.19870000(0)  0.67000
 H4_189  H 1.0  0.37960000(0)  0.15640000(0)  0.69870000(0)  0.67000
 H4_190  H 1.0  0.84360000(0)  0.69870000(0)  0.62040000(0)  0.67000
 H4_191  H 1.0  0.34360000(0)  0.69870000(0)  0.12040000(0)  0.67000
 H4_192  H 1.0  0.34360000(0)  0.19870000(0)  0.62040000(0)  0.67000
 H5_2  H 1.0  0.17190000(0)  0.09350000(0)  0.21420000(0)  0.64700
 H5_3  H 1.0  0.21420000(0)  0.17190000(0)  0.09350000(0)  0.64700
 H5_4  H 1.0  0.09350000(0)  0.21420000(0)  0.82810000(0)  0.64700
 H5_5  H 1.0  0.17190000(0)  0.09350000(0)  0.78580000(0)  0.64700
 H5_6  H 1.0  0.21420000(0)  0.17190000(0)  0.90650000(0)  0.64700
 H5_7  H 1.0  0.90650000(0)  0.21420000(0)  0.17190000(0)  0.64700
 H5_8  H 1.0  0.82810000(0)  0.09350000(0)  0.21420000(0)  0.64700
 H5_9  H 1.0  0.78580000(0)  0.17190000(0)  0.09350000(0)  0.64700
 H5_10  H 1.0  0.90650000(0)  0.21420000(0)  0.82810000(0)  0.64700
 H5_11  H 1.0  0.82810000(0)  0.09350000(0)  0.78580000(0)  0.64700
 H5_12  H 1.0  0.78580000(0)  0.17190000(0)  0.90650000(0)  0.64700
 H5_13  H 1.0  0.21420000(0)  0.09350000(0)  0.17190000(0)  0.64700
 H5_14  H 1.0  0.09350000(0)  0.17190000(0)  0.21420000(0)  0.64700
 H5_15  H 1.0  0.17190000(0)  0.21420000(0)  0.09350000(0)  0.64700
 H5_16  H 1.0  0.21420000(0)  0.09350000(0)  0.82810000(0)  0.64700
 H5_17  H 1.0  0.09350000(0)  0.17190000(0)  0.78580000(0)  0.64700
 H5_18  H 1.0  0.17190000(0)  0.21420000(0)  0.90650000(0)  0.64700
 H5_19  H 1.0  0.21420000(0)  0.90650000(0)  0.17190000(0)  0.64700
 H5_20  H 1.0  0.09350000(0)  0.82810000(0)  0.21420000(0)  0.64700
 H5_21  H 1.0  0.17190000(0)  0.78580000(0)  0.09350000(0)  0.64700
 H5_22  H 1.0  0.21420000(0)  0.90650000(0)  0.82810000(0)  0.64700
 H5_23  H 1.0  0.09350000(0)  0.82810000(0)  0.78580000(0)  0.64700
 H5_24  H 1.0  0.17190000(0)  0.78580000(0)  0.90650000(0)  0.64700
 H5_25  H 1.0  0.90650000(0)  0.78580000(0)  0.82810000(0)  0.64700
 H5_26  H 1.0  0.82810000(0)  0.90650000(0)  0.78580000(0)  0.64700
 H5_27  H 1.0  0.78580000(0)  0.82810000(0)  0.90650000(0)  0.64700
 H5_28  H 1.0  0.90650000(0)  0.78580000(0)  0.17190000(0)  0.64700
 H5_29  H 1.0  0.82810000(0)  0.90650000(0)  0.21420000(0)  0.64700
 H5_30  H 1.0  0.78580000(0)  0.82810000(0)  0.09350000(0)  0.64700
 H5_31  H 1.0  0.09350000(0)  0.78580000(0)  0.82810000(0)  0.64700
 H5_32  H 1.0  0.17190000(0)  0.90650000(0)  0.78580000(0)  0.64700
 H5_33  H 1.0  0.21420000(0)  0.82810000(0)  0.90650000(0)  0.64700
 H5_34  H 1.0  0.09350000(0)  0.78580000(0)  0.17190000(0)  0.64700
 H5_35  H 1.0  0.17190000(0)  0.90650000(0)  0.21420000(0)  0.64700
 H5_36  H 1.0  0.21420000(0)  0.82810000(0)  0.09350000(0)  0.64700
 H5_37  H 1.0  0.78580000(0)  0.90650000(0)  0.82810000(0)  0.64700
 H5_38  H 1.0  0.90650000(0)  0.82810000(0)  0.78580000(0)  0.64700
 H5_39  H 1.0  0.82810000(0)  0.78580000(0)  0.90650000(0)  0.64700
 H5_40  H 1.0  0.78580000(0)  0.90650000(0)  0.17190000(0)  0.64700
 H5_41  H 1.0  0.90650000(0)  0.82810000(0)  0.21420000(0)  0.64700
 H5_42  H 1.0  0.82810000(0)  0.78580000(0)  0.09350000(0)  0.64700
 H5_43  H 1.0  0.78580000(0)  0.09350000(0)  0.82810000(0)  0.64700
 H5_44  H 1.0  0.90650000(0)  0.17190000(0)  0.78580000(0)  0.64700
 H5_45  H 1.0  0.82810000(0)  0.21420000(0)  0.90650000(0)  0.64700
 H5_46  H 1.0  0.78580000(0)  0.09350000(0)  0.17190000(0)  0.64700
 H5_47  H 1.0  0.90650000(0)  0.17190000(0)  0.21420000(0)  0.64700
 H5_48  H 1.0  0.82810000(0)  0.21420000(0)  0.09350000(0)  0.64700
 H5_49  H 1.0  0.09350000(0)  0.71420000(0)  0.67190000(0)  0.64700
 H5_50  H 1.0  0.59350000(0)  0.71420000(0)  0.17190000(0)  0.64700
 H5_51  H 1.0  0.59350000(0)  0.21420000(0)  0.67190000(0)  0.64700
 H5_52  H 1.0  0.17190000(0)  0.59350000(0)  0.71420000(0)  0.64700
 H5_53  H 1.0  0.67190000(0)  0.59350000(0)  0.21420000(0)  0.64700
 H5_54  H 1.0  0.67190000(0)  0.09350000(0)  0.71420000(0)  0.64700
 H5_55  H 1.0  0.21420000(0)  0.67190000(0)  0.59350000(0)  0.64700
 H5_56  H 1.0  0.71420000(0)  0.67190000(0)  0.09350000(0)  0.64700
 H5_57  H 1.0  0.71420000(0)  0.17190000(0)  0.59350000(0)  0.64700
 H5_58  H 1.0  0.09350000(0)  0.71420000(0)  0.32810000(0)  0.64700
 H5_59  H 1.0  0.59350000(0)  0.71420000(0)  0.82810000(0)  0.64700
 H5_60  H 1.0  0.59350000(0)  0.21420000(0)  0.32810000(0)  0.64700
 H5_61  H 1.0  0.17190000(0)  0.59350000(0)  0.28580000(0)  0.64700
 H5_62  H 1.0  0.67190000(0)  0.59350000(0)  0.78580000(0)  0.64700
 H5_63  H 1.0  0.67190000(0)  0.09350000(0)  0.28580000(0)  0.64700
 H5_64  H 1.0  0.21420000(0)  0.67190000(0)  0.40650000(0)  0.64700
 H5_65  H 1.0  0.71420000(0)  0.67190000(0)  0.90650000(0)  0.64700
 H5_66  H 1.0  0.71420000(0)  0.17190000(0)  0.40650000(0)  0.64700
 H5_67  H 1.0  0.90650000(0)  0.71420000(0)  0.67190000(0)  0.64700
 H5_68  H 1.0  0.40650000(0)  0.71420000(0)  0.17190000(0)  0.64700
 H5_69  H 1.0  0.40650000(0)  0.21420000(0)  0.67190000(0)  0.64700
 H5_70  H 1.0  0.82810000(0)  0.59350000(0)  0.71420000(0)  0.64700
 H5_71  H 1.0  0.32810000(0)  0.59350000(0)  0.21420000(0)  0.64700
 H5_72  H 1.0  0.32810000(0)  0.09350000(0)  0.71420000(0)  0.64700
 H5_73  H 1.0  0.78580000(0)  0.67190000(0)  0.59350000(0)  0.64700
 H5_74  H 1.0  0.28580000(0)  0.67190000(0)  0.09350000(0)  0.64700
 H5_75  H 1.0  0.28580000(0)  0.17190000(0)  0.59350000(0)  0.64700
 H5_76  H 1.0  0.90650000(0)  0.71420000(0)  0.32810000(0)  0.64700
 H5_77  H 1.0  0.40650000(0)  0.71420000(0)  0.82810000(0)  0.64700
 H5_78  H 1.0  0.40650000(0)  0.21420000(0)  0.32810000(0)  0.64700
 H5_79  H 1.0  0.82810000(0)  0.59350000(0)  0.28580000(0)  0.64700
 H5_80  H 1.0  0.32810000(0)  0.59350000(0)  0.78580000(0)  0.64700
 H5_81  H 1.0  0.32810000(0)  0.09350000(0)  0.28580000(0)  0.64700
 H5_82  H 1.0  0.78580000(0)  0.67190000(0)  0.40650000(0)  0.64700
 H5_83  H 1.0  0.28580000(0)  0.67190000(0)  0.90650000(0)  0.64700
 H5_84  H 1.0  0.28580000(0)  0.17190000(0)  0.40650000(0)  0.64700
 H5_85  H 1.0  0.21420000(0)  0.59350000(0)  0.67190000(0)  0.64700
 H5_86  H 1.0  0.71420000(0)  0.59350000(0)  0.17190000(0)  0.64700
 H5_87  H 1.0  0.71420000(0)  0.09350000(0)  0.67190000(0)  0.64700
 H5_88  H 1.0  0.09350000(0)  0.67190000(0)  0.71420000(0)  0.64700
 H5_89  H 1.0  0.59350000(0)  0.67190000(0)  0.21420000(0)  0.64700
 H5_90  H 1.0  0.59350000(0)  0.17190000(0)  0.71420000(0)  0.64700
 H5_91  H 1.0  0.17190000(0)  0.71420000(0)  0.59350000(0)  0.64700
 H5_92  H 1.0  0.67190000(0)  0.71420000(0)  0.09350000(0)  0.64700
 H5_93  H 1.0  0.67190000(0)  0.21420000(0)  0.59350000(0)  0.64700
 H5_94  H 1.0  0.21420000(0)  0.59350000(0)  0.32810000(0)  0.64700
 H5_95  H 1.0  0.71420000(0)  0.59350000(0)  0.82810000(0)  0.64700
 H5_96  H 1.0  0.71420000(0)  0.09350000(0)  0.32810000(0)  0.64700
 H5_97  H 1.0  0.09350000(0)  0.67190000(0)  0.28580000(0)  0.64700
 H5_98  H 1.0  0.59350000(0)  0.67190000(0)  0.78580000(0)  0.64700
 H5_99  H 1.0  0.59350000(0)  0.17190000(0)  0.28580000(0)  0.64700
 H5_100  H 1.0  0.17190000(0)  0.71420000(0)  0.40650000(0)  0.64700
 H5_101  H 1.0  0.67190000(0)  0.71420000(0)  0.90650000(0)  0.64700
 H5_102  H 1.0  0.67190000(0)  0.21420000(0)  0.40650000(0)  0.64700
 H5_103  H 1.0  0.21420000(0)  0.40650000(0)  0.67190000(0)  0.64700
 H5_104  H 1.0  0.71420000(0)  0.40650000(0)  0.17190000(0)  0.64700
 H5_105  H 1.0  0.71420000(0)  0.90650000(0)  0.67190000(0)  0.64700
 H5_106  H 1.0  0.09350000(0)  0.32810000(0)  0.71420000(0)  0.64700
 H5_107  H 1.0  0.59350000(0)  0.32810000(0)  0.21420000(0)  0.64700
 H5_108  H 1.0  0.59350000(0)  0.82810000(0)  0.71420000(0)  0.64700
 H5_109  H 1.0  0.17190000(0)  0.28580000(0)  0.59350000(0)  0.64700
 H5_110  H 1.0  0.67190000(0)  0.28580000(0)  0.09350000(0)  0.64700
 H5_111  H 1.0  0.67190000(0)  0.78580000(0)  0.59350000(0)  0.64700
 H5_112  H 1.0  0.21420000(0)  0.40650000(0)  0.32810000(0)  0.64700
 H5_113  H 1.0  0.71420000(0)  0.40650000(0)  0.82810000(0)  0.64700
 H5_114  H 1.0  0.71420000(0)  0.90650000(0)  0.32810000(0)  0.64700
 H5_115  H 1.0  0.09350000(0)  0.32810000(0)  0.28580000(0)  0.64700
 H5_116  H 1.0  0.59350000(0)  0.32810000(0)  0.78580000(0)  0.64700
 H5_117  H 1.0  0.59350000(0)  0.82810000(0)  0.28580000(0)  0.64700
 H5_118  H 1.0  0.17190000(0)  0.28580000(0)  0.40650000(0)  0.64700
 H5_119  H 1.0  0.67190000(0)  0.28580000(0)  0.90650000(0)  0.64700
 H5_120  H 1.0  0.67190000(0)  0.78580000(0)  0.40650000(0)  0.64700
 H5_121  H 1.0  0.90650000(0)  0.28580000(0)  0.32810000(0)  0.64700
 H5_122  H 1.0  0.40650000(0)  0.28580000(0)  0.82810000(0)  0.64700
 H5_123  H 1.0  0.40650000(0)  0.78580000(0)  0.32810000(0)  0.64700
 H5_124  H 1.0  0.82810000(0)  0.40650000(0)  0.28580000(0)  0.64700
 H5_125  H 1.0  0.32810000(0)  0.40650000(0)  0.78580000(0)  0.64700
 H5_126  H 1.0  0.32810000(0)  0.90650000(0)  0.28580000(0)  0.64700
 H5_127  H 1.0  0.78580000(0)  0.32810000(0)  0.40650000(0)  0.64700
 H5_128  H 1.0  0.28580000(0)  0.32810000(0)  0.90650000(0)  0.64700
 H5_129  H 1.0  0.28580000(0)  0.82810000(0)  0.40650000(0)  0.64700
 H5_130  H 1.0  0.90650000(0)  0.28580000(0)  0.67190000(0)  0.64700
 H5_131  H 1.0  0.40650000(0)  0.28580000(0)  0.17190000(0)  0.64700
 H5_132  H 1.0  0.40650000(0)  0.78580000(0)  0.67190000(0)  0.64700
 H5_133  H 1.0  0.82810000(0)  0.40650000(0)  0.71420000(0)  0.64700
 H5_134  H 1.0  0.32810000(0)  0.40650000(0)  0.21420000(0)  0.64700
 H5_135  H 1.0  0.32810000(0)  0.90650000(0)  0.71420000(0)  0.64700
 H5_136  H 1.0  0.78580000(0)  0.32810000(0)  0.59350000(0)  0.64700
 H5_137  H 1.0  0.28580000(0)  0.32810000(0)  0.09350000(0)  0.64700
 H5_138  H 1.0  0.28580000(0)  0.82810000(0)  0.59350000(0)  0.64700
 H5_139  H 1.0  0.09350000(0)  0.28580000(0)  0.32810000(0)  0.64700
 H5_140  H 1.0  0.59350000(0)  0.28580000(0)  0.82810000(0)  0.64700
 H5_141  H 1.0  0.59350000(0)  0.78580000(0)  0.32810000(0)  0.64700
 H5_142  H 1.0  0.17190000(0)  0.40650000(0)  0.28580000(0)  0.64700
 H5_143  H 1.0  0.67190000(0)  0.40650000(0)  0.78580000(0)  0.64700
 H5_144  H 1.0  0.67190000(0)  0.90650000(0)  0.28580000(0)  0.64700
 H5_145  H 1.0  0.21420000(0)  0.32810000(0)  0.40650000(0)  0.64700
 H5_146  H 1.0  0.71420000(0)  0.32810000(0)  0.90650000(0)  0.64700
 H5_147  H 1.0  0.71420000(0)  0.82810000(0)  0.40650000(0)  0.64700
 H5_148  H 1.0  0.09350000(0)  0.28580000(0)  0.67190000(0)  0.64700
 H5_149  H 1.0  0.59350000(0)  0.28580000(0)  0.17190000(0)  0.64700
 H5_150  H 1.0  0.59350000(0)  0.78580000(0)  0.67190000(0)  0.64700
 H5_151  H 1.0  0.17190000(0)  0.40650000(0)  0.71420000(0)  0.64700
 H5_152  H 1.0  0.67190000(0)  0.40650000(0)  0.21420000(0)  0.64700
 H5_153  H 1.0  0.67190000(0)  0.90650000(0)  0.71420000(0)  0.64700
 H5_154  H 1.0  0.21420000(0)  0.32810000(0)  0.59350000(0)  0.64700
 H5_155  H 1.0  0.71420000(0)  0.32810000(0)  0.09350000(0)  0.64700
 H5_156  H 1.0  0.71420000(0)  0.82810000(0)  0.59350000(0)  0.64700
 H5_157  H 1.0  0.78580000(0)  0.40650000(0)  0.32810000(0)  0.64700
 H5_158  H 1.0  0.28580000(0)  0.40650000(0)  0.82810000(0)  0.64700
 H5_159  H 1.0  0.28580000(0)  0.90650000(0)  0.32810000(0)  0.64700
 H5_160  H 1.0  0.90650000(0)  0.32810000(0)  0.28580000(0)  0.64700
 H5_161  H 1.0  0.40650000(0)  0.32810000(0)  0.78580000(0)  0.64700
 H5_162  H 1.0  0.40650000(0)  0.82810000(0)  0.28580000(0)  0.64700
 H5_163  H 1.0  0.82810000(0)  0.28580000(0)  0.40650000(0)  0.64700
 H5_164  H 1.0  0.32810000(0)  0.28580000(0)  0.90650000(0)  0.64700
 H5_165  H 1.0  0.32810000(0)  0.78580000(0)  0.40650000(0)  0.64700
 H5_166  H 1.0  0.78580000(0)  0.40650000(0)  0.67190000(0)  0.64700
 H5_167  H 1.0  0.28580000(0)  0.40650000(0)  0.17190000(0)  0.64700
 H5_168  H 1.0  0.28580000(0)  0.90650000(0)  0.67190000(0)  0.64700
 H5_169  H 1.0  0.90650000(0)  0.32810000(0)  0.71420000(0)  0.64700
 H5_170  H 1.0  0.40650000(0)  0.32810000(0)  0.21420000(0)  0.64700
 H5_171  H 1.0  0.40650000(0)  0.82810000(0)  0.71420000(0)  0.64700
 H5_172  H 1.0  0.82810000(0)  0.28580000(0)  0.59350000(0)  0.64700
 H5_173  H 1.0  0.32810000(0)  0.28580000(0)  0.09350000(0)  0.64700
 H5_174  H 1.0  0.32810000(0)  0.78580000(0)  0.59350000(0)  0.64700
 H5_175  H 1.0  0.78580000(0)  0.59350000(0)  0.32810000(0)  0.64700
 H5_176  H 1.0  0.28580000(0)  0.59350000(0)  0.82810000(0)  0.64700
 H5_177  H 1.0  0.28580000(0)  0.09350000(0)  0.32810000(0)  0.64700
 H5_178  H 1.0  0.90650000(0)  0.67190000(0)  0.28580000(0)  0.64700
 H5_179  H 1.0  0.40650000(0)  0.67190000(0)  0.78580000(0)  0.64700
 H5_180  H 1.0  0.40650000(0)  0.17190000(0)  0.28580000(0)  0.64700
 H5_181  H 1.0  0.82810000(0)  0.71420000(0)  0.40650000(0)  0.64700
 H5_182  H 1.0  0.32810000(0)  0.71420000(0)  0.90650000(0)  0.64700
 H5_183  H 1.0  0.32810000(0)  0.21420000(0)  0.40650000(0)  0.64700
 H5_184  H 1.0  0.78580000(0)  0.59350000(0)  0.67190000(0)  0.64700
 H5_185  H 1.0  0.28580000(0)  0.59350000(0)  0.17190000(0)  0.64700
 H5_186  H 1.0  0.28580000(0)  0.09350000(0)  0.67190000(0)  0.64700
 H5_187  H 1.0  0.90650000(0)  0.67190000(0)  0.71420000(0)  0.64700
 H5_188  H 1.0  0.40650000(0)  0.67190000(0)  0.21420000(0)  0.64700
 H5_189  H 1.0  0.40650000(0)  0.17190000(0)  0.71420000(0)  0.64700
 H5_190  H 1.0  0.82810000(0)  0.71420000(0)  0.59350000(0)  0.64700
 H5_191  H 1.0  0.32810000(0)  0.71420000(0)  0.09350000(0)  0.64700
 H5_192  H 1.0  0.32810000(0)  0.21420000(0)  0.59350000(0)  0.64700
 H8_2  H 1.0  0.18230000(0)  0.06980000(0)  0.22480000(0)  0.40400
 H8_3  H 1.0  0.22480000(0)  0.18230000(0)  0.06980000(0)  0.40400
 H8_4  H 1.0  0.06980000(0)  0.22480000(0)  0.81770000(0)  0.40400
 H8_5  H 1.0  0.18230000(0)  0.06980000(0)  0.77520000(0)  0.40400
 H8_6  H 1.0  0.22480000(0)  0.18230000(0)  0.93020000(0)  0.40400
 H8_7  H 1.0  0.93020000(0)  0.22480000(0)  0.18230000(0)  0.40400
 H8_8  H 1.0  0.81770000(0)  0.06980000(0)  0.22480000(0)  0.40400
 H8_9  H 1.0  0.77520000(0)  0.18230000(0)  0.06980000(0)  0.40400
 H8_10  H 1.0  0.93020000(0)  0.22480000(0)  0.81770000(0)  0.40400
 H8_11  H 1.0  0.81770000(0)  0.06980000(0)  0.77520000(0)  0.40400
 H8_12  H 1.0  0.77520000(0)  0.18230000(0)  0.93020000(0)  0.40400
 H8_13  H 1.0  0.22480000(0)  0.06980000(0)  0.18230000(0)  0.40400
 H8_14  H 1.0  0.06980000(0)  0.18230000(0)  0.22480000(0)  0.40400
 H8_15  H 1.0  0.18230000(0)  0.22480000(0)  0.06980000(0)  0.40400
 H8_16  H 1.0  0.22480000(0)  0.06980000(0)  0.81770000(0)  0.40400
 H8_17  H 1.0  0.06980000(0)  0.18230000(0)  0.77520000(0)  0.40400
 H8_18  H 1.0  0.18230000(0)  0.22480000(0)  0.93020000(0)  0.40400
 H8_19  H 1.0  0.22480000(0)  0.93020000(0)  0.18230000(0)  0.40400
 H8_20  H 1.0  0.06980000(0)  0.81770000(0)  0.22480000(0)  0.40400
 H8_21  H 1.0  0.18230000(0)  0.77520000(0)  0.06980000(0)  0.40400
 H8_22  H 1.0  0.22480000(0)  0.93020000(0)  0.81770000(0)  0.40400
 H8_23  H 1.0  0.06980000(0)  0.81770000(0)  0.77520000(0)  0.40400
 H8_24  H 1.0  0.18230000(0)  0.77520000(0)  0.93020000(0)  0.40400
 H8_25  H 1.0  0.93020000(0)  0.77520000(0)  0.81770000(0)  0.40400
 H8_26  H 1.0  0.81770000(0)  0.93020000(0)  0.77520000(0)  0.40400
 H8_27  H 1.0  0.77520000(0)  0.81770000(0)  0.93020000(0)  0.40400
 H8_28  H 1.0  0.93020000(0)  0.77520000(0)  0.18230000(0)  0.40400
 H8_29  H 1.0  0.81770000(0)  0.93020000(0)  0.22480000(0)  0.40400
 H8_30  H 1.0  0.77520000(0)  0.81770000(0)  0.06980000(0)  0.40400
 H8_31  H 1.0  0.06980000(0)  0.77520000(0)  0.81770000(0)  0.40400
 H8_32  H 1.0  0.18230000(0)  0.93020000(0)  0.77520000(0)  0.40400
 H8_33  H 1.0  0.22480000(0)  0.81770000(0)  0.93020000(0)  0.40400
 H8_34  H 1.0  0.06980000(0)  0.77520000(0)  0.18230000(0)  0.40400
 H8_35  H 1.0  0.18230000(0)  0.93020000(0)  0.22480000(0)  0.40400
 H8_36  H 1.0  0.22480000(0)  0.81770000(0)  0.06980000(0)  0.40400
 H8_37  H 1.0  0.77520000(0)  0.93020000(0)  0.81770000(0)  0.40400
 H8_38  H 1.0  0.93020000(0)  0.81770000(0)  0.77520000(0)  0.40400
 H8_39  H 1.0  0.81770000(0)  0.77520000(0)  0.93020000(0)  0.40400
 H8_40  H 1.0  0.77520000(0)  0.93020000(0)  0.18230000(0)  0.40400
 H8_41  H 1.0  0.93020000(0)  0.81770000(0)  0.22480000(0)  0.40400
 H8_42  H 1.0  0.81770000(0)  0.77520000(0)  0.06980000(0)  0.40400
 H8_43  H 1.0  0.77520000(0)  0.06980000(0)  0.81770000(0)  0.40400
 H8_44  H 1.0  0.93020000(0)  0.18230000(0)  0.77520000(0)  0.40400
 H8_45  H 1.0  0.81770000(0)  0.22480000(0)  0.93020000(0)  0.40400
 H8_46  H 1.0  0.77520000(0)  0.06980000(0)  0.18230000(0)  0.40400
 H8_47  H 1.0  0.93020000(0)  0.18230000(0)  0.22480000(0)  0.40400
 H8_48  H 1.0  0.81770000(0)  0.22480000(0)  0.06980000(0)  0.40400
 H8_49  H 1.0  0.06980000(0)  0.72480000(0)  0.68230000(0)  0.40400
 H8_50  H 1.0  0.56980000(0)  0.72480000(0)  0.18230000(0)  0.40400
 H8_51  H 1.0  0.56980000(0)  0.22480000(0)  0.68230000(0)  0.40400
 H8_52  H 1.0  0.18230000(0)  0.56980000(0)  0.72480000(0)  0.40400
 H8_53  H 1.0  0.68230000(0)  0.56980000(0)  0.22480000(0)  0.40400
 H8_54  H 1.0  0.68230000(0)  0.06980000(0)  0.72480000(0)  0.40400
 H8_55  H 1.0  0.22480000(0)  0.68230000(0)  0.56980000(0)  0.40400
 H8_56  H 1.0  0.72480000(0)  0.68230000(0)  0.06980000(0)  0.40400
 H8_57  H 1.0  0.72480000(0)  0.18230000(0)  0.56980000(0)  0.40400
 H8_58  H 1.0  0.06980000(0)  0.72480000(0)  0.31770000(0)  0.40400
 H8_59  H 1.0  0.56980000(0)  0.72480000(0)  0.81770000(0)  0.40400
 H8_60  H 1.0  0.56980000(0)  0.22480000(0)  0.31770000(0)  0.40400
 H8_61  H 1.0  0.18230000(0)  0.56980000(0)  0.27520000(0)  0.40400
 H8_62  H 1.0  0.68230000(0)  0.56980000(0)  0.77520000(0)  0.40400
 H8_63  H 1.0  0.68230000(0)  0.06980000(0)  0.27520000(0)  0.40400
 H8_64  H 1.0  0.22480000(0)  0.68230000(0)  0.43020000(0)  0.40400
 H8_65  H 1.0  0.72480000(0)  0.68230000(0)  0.93020000(0)  0.40400
 H8_66  H 1.0  0.72480000(0)  0.18230000(0)  0.43020000(0)  0.40400
 H8_67  H 1.0  0.93020000(0)  0.72480000(0)  0.68230000(0)  0.40400
 H8_68  H 1.0  0.43020000(0)  0.72480000(0)  0.18230000(0)  0.40400
 H8_69  H 1.0  0.43020000(0)  0.22480000(0)  0.68230000(0)  0.40400
 H8_70  H 1.0  0.81770000(0)  0.56980000(0)  0.72480000(0)  0.40400
 H8_71  H 1.0  0.31770000(0)  0.56980000(0)  0.22480000(0)  0.40400
 H8_72  H 1.0  0.31770000(0)  0.06980000(0)  0.72480000(0)  0.40400
 H8_73  H 1.0  0.77520000(0)  0.68230000(0)  0.56980000(0)  0.40400
 H8_74  H 1.0  0.27520000(0)  0.68230000(0)  0.06980000(0)  0.40400
 H8_75  H 1.0  0.27520000(0)  0.18230000(0)  0.56980000(0)  0.40400
 H8_76  H 1.0  0.93020000(0)  0.72480000(0)  0.31770000(0)  0.40400
 H8_77  H 1.0  0.43020000(0)  0.72480000(0)  0.81770000(0)  0.40400
 H8_78  H 1.0  0.43020000(0)  0.22480000(0)  0.31770000(0)  0.40400
 H8_79  H 1.0  0.81770000(0)  0.56980000(0)  0.27520000(0)  0.40400
 H8_80  H 1.0  0.31770000(0)  0.56980000(0)  0.77520000(0)  0.40400
 H8_81  H 1.0  0.31770000(0)  0.06980000(0)  0.27520000(0)  0.40400
 H8_82  H 1.0  0.77520000(0)  0.68230000(0)  0.43020000(0)  0.40400
 H8_83  H 1.0  0.27520000(0)  0.68230000(0)  0.93020000(0)  0.40400
 H8_84  H 1.0  0.27520000(0)  0.18230000(0)  0.43020000(0)  0.40400
 H8_85  H 1.0  0.22480000(0)  0.56980000(0)  0.68230000(0)  0.40400
 H8_86  H 1.0  0.72480000(0)  0.56980000(0)  0.18230000(0)  0.40400
 H8_87  H 1.0  0.72480000(0)  0.06980000(0)  0.68230000(0)  0.40400
 H8_88  H 1.0  0.06980000(0)  0.68230000(0)  0.72480000(0)  0.40400
 H8_89  H 1.0  0.56980000(0)  0.68230000(0)  0.22480000(0)  0.40400
 H8_90  H 1.0  0.56980000(0)  0.18230000(0)  0.72480000(0)  0.40400
 H8_91  H 1.0  0.18230000(0)  0.72480000(0)  0.56980000(0)  0.40400
 H8_92  H 1.0  0.68230000(0)  0.72480000(0)  0.06980000(0)  0.40400
 H8_93  H 1.0  0.68230000(0)  0.22480000(0)  0.56980000(0)  0.40400
 H8_94  H 1.0  0.22480000(0)  0.56980000(0)  0.31770000(0)  0.40400
 H8_95  H 1.0  0.72480000(0)  0.56980000(0)  0.81770000(0)  0.40400
 H8_96  H 1.0  0.72480000(0)  0.06980000(0)  0.31770000(0)  0.40400
 H8_97  H 1.0  0.06980000(0)  0.68230000(0)  0.27520000(0)  0.40400
 H8_98  H 1.0  0.56980000(0)  0.68230000(0)  0.77520000(0)  0.40400
 H8_99  H 1.0  0.56980000(0)  0.18230000(0)  0.27520000(0)  0.40400
 H8_100  H 1.0  0.18230000(0)  0.72480000(0)  0.43020000(0)  0.40400
 H8_101  H 1.0  0.68230000(0)  0.72480000(0)  0.93020000(0)  0.40400
 H8_102  H 1.0  0.68230000(0)  0.22480000(0)  0.43020000(0)  0.40400
 H8_103  H 1.0  0.22480000(0)  0.43020000(0)  0.68230000(0)  0.40400
 H8_104  H 1.0  0.72480000(0)  0.43020000(0)  0.18230000(0)  0.40400
 H8_105  H 1.0  0.72480000(0)  0.93020000(0)  0.68230000(0)  0.40400
 H8_106  H 1.0  0.06980000(0)  0.31770000(0)  0.72480000(0)  0.40400
 H8_107  H 1.0  0.56980000(0)  0.31770000(0)  0.22480000(0)  0.40400
 H8_108  H 1.0  0.56980000(0)  0.81770000(0)  0.72480000(0)  0.40400
 H8_109  H 1.0  0.18230000(0)  0.27520000(0)  0.56980000(0)  0.40400
 H8_110  H 1.0  0.68230000(0)  0.27520000(0)  0.06980000(0)  0.40400
 H8_111  H 1.0  0.68230000(0)  0.77520000(0)  0.56980000(0)  0.40400
 H8_112  H 1.0  0.22480000(0)  0.43020000(0)  0.31770000(0)  0.40400
 H8_113  H 1.0  0.72480000(0)  0.43020000(0)  0.81770000(0)  0.40400
 H8_114  H 1.0  0.72480000(0)  0.93020000(0)  0.31770000(0)  0.40400
 H8_115  H 1.0  0.06980000(0)  0.31770000(0)  0.27520000(0)  0.40400
 H8_116  H 1.0  0.56980000(0)  0.31770000(0)  0.77520000(0)  0.40400
 H8_117  H 1.0  0.56980000(0)  0.81770000(0)  0.27520000(0)  0.40400
 H8_118  H 1.0  0.18230000(0)  0.27520000(0)  0.43020000(0)  0.40400
 H8_119  H 1.0  0.68230000(0)  0.27520000(0)  0.93020000(0)  0.40400
 H8_120  H 1.0  0.68230000(0)  0.77520000(0)  0.43020000(0)  0.40400
 H8_121  H 1.0  0.93020000(0)  0.27520000(0)  0.31770000(0)  0.40400
 H8_122  H 1.0  0.43020000(0)  0.27520000(0)  0.81770000(0)  0.40400
 H8_123  H 1.0  0.43020000(0)  0.77520000(0)  0.31770000(0)  0.40400
 H8_124  H 1.0  0.81770000(0)  0.43020000(0)  0.27520000(0)  0.40400
 H8_125  H 1.0  0.31770000(0)  0.43020000(0)  0.77520000(0)  0.40400
 H8_126  H 1.0  0.31770000(0)  0.93020000(0)  0.27520000(0)  0.40400
 H8_127  H 1.0  0.77520000(0)  0.31770000(0)  0.43020000(0)  0.40400
 H8_128  H 1.0  0.27520000(0)  0.31770000(0)  0.93020000(0)  0.40400
 H8_129  H 1.0  0.27520000(0)  0.81770000(0)  0.43020000(0)  0.40400
 H8_130  H 1.0  0.93020000(0)  0.27520000(0)  0.68230000(0)  0.40400
 H8_131  H 1.0  0.43020000(0)  0.27520000(0)  0.18230000(0)  0.40400
 H8_132  H 1.0  0.43020000(0)  0.77520000(0)  0.68230000(0)  0.40400
 H8_133  H 1.0  0.81770000(0)  0.43020000(0)  0.72480000(0)  0.40400
 H8_134  H 1.0  0.31770000(0)  0.43020000(0)  0.22480000(0)  0.40400
 H8_135  H 1.0  0.31770000(0)  0.93020000(0)  0.72480000(0)  0.40400
 H8_136  H 1.0  0.77520000(0)  0.31770000(0)  0.56980000(0)  0.40400
 H8_137  H 1.0  0.27520000(0)  0.31770000(0)  0.06980000(0)  0.40400
 H8_138  H 1.0  0.27520000(0)  0.81770000(0)  0.56980000(0)  0.40400
 H8_139  H 1.0  0.06980000(0)  0.27520000(0)  0.31770000(0)  0.40400
 H8_140  H 1.0  0.56980000(0)  0.27520000(0)  0.81770000(0)  0.40400
 H8_141  H 1.0  0.56980000(0)  0.77520000(0)  0.31770000(0)  0.40400
 H8_142  H 1.0  0.18230000(0)  0.43020000(0)  0.27520000(0)  0.40400
 H8_143  H 1.0  0.68230000(0)  0.43020000(0)  0.77520000(0)  0.40400
 H8_144  H 1.0  0.68230000(0)  0.93020000(0)  0.27520000(0)  0.40400
 H8_145  H 1.0  0.22480000(0)  0.31770000(0)  0.43020000(0)  0.40400
 H8_146  H 1.0  0.72480000(0)  0.31770000(0)  0.93020000(0)  0.40400
 H8_147  H 1.0  0.72480000(0)  0.81770000(0)  0.43020000(0)  0.40400
 H8_148  H 1.0  0.06980000(0)  0.27520000(0)  0.68230000(0)  0.40400
 H8_149  H 1.0  0.56980000(0)  0.27520000(0)  0.18230000(0)  0.40400
 H8_150  H 1.0  0.56980000(0)  0.77520000(0)  0.68230000(0)  0.40400
 H8_151  H 1.0  0.18230000(0)  0.43020000(0)  0.72480000(0)  0.40400
 H8_152  H 1.0  0.68230000(0)  0.43020000(0)  0.22480000(0)  0.40400
 H8_153  H 1.0  0.68230000(0)  0.93020000(0)  0.72480000(0)  0.40400
 H8_154  H 1.0  0.22480000(0)  0.31770000(0)  0.56980000(0)  0.40400
 H8_155  H 1.0  0.72480000(0)  0.31770000(0)  0.06980000(0)  0.40400
 H8_156  H 1.0  0.72480000(0)  0.81770000(0)  0.56980000(0)  0.40400
 H8_157  H 1.0  0.77520000(0)  0.43020000(0)  0.31770000(0)  0.40400
 H8_158  H 1.0  0.27520000(0)  0.43020000(0)  0.81770000(0)  0.40400
 H8_159  H 1.0  0.27520000(0)  0.93020000(0)  0.31770000(0)  0.40400
 H8_160  H 1.0  0.93020000(0)  0.31770000(0)  0.27520000(0)  0.40400
 H8_161  H 1.0  0.43020000(0)  0.31770000(0)  0.77520000(0)  0.40400
 H8_162  H 1.0  0.43020000(0)  0.81770000(0)  0.27520000(0)  0.40400
 H8_163  H 1.0  0.81770000(0)  0.27520000(0)  0.43020000(0)  0.40400
 H8_164  H 1.0  0.31770000(0)  0.27520000(0)  0.93020000(0)  0.40400
 H8_165  H 1.0  0.31770000(0)  0.77520000(0)  0.43020000(0)  0.40400
 H8_166  H 1.0  0.77520000(0)  0.43020000(0)  0.68230000(0)  0.40400
 H8_167  H 1.0  0.27520000(0)  0.43020000(0)  0.18230000(0)  0.40400
 H8_168  H 1.0  0.27520000(0)  0.93020000(0)  0.68230000(0)  0.40400
 H8_169  H 1.0  0.93020000(0)  0.31770000(0)  0.72480000(0)  0.40400
 H8_170  H 1.0  0.43020000(0)  0.31770000(0)  0.22480000(0)  0.40400
 H8_171  H 1.0  0.43020000(0)  0.81770000(0)  0.72480000(0)  0.40400
 H8_172  H 1.0  0.81770000(0)  0.27520000(0)  0.56980000(0)  0.40400
 H8_173  H 1.0  0.31770000(0)  0.27520000(0)  0.06980000(0)  0.40400
 H8_174  H 1.0  0.31770000(0)  0.77520000(0)  0.56980000(0)  0.40400
 H8_175  H 1.0  0.77520000(0)  0.56980000(0)  0.31770000(0)  0.40400
 H8_176  H 1.0  0.27520000(0)  0.56980000(0)  0.81770000(0)  0.40400
 H8_177  H 1.0  0.27520000(0)  0.06980000(0)  0.31770000(0)  0.40400
 H8_178  H 1.0  0.93020000(0)  0.68230000(0)  0.27520000(0)  0.40400
 H8_179  H 1.0  0.43020000(0)  0.68230000(0)  0.77520000(0)  0.40400
 H8_180  H 1.0  0.43020000(0)  0.18230000(0)  0.27520000(0)  0.40400
 H8_181  H 1.0  0.81770000(0)  0.72480000(0)  0.43020000(0)  0.40400
 H8_182  H 1.0  0.31770000(0)  0.72480000(0)  0.93020000(0)  0.40400
 H8_183  H 1.0  0.31770000(0)  0.22480000(0)  0.43020000(0)  0.40400
 H8_184  H 1.0  0.77520000(0)  0.56980000(0)  0.68230000(0)  0.40400
 H8_185  H 1.0  0.27520000(0)  0.56980000(0)  0.18230000(0)  0.40400
 H8_186  H 1.0  0.27520000(0)  0.06980000(0)  0.68230000(0)  0.40400
 H8_187  H 1.0  0.93020000(0)  0.68230000(0)  0.72480000(0)  0.40400
 H8_188  H 1.0  0.43020000(0)  0.68230000(0)  0.22480000(0)  0.40400
 H8_189  H 1.0  0.43020000(0)  0.18230000(0)  0.72480000(0)  0.40400
 H8_190  H 1.0  0.81770000(0)  0.72480000(0)  0.56980000(0)  0.40400
 H8_191  H 1.0  0.31770000(0)  0.72480000(0)  0.06980000(0)  0.40400
 H8_192  H 1.0  0.31770000(0)  0.22480000(0)  0.56980000(0)  0.40400
 H9_2  H 1.0  0.19910000(0)  0.04440000(0)  0.24160000(0)  0.44600
 H9_3  H 1.0  0.24160000(0)  0.19910000(0)  0.04440000(0)  0.44600
 H9_4  H 1.0  0.04440000(0)  0.24160000(0)  0.80090000(0)  0.44600
 H9_5  H 1.0  0.19910000(0)  0.04440000(0)  0.75840000(0)  0.44600
 H9_6  H 1.0  0.24160000(0)  0.19910000(0)  0.95560000(0)  0.44600
 H9_7  H 1.0  0.95560000(0)  0.24160000(0)  0.19910000(0)  0.44600
 H9_8  H 1.0  0.80090000(0)  0.04440000(0)  0.24160000(0)  0.44600
 H9_9  H 1.0  0.75840000(0)  0.19910000(0)  0.04440000(0)  0.44600
 H9_10  H 1.0  0.95560000(0)  0.24160000(0)  0.80090000(0)  0.44600
 H9_11  H 1.0  0.80090000(0)  0.04440000(0)  0.75840000(0)  0.44600
 H9_12  H 1.0  0.75840000(0)  0.19910000(0)  0.95560000(0)  0.44600
 H9_13  H 1.0  0.24160000(0)  0.04440000(0)  0.19910000(0)  0.44600
 H9_14  H 1.0  0.04440000(0)  0.19910000(0)  0.24160000(0)  0.44600
 H9_15  H 1.0  0.19910000(0)  0.24160000(0)  0.04440000(0)  0.44600
 H9_16  H 1.0  0.24160000(0)  0.04440000(0)  0.80090000(0)  0.44600
 H9_17  H 1.0  0.04440000(0)  0.19910000(0)  0.75840000(0)  0.44600
 H9_18  H 1.0  0.19910000(0)  0.24160000(0)  0.95560000(0)  0.44600
 H9_19  H 1.0  0.24160000(0)  0.95560000(0)  0.19910000(0)  0.44600
 H9_20  H 1.0  0.04440000(0)  0.80090000(0)  0.24160000(0)  0.44600
 H9_21  H 1.0  0.19910000(0)  0.75840000(0)  0.04440000(0)  0.44600
 H9_22  H 1.0  0.24160000(0)  0.95560000(0)  0.80090000(0)  0.44600
 H9_23  H 1.0  0.04440000(0)  0.80090000(0)  0.75840000(0)  0.44600
 H9_24  H 1.0  0.19910000(0)  0.75840000(0)  0.95560000(0)  0.44600
 H9_25  H 1.0  0.95560000(0)  0.75840000(0)  0.80090000(0)  0.44600
 H9_26  H 1.0  0.80090000(0)  0.95560000(0)  0.75840000(0)  0.44600
 H9_27  H 1.0  0.75840000(0)  0.80090000(0)  0.95560000(0)  0.44600
 H9_28  H 1.0  0.95560000(0)  0.75840000(0)  0.19910000(0)  0.44600
 H9_29  H 1.0  0.80090000(0)  0.95560000(0)  0.24160000(0)  0.44600
 H9_30  H 1.0  0.75840000(0)  0.80090000(0)  0.04440000(0)  0.44600
 H9_31  H 1.0  0.04440000(0)  0.75840000(0)  0.80090000(0)  0.44600
 H9_32  H 1.0  0.19910000(0)  0.95560000(0)  0.75840000(0)  0.44600
 H9_33  H 1.0  0.24160000(0)  0.80090000(0)  0.95560000(0)  0.44600
 H9_34  H 1.0  0.04440000(0)  0.75840000(0)  0.19910000(0)  0.44600
 H9_35  H 1.0  0.19910000(0)  0.95560000(0)  0.24160000(0)  0.44600
 H9_36  H 1.0  0.24160000(0)  0.80090000(0)  0.04440000(0)  0.44600
 H9_37  H 1.0  0.75840000(0)  0.95560000(0)  0.80090000(0)  0.44600
 H9_38  H 1.0  0.95560000(0)  0.80090000(0)  0.75840000(0)  0.44600
 H9_39  H 1.0  0.80090000(0)  0.75840000(0)  0.95560000(0)  0.44600
 H9_40  H 1.0  0.75840000(0)  0.95560000(0)  0.19910000(0)  0.44600
 H9_41  H 1.0  0.95560000(0)  0.80090000(0)  0.24160000(0)  0.44600
 H9_42  H 1.0  0.80090000(0)  0.75840000(0)  0.04440000(0)  0.44600
 H9_43  H 1.0  0.75840000(0)  0.04440000(0)  0.80090000(0)  0.44600
 H9_44  H 1.0  0.95560000(0)  0.19910000(0)  0.75840000(0)  0.44600
 H9_45  H 1.0  0.80090000(0)  0.24160000(0)  0.95560000(0)  0.44600
 H9_46  H 1.0  0.75840000(0)  0.04440000(0)  0.19910000(0)  0.44600
 H9_47  H 1.0  0.95560000(0)  0.19910000(0)  0.24160000(0)  0.44600
 H9_48  H 1.0  0.80090000(0)  0.24160000(0)  0.04440000(0)  0.44600
 H9_49  H 1.0  0.04440000(0)  0.74160000(0)  0.69910000(0)  0.44600
 H9_50  H 1.0  0.54440000(0)  0.74160000(0)  0.19910000(0)  0.44600
 H9_51  H 1.0  0.54440000(0)  0.24160000(0)  0.69910000(0)  0.44600
 H9_52  H 1.0  0.19910000(0)  0.54440000(0)  0.74160000(0)  0.44600
 H9_53  H 1.0  0.69910000(0)  0.54440000(0)  0.24160000(0)  0.44600
 H9_54  H 1.0  0.69910000(0)  0.04440000(0)  0.74160000(0)  0.44600
 H9_55  H 1.0  0.24160000(0)  0.69910000(0)  0.54440000(0)  0.44600
 H9_56  H 1.0  0.74160000(0)  0.69910000(0)  0.04440000(0)  0.44600
 H9_57  H 1.0  0.74160000(0)  0.19910000(0)  0.54440000(0)  0.44600
 H9_58  H 1.0  0.04440000(0)  0.74160000(0)  0.30090000(0)  0.44600
 H9_59  H 1.0  0.54440000(0)  0.74160000(0)  0.80090000(0)  0.44600
 H9_60  H 1.0  0.54440000(0)  0.24160000(0)  0.30090000(0)  0.44600
 H9_61  H 1.0  0.19910000(0)  0.54440000(0)  0.25840000(0)  0.44600
 H9_62  H 1.0  0.69910000(0)  0.54440000(0)  0.75840000(0)  0.44600
 H9_63  H 1.0  0.69910000(0)  0.04440000(0)  0.25840000(0)  0.44600
 H9_64  H 1.0  0.24160000(0)  0.69910000(0)  0.45560000(0)  0.44600
 H9_65  H 1.0  0.74160000(0)  0.69910000(0)  0.95560000(0)  0.44600
 H9_66  H 1.0  0.74160000(0)  0.19910000(0)  0.45560000(0)  0.44600
 H9_67  H 1.0  0.95560000(0)  0.74160000(0)  0.69910000(0)  0.44600
 H9_68  H 1.0  0.45560000(0)  0.74160000(0)  0.19910000(0)  0.44600
 H9_69  H 1.0  0.45560000(0)  0.24160000(0)  0.69910000(0)  0.44600
 H9_70  H 1.0  0.80090000(0)  0.54440000(0)  0.74160000(0)  0.44600
 H9_71  H 1.0  0.30090000(0)  0.54440000(0)  0.24160000(0)  0.44600
 H9_72  H 1.0  0.30090000(0)  0.04440000(0)  0.74160000(0)  0.44600
 H9_73  H 1.0  0.75840000(0)  0.69910000(0)  0.54440000(0)  0.44600
 H9_74  H 1.0  0.25840000(0)  0.69910000(0)  0.04440000(0)  0.44600
 H9_75  H 1.0  0.25840000(0)  0.19910000(0)  0.54440000(0)  0.44600
 H9_76  H 1.0  0.95560000(0)  0.74160000(0)  0.30090000(0)  0.44600
 H9_77  H 1.0  0.45560000(0)  0.74160000(0)  0.80090000(0)  0.44600
 H9_78  H 1.0  0.45560000(0)  0.24160000(0)  0.30090000(0)  0.44600
 H9_79  H 1.0  0.80090000(0)  0.54440000(0)  0.25840000(0)  0.44600
 H9_80  H 1.0  0.30090000(0)  0.54440000(0)  0.75840000(0)  0.44600
 H9_81  H 1.0  0.30090000(0)  0.04440000(0)  0.25840000(0)  0.44600
 H9_82  H 1.0  0.75840000(0)  0.69910000(0)  0.45560000(0)  0.44600
 H9_83  H 1.0  0.25840000(0)  0.69910000(0)  0.95560000(0)  0.44600
 H9_84  H 1.0  0.25840000(0)  0.19910000(0)  0.45560000(0)  0.44600
 H9_85  H 1.0  0.24160000(0)  0.54440000(0)  0.69910000(0)  0.44600
 H9_86  H 1.0  0.74160000(0)  0.54440000(0)  0.19910000(0)  0.44600
 H9_87  H 1.0  0.74160000(0)  0.04440000(0)  0.69910000(0)  0.44600
 H9_88  H 1.0  0.04440000(0)  0.69910000(0)  0.74160000(0)  0.44600
 H9_89  H 1.0  0.54440000(0)  0.69910000(0)  0.24160000(0)  0.44600
 H9_90  H 1.0  0.54440000(0)  0.19910000(0)  0.74160000(0)  0.44600
 H9_91  H 1.0  0.19910000(0)  0.74160000(0)  0.54440000(0)  0.44600
 H9_92  H 1.0  0.69910000(0)  0.74160000(0)  0.04440000(0)  0.44600
 H9_93  H 1.0  0.69910000(0)  0.24160000(0)  0.54440000(0)  0.44600
 H9_94  H 1.0  0.24160000(0)  0.54440000(0)  0.30090000(0)  0.44600
 H9_95  H 1.0  0.74160000(0)  0.54440000(0)  0.80090000(0)  0.44600
 H9_96  H 1.0  0.74160000(0)  0.04440000(0)  0.30090000(0)  0.44600
 H9_97  H 1.0  0.04440000(0)  0.69910000(0)  0.25840000(0)  0.44600
 H9_98  H 1.0  0.54440000(0)  0.69910000(0)  0.75840000(0)  0.44600
 H9_99  H 1.0  0.54440000(0)  0.19910000(0)  0.25840000(0)  0.44600
 H9_100  H 1.0  0.19910000(0)  0.74160000(0)  0.45560000(0)  0.44600
 H9_101  H 1.0  0.69910000(0)  0.74160000(0)  0.95560000(0)  0.44600
 H9_102  H 1.0  0.69910000(0)  0.24160000(0)  0.45560000(0)  0.44600
 H9_103  H 1.0  0.24160000(0)  0.45560000(0)  0.69910000(0)  0.44600
 H9_104  H 1.0  0.74160000(0)  0.45560000(0)  0.19910000(0)  0.44600
 H9_105  H 1.0  0.74160000(0)  0.95560000(0)  0.69910000(0)  0.44600
 H9_106  H 1.0  0.04440000(0)  0.30090000(0)  0.74160000(0)  0.44600
 H9_107  H 1.0  0.54440000(0)  0.30090000(0)  0.24160000(0)  0.44600
 H9_108  H 1.0  0.54440000(0)  0.80090000(0)  0.74160000(0)  0.44600
 H9_109  H 1.0  0.19910000(0)  0.25840000(0)  0.54440000(0)  0.44600
 H9_110  H 1.0  0.69910000(0)  0.25840000(0)  0.04440000(0)  0.44600
 H9_111  H 1.0  0.69910000(0)  0.75840000(0)  0.54440000(0)  0.44600
 H9_112  H 1.0  0.24160000(0)  0.45560000(0)  0.30090000(0)  0.44600
 H9_113  H 1.0  0.74160000(0)  0.45560000(0)  0.80090000(0)  0.44600
 H9_114  H 1.0  0.74160000(0)  0.95560000(0)  0.30090000(0)  0.44600
 H9_115  H 1.0  0.04440000(0)  0.30090000(0)  0.25840000(0)  0.44600
 H9_116  H 1.0  0.54440000(0)  0.30090000(0)  0.75840000(0)  0.44600
 H9_117  H 1.0  0.54440000(0)  0.80090000(0)  0.25840000(0)  0.44600
 H9_118  H 1.0  0.19910000(0)  0.25840000(0)  0.45560000(0)  0.44600
 H9_119  H 1.0  0.69910000(0)  0.25840000(0)  0.95560000(0)  0.44600
 H9_120  H 1.0  0.69910000(0)  0.75840000(0)  0.45560000(0)  0.44600
 H9_121  H 1.0  0.95560000(0)  0.25840000(0)  0.30090000(0)  0.44600
 H9_122  H 1.0  0.45560000(0)  0.25840000(0)  0.80090000(0)  0.44600
 H9_123  H 1.0  0.45560000(0)  0.75840000(0)  0.30090000(0)  0.44600
 H9_124  H 1.0  0.80090000(0)  0.45560000(0)  0.25840000(0)  0.44600
 H9_125  H 1.0  0.30090000(0)  0.45560000(0)  0.75840000(0)  0.44600
 H9_126  H 1.0  0.30090000(0)  0.95560000(0)  0.25840000(0)  0.44600
 H9_127  H 1.0  0.75840000(0)  0.30090000(0)  0.45560000(0)  0.44600
 H9_128  H 1.0  0.25840000(0)  0.30090000(0)  0.95560000(0)  0.44600
 H9_129  H 1.0  0.25840000(0)  0.80090000(0)  0.45560000(0)  0.44600
 H9_130  H 1.0  0.95560000(0)  0.25840000(0)  0.69910000(0)  0.44600
 H9_131  H 1.0  0.45560000(0)  0.25840000(0)  0.19910000(0)  0.44600
 H9_132  H 1.0  0.45560000(0)  0.75840000(0)  0.69910000(0)  0.44600
 H9_133  H 1.0  0.80090000(0)  0.45560000(0)  0.74160000(0)  0.44600
 H9_134  H 1.0  0.30090000(0)  0.45560000(0)  0.24160000(0)  0.44600
 H9_135  H 1.0  0.30090000(0)  0.95560000(0)  0.74160000(0)  0.44600
 H9_136  H 1.0  0.75840000(0)  0.30090000(0)  0.54440000(0)  0.44600
 H9_137  H 1.0  0.25840000(0)  0.30090000(0)  0.04440000(0)  0.44600
 H9_138  H 1.0  0.25840000(0)  0.80090000(0)  0.54440000(0)  0.44600
 H9_139  H 1.0  0.04440000(0)  0.25840000(0)  0.30090000(0)  0.44600
 H9_140  H 1.0  0.54440000(0)  0.25840000(0)  0.80090000(0)  0.44600
 H9_141  H 1.0  0.54440000(0)  0.75840000(0)  0.30090000(0)  0.44600
 H9_142  H 1.0  0.19910000(0)  0.45560000(0)  0.25840000(0)  0.44600
 H9_143  H 1.0  0.69910000(0)  0.45560000(0)  0.75840000(0)  0.44600
 H9_144  H 1.0  0.69910000(0)  0.95560000(0)  0.25840000(0)  0.44600
 H9_145  H 1.0  0.24160000(0)  0.30090000(0)  0.45560000(0)  0.44600
 H9_146  H 1.0  0.74160000(0)  0.30090000(0)  0.95560000(0)  0.44600
 H9_147  H 1.0  0.74160000(0)  0.80090000(0)  0.45560000(0)  0.44600
 H9_148  H 1.0  0.04440000(0)  0.25840000(0)  0.69910000(0)  0.44600
 H9_149  H 1.0  0.54440000(0)  0.25840000(0)  0.19910000(0)  0.44600
 H9_150  H 1.0  0.54440000(0)  0.75840000(0)  0.69910000(0)  0.44600
 H9_151  H 1.0  0.19910000(0)  0.45560000(0)  0.74160000(0)  0.44600
 H9_152  H 1.0  0.69910000(0)  0.45560000(0)  0.24160000(0)  0.44600
 H9_153  H 1.0  0.69910000(0)  0.95560000(0)  0.74160000(0)  0.44600
 H9_154  H 1.0  0.24160000(0)  0.30090000(0)  0.54440000(0)  0.44600
 H9_155  H 1.0  0.74160000(0)  0.30090000(0)  0.04440000(0)  0.44600
 H9_156  H 1.0  0.74160000(0)  0.80090000(0)  0.54440000(0)  0.44600
 H9_157  H 1.0  0.75840000(0)  0.45560000(0)  0.30090000(0)  0.44600
 H9_158  H 1.0  0.25840000(0)  0.45560000(0)  0.80090000(0)  0.44600
 H9_159  H 1.0  0.25840000(0)  0.95560000(0)  0.30090000(0)  0.44600
 H9_160  H 1.0  0.95560000(0)  0.30090000(0)  0.25840000(0)  0.44600
 H9_161  H 1.0  0.45560000(0)  0.30090000(0)  0.75840000(0)  0.44600
 H9_162  H 1.0  0.45560000(0)  0.80090000(0)  0.25840000(0)  0.44600
 H9_163  H 1.0  0.80090000(0)  0.25840000(0)  0.45560000(0)  0.44600
 H9_164  H 1.0  0.30090000(0)  0.25840000(0)  0.95560000(0)  0.44600
 H9_165  H 1.0  0.30090000(0)  0.75840000(0)  0.45560000(0)  0.44600
 H9_166  H 1.0  0.75840000(0)  0.45560000(0)  0.69910000(0)  0.44600
 H9_167  H 1.0  0.25840000(0)  0.45560000(0)  0.19910000(0)  0.44600
 H9_168  H 1.0  0.25840000(0)  0.95560000(0)  0.69910000(0)  0.44600
 H9_169  H 1.0  0.95560000(0)  0.30090000(0)  0.74160000(0)  0.44600
 H9_170  H 1.0  0.45560000(0)  0.30090000(0)  0.24160000(0)  0.44600
 H9_171  H 1.0  0.45560000(0)  0.80090000(0)  0.74160000(0)  0.44600
 H9_172  H 1.0  0.80090000(0)  0.25840000(0)  0.54440000(0)  0.44600
 H9_173  H 1.0  0.30090000(0)  0.25840000(0)  0.04440000(0)  0.44600
 H9_174  H 1.0  0.30090000(0)  0.75840000(0)  0.54440000(0)  0.44600
 H9_175  H 1.0  0.75840000(0)  0.54440000(0)  0.30090000(0)  0.44600
 H9_176  H 1.0  0.25840000(0)  0.54440000(0)  0.80090000(0)  0.44600
 H9_177  H 1.0  0.25840000(0)  0.04440000(0)  0.30090000(0)  0.44600
 H9_178  H 1.0  0.95560000(0)  0.69910000(0)  0.25840000(0)  0.44600
 H9_179  H 1.0  0.45560000(0)  0.69910000(0)  0.75840000(0)  0.44600
 H9_180  H 1.0  0.45560000(0)  0.19910000(0)  0.25840000(0)  0.44600
 H9_181  H 1.0  0.80090000(0)  0.74160000(0)  0.45560000(0)  0.44600
 H9_182  H 1.0  0.30090000(0)  0.74160000(0)  0.95560000(0)  0.44600
 H9_183  H 1.0  0.30090000(0)  0.24160000(0)  0.45560000(0)  0.44600
 H9_184  H 1.0  0.75840000(0)  0.54440000(0)  0.69910000(0)  0.44600
 H9_185  H 1.0  0.25840000(0)  0.54440000(0)  0.19910000(0)  0.44600
 H9_186  H 1.0  0.25840000(0)  0.04440000(0)  0.69910000(0)  0.44600
 H9_187  H 1.0  0.95560000(0)  0.69910000(0)  0.74160000(0)  0.44600
 H9_188  H 1.0  0.45560000(0)  0.69910000(0)  0.24160000(0)  0.44600
 H9_189  H 1.0  0.45560000(0)  0.19910000(0)  0.74160000(0)  0.44600
 H9_190  H 1.0  0.80090000(0)  0.74160000(0)  0.54440000(0)  0.44600
 H9_191  H 1.0  0.30090000(0)  0.74160000(0)  0.04440000(0)  0.44600
 H9_192  H 1.0  0.30090000(0)  0.24160000(0)  0.54440000(0)  0.44600
 O1  O 1.0  0.01944000(9000)  0.24768000(9000)  0.22427000(10000)  0.22500
 O1_2  O 1.0  0.22427000(9000)  0.01944000(9000)  0.24768000(10000)  0.22500
 O1_3  O 1.0  0.24768000(9000)  0.22427000(9000)  0.01944000(10000)  0.22500
 O1_4  O 1.0  0.01944000(9000)  0.24768000(9000)  0.77573000(10000)  0.22500
 O1_5  O 1.0  0.22427000(9000)  0.01944000(9000)  0.75232000(10000)  0.22500
 O1_6  O 1.0  0.24768000(9000)  0.22427000(9000)  0.98056000(10000)  0.22500
 O1_7  O 1.0  0.98056000(9000)  0.24768000(9000)  0.22427000(10000)  0.22500
 O1_8  O 1.0  0.77573000(9000)  0.01944000(9000)  0.24768000(10000)  0.22500
 O1_9  O 1.0  0.75232000(9000)  0.22427000(9000)  0.01944000(10000)  0.22500
 O1_10  O 1.0  0.98056000(9000)  0.24768000(9000)  0.77573000(10000)  0.22500
 O1_11  O 1.0  0.77573000(9000)  0.01944000(9000)  0.75232000(10000)  0.22500
 O1_12  O 1.0  0.75232000(9000)  0.22427000(9000)  0.98056000(10000)  0.22500
 O1_13  O 1.0  0.24768000(9000)  0.01944000(9000)  0.22427000(10000)  0.22500
 O1_14  O 1.0  0.01944000(9000)  0.22427000(9000)  0.24768000(10000)  0.22500
 O1_15  O 1.0  0.22427000(9000)  0.24768000(9000)  0.01944000(10000)  0.22500
 O1_16  O 1.0  0.24768000(9000)  0.01944000(9000)  0.77573000(10000)  0.22500
 O1_17  O 1.0  0.01944000(9000)  0.22427000(9000)  0.75232000(10000)  0.22500
 O1_18  O 1.0  0.22427000(9000)  0.24768000(9000)  0.98056000(10000)  0.22500
 O1_19  O 1.0  0.24768000(9000)  0.98056000(9000)  0.22427000(10000)  0.22500
 O1_20  O 1.0  0.01944000(9000)  0.77573000(9000)  0.24768000(10000)  0.22500
 O1_21  O 1.0  0.22427000(9000)  0.75232000(9000)  0.01944000(10000)  0.22500
 O1_22  O 1.0  0.24768000(9000)  0.98056000(9000)  0.77573000(10000)  0.22500
 O1_23  O 1.0  0.01944000(9000)  0.77573000(9000)  0.75232000(10000)  0.22500
 O1_24  O 1.0  0.22427000(9000)  0.75232000(9000)  0.98056000(10000)  0.22500
 O1_25  O 1.0  0.98056000(9000)  0.75232000(9000)  0.77573000(10000)  0.22500
 O1_26  O 1.0  0.77573000(9000)  0.98056000(9000)  0.75232000(10000)  0.22500
 O1_27  O 1.0  0.75232000(9000)  0.77573000(9000)  0.98056000(10000)  0.22500
 O1_28  O 1.0  0.98056000(9000)  0.75232000(9000)  0.22427000(10000)  0.22500
 O1_29  O 1.0  0.77573000(9000)  0.98056000(9000)  0.24768000(10000)  0.22500
 O1_30  O 1.0  0.75232000(9000)  0.77573000(9000)  0.01944000(10000)  0.22500
 O1_31  O 1.0  0.01944000(9000)  0.75232000(9000)  0.77573000(10000)  0.22500
 O1_32  O 1.0  0.22427000(9000)  0.98056000(9000)  0.75232000(10000)  0.22500
 O1_33  O 1.0  0.24768000(9000)  0.77573000(9000)  0.98056000(10000)  0.22500
 O1_34  O 1.0  0.01944000(9000)  0.75232000(9000)  0.22427000(10000)  0.22500
 O1_35  O 1.0  0.22427000(9000)  0.98056000(9000)  0.24768000(10000)  0.22500
 O1_36  O 1.0  0.24768000(9000)  0.77573000(9000)  0.01944000(10000)  0.22500
 O1_37  O 1.0  0.75232000(9000)  0.98056000(9000)  0.77573000(10000)  0.22500
 O1_38  O 1.0  0.98056000(9000)  0.77573000(9000)  0.75232000(10000)  0.22500
 O1_39  O 1.0  0.77573000(9000)  0.75232000(9000)  0.98056000(10000)  0.22500
 O1_40  O 1.0  0.75232000(9000)  0.98056000(9000)  0.22427000(10000)  0.22500
 O1_41  O 1.0  0.98056000(9000)  0.77573000(9000)  0.24768000(10000)  0.22500
 O1_42  O 1.0  0.77573000(9000)  0.75232000(9000)  0.01944000(10000)  0.22500
 O1_43  O 1.0  0.75232000(9000)  0.01944000(9000)  0.77573000(10000)  0.22500
 O1_44  O 1.0  0.98056000(9000)  0.22427000(9000)  0.75232000(10000)  0.22500
 O1_45  O 1.0  0.77573000(9000)  0.24768000(9000)  0.98056000(10000)  0.22500
 O1_46  O 1.0  0.75232000(9000)  0.01944000(9000)  0.22427000(10000)  0.22500
 O1_47  O 1.0  0.98056000(9000)  0.22427000(9000)  0.24768000(10000)  0.22500
 O1_48  O 1.0  0.77573000(9000)  0.24768000(9000)  0.01944000(10000)  0.22500
 O1_49  O 1.0  0.01944000(9000)  0.74768000(9000)  0.72427000(10000)  0.22500
 O1_50  O 1.0  0.51944000(9000)  0.74768000(9000)  0.22427000(10000)  0.22500
 O1_51  O 1.0  0.51944000(9000)  0.24768000(9000)  0.72427000(10000)  0.22500
 O1_52  O 1.0  0.22427000(9000)  0.51944000(9000)  0.74768000(10000)  0.22500
 O1_53  O 1.0  0.72427000(9000)  0.51944000(9000)  0.24768000(10000)  0.22500
 O1_54  O 1.0  0.72427000(9000)  0.01944000(9000)  0.74768000(10000)  0.22500
 O1_55  O 1.0  0.24768000(9000)  0.72427000(9000)  0.51944000(10000)  0.22500
 O1_56  O 1.0  0.74768000(9000)  0.72427000(9000)  0.01944000(10000)  0.22500
 O1_57  O 1.0  0.74768000(9000)  0.22427000(9000)  0.51944000(10000)  0.22500
 O1_58  O 1.0  0.01944000(9000)  0.74768000(9000)  0.27573000(10000)  0.22500
 O1_59  O 1.0  0.51944000(9000)  0.74768000(9000)  0.77573000(10000)  0.22500
 O1_60  O 1.0  0.51944000(9000)  0.24768000(9000)  0.27573000(10000)  0.22500
 O1_61  O 1.0  0.22427000(9000)  0.51944000(9000)  0.25232000(10000)  0.22500
 O1_62  O 1.0  0.72427000(9000)  0.51944000(9000)  0.75232000(10000)  0.22500
 O1_63  O 1.0  0.72427000(9000)  0.01944000(9000)  0.25232000(10000)  0.22500
 O1_64  O 1.0  0.24768000(9000)  0.72427000(9000)  0.48056000(10000)  0.22500
 O1_65  O 1.0  0.74768000(9000)  0.72427000(9000)  0.98056000(10000)  0.22500
 O1_66  O 1.0  0.74768000(9000)  0.22427000(9000)  0.48056000(10000)  0.22500
 O1_67  O 1.0  0.98056000(9000)  0.74768000(9000)  0.72427000(10000)  0.22500
 O1_68  O 1.0  0.48056000(9000)  0.74768000(9000)  0.22427000(10000)  0.22500
 O1_69  O 1.0  0.48056000(9000)  0.24768000(9000)  0.72427000(10000)  0.22500
 O1_70  O 1.0  0.77573000(9000)  0.51944000(9000)  0.74768000(10000)  0.22500
 O1_71  O 1.0  0.27573000(9000)  0.51944000(9000)  0.24768000(10000)  0.22500
 O1_72  O 1.0  0.27573000(9000)  0.01944000(9000)  0.74768000(10000)  0.22500
 O1_73  O 1.0  0.75232000(9000)  0.72427000(9000)  0.51944000(10000)  0.22500
 O1_74  O 1.0  0.25232000(9000)  0.72427000(9000)  0.01944000(10000)  0.22500
 O1_75  O 1.0  0.25232000(9000)  0.22427000(9000)  0.51944000(10000)  0.22500
 O1_76  O 1.0  0.98056000(9000)  0.74768000(9000)  0.27573000(10000)  0.22500
 O1_77  O 1.0  0.48056000(9000)  0.74768000(9000)  0.77573000(10000)  0.22500
 O1_78  O 1.0  0.48056000(9000)  0.24768000(9000)  0.27573000(10000)  0.22500
 O1_79  O 1.0  0.77573000(9000)  0.51944000(9000)  0.25232000(10000)  0.22500
 O1_80  O 1.0  0.27573000(9000)  0.51944000(9000)  0.75232000(10000)  0.22500
 O1_81  O 1.0  0.27573000(9000)  0.01944000(9000)  0.25232000(10000)  0.22500
 O1_82  O 1.0  0.75232000(9000)  0.72427000(9000)  0.48056000(10000)  0.22500
 O1_83  O 1.0  0.25232000(9000)  0.72427000(9000)  0.98056000(10000)  0.22500
 O1_84  O 1.0  0.25232000(9000)  0.22427000(9000)  0.48056000(10000)  0.22500
 O1_85  O 1.0  0.24768000(9000)  0.51944000(9000)  0.72427000(10000)  0.22500
 O1_86  O 1.0  0.74768000(9000)  0.51944000(9000)  0.22427000(10000)  0.22500
 O1_87  O 1.0  0.74768000(9000)  0.01944000(9000)  0.72427000(10000)  0.22500
 O1_88  O 1.0  0.01944000(9000)  0.72427000(9000)  0.74768000(10000)  0.22500
 O1_89  O 1.0  0.51944000(9000)  0.72427000(9000)  0.24768000(10000)  0.22500
 O1_90  O 1.0  0.51944000(9000)  0.22427000(9000)  0.74768000(10000)  0.22500
 O1_91  O 1.0  0.22427000(9000)  0.74768000(9000)  0.51944000(10000)  0.22500
 O1_92  O 1.0  0.72427000(9000)  0.74768000(9000)  0.01944000(10000)  0.22500
 O1_93  O 1.0  0.72427000(9000)  0.24768000(9000)  0.51944000(10000)  0.22500
 O1_94  O 1.0  0.24768000(9000)  0.51944000(9000)  0.27573000(10000)  0.22500
 O1_95  O 1.0  0.74768000(9000)  0.51944000(9000)  0.77573000(10000)  0.22500
 O1_96  O 1.0  0.74768000(9000)  0.01944000(9000)  0.27573000(10000)  0.22500
 O1_97  O 1.0  0.01944000(9000)  0.72427000(9000)  0.25232000(10000)  0.22500
 O1_98  O 1.0  0.51944000(9000)  0.72427000(9000)  0.75232000(10000)  0.22500
 O1_99  O 1.0  0.51944000(9000)  0.22427000(9000)  0.25232000(10000)  0.22500
 O1_100  O 1.0  0.22427000(9000)  0.74768000(9000)  0.48056000(10000)  0.22500
 O1_101  O 1.0  0.72427000(9000)  0.74768000(9000)  0.98056000(10000)  0.22500
 O1_102  O 1.0  0.72427000(9000)  0.24768000(9000)  0.48056000(10000)  0.22500
 O1_103  O 1.0  0.24768000(9000)  0.48056000(9000)  0.72427000(10000)  0.22500
 O1_104  O 1.0  0.74768000(9000)  0.48056000(9000)  0.22427000(10000)  0.22500
 O1_105  O 1.0  0.74768000(9000)  0.98056000(9000)  0.72427000(10000)  0.22500
 O1_106  O 1.0  0.01944000(9000)  0.27573000(9000)  0.74768000(10000)  0.22500
 O1_107  O 1.0  0.51944000(9000)  0.27573000(9000)  0.24768000(10000)  0.22500
 O1_108  O 1.0  0.51944000(9000)  0.77573000(9000)  0.74768000(10000)  0.22500
 O1_109  O 1.0  0.22427000(9000)  0.25232000(9000)  0.51944000(10000)  0.22500
 O1_110  O 1.0  0.72427000(9000)  0.25232000(9000)  0.01944000(10000)  0.22500
 O1_111  O 1.0  0.72427000(9000)  0.75232000(9000)  0.51944000(10000)  0.22500
 O1_112  O 1.0  0.24768000(9000)  0.48056000(9000)  0.27573000(10000)  0.22500
 O1_113  O 1.0  0.74768000(9000)  0.48056000(9000)  0.77573000(10000)  0.22500
 O1_114  O 1.0  0.74768000(9000)  0.98056000(9000)  0.27573000(10000)  0.22500
 O1_115  O 1.0  0.01944000(9000)  0.27573000(9000)  0.25232000(10000)  0.22500
 O1_116  O 1.0  0.51944000(9000)  0.27573000(9000)  0.75232000(10000)  0.22500
 O1_117  O 1.0  0.51944000(9000)  0.77573000(9000)  0.25232000(10000)  0.22500
 O1_118  O 1.0  0.22427000(9000)  0.25232000(9000)  0.48056000(10000)  0.22500
 O1_119  O 1.0  0.72427000(9000)  0.25232000(9000)  0.98056000(10000)  0.22500
 O1_120  O 1.0  0.72427000(9000)  0.75232000(9000)  0.48056000(10000)  0.22500
 O1_121  O 1.0  0.98056000(9000)  0.25232000(9000)  0.27573000(10000)  0.22500
 O1_122  O 1.0  0.48056000(9000)  0.25232000(9000)  0.77573000(10000)  0.22500
 O1_123  O 1.0  0.48056000(9000)  0.75232000(9000)  0.27573000(10000)  0.22500
 O1_124  O 1.0  0.77573000(9000)  0.48056000(9000)  0.25232000(10000)  0.22500
 O1_125  O 1.0  0.27573000(9000)  0.48056000(9000)  0.75232000(10000)  0.22500
 O1_126  O 1.0  0.27573000(9000)  0.98056000(9000)  0.25232000(10000)  0.22500
 O1_127  O 1.0  0.75232000(9000)  0.27573000(9000)  0.48056000(10000)  0.22500
 O1_128  O 1.0  0.25232000(9000)  0.27573000(9000)  0.98056000(10000)  0.22500
 O1_129  O 1.0  0.25232000(9000)  0.77573000(9000)  0.48056000(10000)  0.22500
 O1_130  O 1.0  0.98056000(9000)  0.25232000(9000)  0.72427000(10000)  0.22500
 O1_131  O 1.0  0.48056000(9000)  0.25232000(9000)  0.22427000(10000)  0.22500
 O1_132  O 1.0  0.48056000(9000)  0.75232000(9000)  0.72427000(10000)  0.22500
 O1_133  O 1.0  0.77573000(9000)  0.48056000(9000)  0.74768000(10000)  0.22500
 O1_134  O 1.0  0.27573000(9000)  0.48056000(9000)  0.24768000(10000)  0.22500
 O1_135  O 1.0  0.27573000(9000)  0.98056000(9000)  0.74768000(10000)  0.22500
 O1_136  O 1.0  0.75232000(9000)  0.27573000(9000)  0.51944000(10000)  0.22500
 O1_137  O 1.0  0.25232000(9000)  0.27573000(9000)  0.01944000(10000)  0.22500
 O1_138  O 1.0  0.25232000(9000)  0.77573000(9000)  0.51944000(10000)  0.22500
 O1_139  O 1.0  0.01944000(9000)  0.25232000(9000)  0.27573000(10000)  0.22500
 O1_140  O 1.0  0.51944000(9000)  0.25232000(9000)  0.77573000(10000)  0.22500
 O1_141  O 1.0  0.51944000(9000)  0.75232000(9000)  0.27573000(10000)  0.22500
 O1_142  O 1.0  0.22427000(9000)  0.48056000(9000)  0.25232000(10000)  0.22500
 O1_143  O 1.0  0.72427000(9000)  0.48056000(9000)  0.75232000(10000)  0.22500
 O1_144  O 1.0  0.72427000(9000)  0.98056000(9000)  0.25232000(10000)  0.22500
 O1_145  O 1.0  0.24768000(9000)  0.27573000(9000)  0.48056000(10000)  0.22500
 O1_146  O 1.0  0.74768000(9000)  0.27573000(9000)  0.98056000(10000)  0.22500
 O1_147  O 1.0  0.74768000(9000)  0.77573000(9000)  0.48056000(10000)  0.22500
 O1_148  O 1.0  0.01944000(9000)  0.25232000(9000)  0.72427000(10000)  0.22500
 O1_149  O 1.0  0.51944000(9000)  0.25232000(9000)  0.22427000(10000)  0.22500
 O1_150  O 1.0  0.51944000(9000)  0.75232000(9000)  0.72427000(10000)  0.22500
 O1_151  O 1.0  0.22427000(9000)  0.48056000(9000)  0.74768000(10000)  0.22500
 O1_152  O 1.0  0.72427000(9000)  0.48056000(9000)  0.24768000(10000)  0.22500
 O1_153  O 1.0  0.72427000(9000)  0.98056000(9000)  0.74768000(10000)  0.22500
 O1_154  O 1.0  0.24768000(9000)  0.27573000(9000)  0.51944000(10000)  0.22500
 O1_155  O 1.0  0.74768000(9000)  0.27573000(9000)  0.01944000(10000)  0.22500
 O1_156  O 1.0  0.74768000(9000)  0.77573000(9000)  0.51944000(10000)  0.22500
 O1_157  O 1.0  0.75232000(9000)  0.48056000(9000)  0.27573000(10000)  0.22500
 O1_158  O 1.0  0.25232000(9000)  0.48056000(9000)  0.77573000(10000)  0.22500
 O1_159  O 1.0  0.25232000(9000)  0.98056000(9000)  0.27573000(10000)  0.22500
 O1_160  O 1.0  0.98056000(9000)  0.27573000(9000)  0.25232000(10000)  0.22500
 O1_161  O 1.0  0.48056000(9000)  0.27573000(9000)  0.75232000(10000)  0.22500
 O1_162  O 1.0  0.48056000(9000)  0.77573000(9000)  0.25232000(10000)  0.22500
 O1_163  O 1.0  0.77573000(9000)  0.25232000(9000)  0.48056000(10000)  0.22500
 O1_164  O 1.0  0.27573000(9000)  0.25232000(9000)  0.98056000(10000)  0.22500
 O1_165  O 1.0  0.27573000(9000)  0.75232000(9000)  0.48056000(10000)  0.22500
 O1_166  O 1.0  0.75232000(9000)  0.48056000(9000)  0.72427000(10000)  0.22500
 O1_167  O 1.0  0.25232000(9000)  0.48056000(9000)  0.22427000(10000)  0.22500
 O1_168  O 1.0  0.25232000(9000)  0.98056000(9000)  0.72427000(10000)  0.22500
 O1_169  O 1.0  0.98056000(9000)  0.27573000(9000)  0.74768000(10000)  0.22500
 O1_170  O 1.0  0.48056000(9000)  0.27573000(9000)  0.24768000(10000)  0.22500
 O1_171  O 1.0  0.48056000(9000)  0.77573000(9000)  0.74768000(10000)  0.22500
 O1_172  O 1.0  0.77573000(9000)  0.25232000(9000)  0.51944000(10000)  0.22500
 O1_173  O 1.0  0.27573000(9000)  0.25232000(9000)  0.01944000(10000)  0.22500
 O1_174  O 1.0  0.27573000(9000)  0.75232000(9000)  0.51944000(10000)  0.22500
 O1_175  O 1.0  0.75232000(9000)  0.51944000(9000)  0.27573000(10000)  0.22500
 O1_176  O 1.0  0.25232000(9000)  0.51944000(9000)  0.77573000(10000)  0.22500
 O1_177  O 1.0  0.25232000(9000)  0.01944000(9000)  0.27573000(10000)  0.22500
 O1_178  O 1.0  0.98056000(9000)  0.72427000(9000)  0.25232000(10000)  0.22500
 O1_179  O 1.0  0.48056000(9000)  0.72427000(9000)  0.75232000(10000)  0.22500
 O1_180  O 1.0  0.48056000(9000)  0.22427000(9000)  0.25232000(10000)  0.22500
 O1_181  O 1.0  0.77573000(9000)  0.74768000(9000)  0.48056000(10000)  0.22500
 O1_182  O 1.0  0.27573000(9000)  0.74768000(9000)  0.98056000(10000)  0.22500
 O1_183  O 1.0  0.27573000(9000)  0.24768000(9000)  0.48056000(10000)  0.22500
 O1_184  O 1.0  0.75232000(9000)  0.51944000(9000)  0.72427000(10000)  0.22500
 O1_185  O 1.0  0.25232000(9000)  0.51944000(9000)  0.22427000(10000)  0.22500
 O1_186  O 1.0  0.25232000(9000)  0.01944000(9000)  0.72427000(10000)  0.22500
 O1_187  O 1.0  0.98056000(9000)  0.72427000(9000)  0.74768000(10000)  0.22500
 O1_188  O 1.0  0.48056000(9000)  0.72427000(9000)  0.24768000(10000)  0.22500
 O1_189  O 1.0  0.48056000(9000)  0.22427000(9000)  0.74768000(10000)  0.22500
 O1_190  O 1.0  0.77573000(9000)  0.74768000(9000)  0.51944000(10000)  0.22500
 O1_191  O 1.0  0.27573000(9000)  0.74768000(9000)  0.01944000(10000)  0.22500
 O1_192  O 1.0  0.27573000(9000)  0.24768000(9000)  0.51944000(10000)  0.22500

loop_
_atom_site_aniso_label
_atom_site_aniso_U_11
_atom_site_aniso_U_22
_atom_site_aniso_U_33
_atom_site_aniso_U_23
_atom_site_aniso_U_13
_atom_site_aniso_U_12
C1   0.36100 0.39000 0.36100 0.22800 0.16700 0.22800
C2   0.44000 0.31900 0.31900 0.26100 0.19000 0.19000
C3   0.38000 0.39800 0.39800 0.22900 0.29200 0.29200
C4   0.45000 0.55000 0.67000 0.43000 0.28000 0.33800
C5   0.41000 0.77000 0.44000 0.24000 0.26600 0.25000
C6   0.33000 0.33400 0.33400 0.10600 0.17600 0.17600
C7   0.22800 0.24100 0.24100 0.01100 0.09900 0.09900
C8   0.43300 0.24700 0.32900 0.09600 0.01100 0.21000
C9   0.32200 0.35400 0.43900 0.08800 0.14100 0.11400
C10   0.25500 0.26800 0.26800 -0.05100 -0.03200 -0.03200
C11   0.40000 0.38000 0.38000 0.02000 0.19000 0.19000
C10_2   0.25500 0.26800 0.26800 -0.05100 -0.03200 -0.03200
C10_3   0.25500 0.26800 0.26800 -0.05100 -0.03200 -0.03200
C10_4   0.25500 0.26800 0.26800 -0.05100 -0.03200 -0.03200
C10_5   0.25500 0.26800 0.26800 -0.05100 -0.03200 -0.03200
C10_6   0.25500 0.26800 0.26800 -0.05100 -0.03200 -0.03200
C10_7   0.25500 0.26800 0.26800 -0.05100 -0.03200 -0.03200
C10_8   0.25500 0.26800 0.26800 -0.05100 -0.03200 -0.03200
C10_9   0.25500 0.26800 0.26800 -0.05100 -0.03200 -0.03200
C10_10   0.25500 0.26800 0.26800 -0.05100 -0.03200 -0.03200
C10_11   0.25500 0.26800 0.26800 -0.05100 -0.03200 -0.03200
C10_12   0.25500 0.26800 0.26800 -0.05100 -0.03200 -0.03200
C10_13   0.25500 0.26800 0.26800 -0.05100 -0.03200 -0.03200
C10_14   0.25500 0.26800 0.26800 -0.05100 -0.03200 -0.03200
C10_15   0.25500 0.26800 0.26800 -0.05100 -0.03200 -0.03200
C10_16   0.25500 0.26800 0.26800 -0.05100 -0.03200 -0.03200
C10_17   0.25500 0.26800 0.26800 -0.05100 -0.03200 -0.03200
C10_18   0.25500 0.26800 0.26800 -0.05100 -0.03200 -0.03200
C10_19   0.25500 0.26800 0.26800 -0.05100 -0.03200 -0.03200
C10_20   0.25500 0.26800 0.26800 -0.05100 -0.03200 -0.03200
C10_21   0.25500 0.26800 0.26800 -0.05100 -0.03200 -0.03200
C10_22   0.25500 0.26800 0.26800 -0.05100 -0.03200 -0.03200
C10_23   0.25500 0.26800 0.26800 -0.05100 -0.03200 -0.03200
C10_24   0.25500 0.26800 0.26800 -0.05100 -0.03200 -0.03200
C10_25   0.25500 0.26800 0.26800 -0.05100 -0.03200 -0.03200
C10_26   0.25500 0.26800 0.26800 -0.05100 -0.03200 -0.03200
C10_27   0.25500 0.26800 0.26800 -0.05100 -0.03200 -0.03200
C10_28   0.25500 0.26800 0.26800 -0.05100 -0.03200 -0.03200
C10_29   0.25500 0.26800 0.26800 -0.05100 -0.03200 -0.03200
C10_30   0.25500 0.26800 0.26800 -0.05100 -0.03200 -0.03200
C10_31   0.25500 0.26800 0.26800 -0.05100 -0.03200 -0.03200
C10_32   0.25500 0.26800 0.26800 -0.05100 -0.03200 -0.03200
C10_33   0.25500 0.26800 0.26800 -0.05100 -0.03200 -0.03200
C10_34   0.25500 0.26800 0.26800 -0.05100 -0.03200 -0.03200
C10_35   0.25500 0.26800 0.26800 -0.05100 -0.03200 -0.03200
C10_36   0.25500 0.26800 0.26800 -0.05100 -0.03200 -0.03200
C10_37   0.25500 0.26800 0.26800 -0.05100 -0.03200 -0.03200
C10_38   0.25500 0.26800 0.26800 -0.05100 -0.03200 -0.03200
C10_39   0.25500 0.26800 0.26800 -0.05100 -0.03200 -0.03200
C10_40   0.25500 0.26800 0.26800 -0.05100 -0.03200 -0.03200
C10_41   0.25500 0.26800 0.26800 -0.05100 -0.03200 -0.03200
C10_42   0.25500 0.26800 0.26800 -0.05100 -0.03200 -0.03200
C10_43   0.25500 0.26800 0.26800 -0.05100 -0.03200 -0.03200
C10_44   0.25500 0.26800 0.26800 -0.05100 -0.03200 -0.03200
C10_45   0.25500 0.26800 0.26800 -0.05100 -0.03200 -0.03200
C10_46   0.25500 0.26800 0.26800 -0.05100 -0.03200 -0.03200
C10_47   0.25500 0.26800 0.26800 -0.05100 -0.03200 -0.03200
C10_48   0.25500 0.26800 0.26800 -0.05100 -0.03200 -0.03200
C10_49   0.25500 0.26800 0.26800 -0.05100 -0.03200 -0.03200
C10_50   0.25500 0.26800 0.26800 -0.05100 -0.03200 -0.03200
C10_51   0.25500 0.26800 0.26800 -0.05100 -0.03200 -0.03200
C10_52   0.25500 0.26800 0.26800 -0.05100 -0.03200 -0.03200
C10_53   0.25500 0.26800 0.26800 -0.05100 -0.03200 -0.03200
C10_54   0.25500 0.26800 0.26800 -0.05100 -0.03200 -0.03200
C10_55   0.25500 0.26800 0.26800 -0.05100 -0.03200 -0.03200
C10_56   0.25500 0.26800 0.26800 -0.05100 -0.03200 -0.03200
C10_57   0.25500 0.26800 0.26800 -0.05100 -0.03200 -0.03200
C10_58   0.25500 0.26800 0.26800 -0.05100 -0.03200 -0.03200
C10_59   0.25500 0.26800 0.26800 -0.05100 -0.03200 -0.03200
C10_60   0.25500 0.26800 0.26800 -0.05100 -0.03200 -0.03200
C10_61   0.25500 0.26800 0.26800 -0.05100 -0.03200 -0.03200
C10_62   0.25500 0.26800 0.26800 -0.05100 -0.03200 -0.03200
C10_63   0.25500 0.26800 0.26800 -0.05100 -0.03200 -0.03200
C10_64   0.25500 0.26800 0.26800 -0.05100 -0.03200 -0.03200
C10_65   0.25500 0.26800 0.26800 -0.05100 -0.03200 -0.03200
C10_66   0.25500 0.26800 0.26800 -0.05100 -0.03200 -0.03200
C10_67   0.25500 0.26800 0.26800 -0.05100 -0.03200 -0.03200
C10_68   0.25500 0.26800 0.26800 -0.05100 -0.03200 -0.03200
C10_69   0.25500 0.26800 0.26800 -0.05100 -0.03200 -0.03200
C10_70   0.25500 0.26800 0.26800 -0.05100 -0.03200 -0.03200
C10_71   0.25500 0.26800 0.26800 -0.05100 -0.03200 -0.03200
C10_72   0.25500 0.26800 0.26800 -0.05100 -0.03200 -0.03200
C10_73   0.25500 0.26800 0.26800 -0.05100 -0.03200 -0.03200
C10_74   0.25500 0.26800 0.26800 -0.05100 -0.03200 -0.03200
C10_75   0.25500 0.26800 0.26800 -0.05100 -0.03200 -0.03200
C10_76   0.25500 0.26800 0.26800 -0.05100 -0.03200 -0.03200
C10_77   0.25500 0.26800 0.26800 -0.05100 -0.03200 -0.03200
C10_78   0.25500 0.26800 0.26800 -0.05100 -0.03200 -0.03200
C10_79   0.25500 0.26800 0.26800 -0.05100 -0.03200 -0.03200
C10_80   0.25500 0.26800 0.26800 -0.05100 -0.03200 -0.03200
C10_81   0.25500 0.26800 0.26800 -0.05100 -0.03200 -0.03200
C10_82   0.25500 0.26800 0.26800 -0.05100 -0.03200 -0.03200
C10_83   0.25500 0.26800 0.26800 -0.05100 -0.03200 -0.03200
C10_84   0.25500 0.26800 0.26800 -0.05100 -0.03200 -0.03200
C10_85   0.25500 0.26800 0.26800 -0.05100 -0.03200 -0.03200
C10_86   0.25500 0.26800 0.26800 -0.05100 -0.03200 -0.03200
C10_87   0.25500 0.26800 0.26800 -0.05100 -0.03200 -0.03200
C10_88   0.25500 0.26800 0.26800 -0.05100 -0.03200 -0.03200
C10_89   0.25500 0.26800 0.26800 -0.05100 -0.03200 -0.03200
C10_90   0.25500 0.26800 0.26800 -0.05100 -0.03200 -0.03200
C10_91   0.25500 0.26800 0.26800 -0.05100 -0.03200 -0.03200
C10_92   0.25500 0.26800 0.26800 -0.05100 -0.03200 -0.03200
C10_93   0.25500 0.26800 0.26800 -0.05100 -0.03200 -0.03200
C10_94   0.25500 0.26800 0.26800 -0.05100 -0.03200 -0.03200
C10_95   0.25500 0.26800 0.26800 -0.05100 -0.03200 -0.03200
C10_96   0.25500 0.26800 0.26800 -0.05100 -0.03200 -0.03200
C11_2   0.40000 0.38000 0.38000 0.02000 0.19000 0.19000
C11_3   0.40000 0.38000 0.38000 0.02000 0.19000 0.19000
C11_4   0.40000 0.38000 0.38000 0.02000 0.19000 0.19000
C11_5   0.40000 0.38000 0.38000 0.02000 0.19000 0.19000
C11_6   0.40000 0.38000 0.38000 0.02000 0.19000 0.19000
C11_7   0.40000 0.38000 0.38000 0.02000 0.19000 0.19000
C11_8   0.40000 0.38000 0.38000 0.02000 0.19000 0.19000
C11_9   0.40000 0.38000 0.38000 0.02000 0.19000 0.19000
C11_10   0.40000 0.38000 0.38000 0.02000 0.19000 0.19000
C11_11   0.40000 0.38000 0.38000 0.02000 0.19000 0.19000
C11_12   0.40000 0.38000 0.38000 0.02000 0.19000 0.19000
C11_13   0.40000 0.38000 0.38000 0.02000 0.19000 0.19000
C11_14   0.40000 0.38000 0.38000 0.02000 0.19000 0.19000
C11_15   0.40000 0.38000 0.38000 0.02000 0.19000 0.19000
C11_16   0.40000 0.38000 0.38000 0.02000 0.19000 0.19000
C11_17   0.40000 0.38000 0.38000 0.02000 0.19000 0.19000
C11_18   0.40000 0.38000 0.38000 0.02000 0.19000 0.19000
C11_19   0.40000 0.38000 0.38000 0.02000 0.19000 0.19000
C11_20   0.40000 0.38000 0.38000 0.02000 0.19000 0.19000
C11_21   0.40000 0.38000 0.38000 0.02000 0.19000 0.19000
C11_22   0.40000 0.38000 0.38000 0.02000 0.19000 0.19000
C11_23   0.40000 0.38000 0.38000 0.02000 0.19000 0.19000
C11_24   0.40000 0.38000 0.38000 0.02000 0.19000 0.19000
C11_25   0.40000 0.38000 0.38000 0.02000 0.19000 0.19000
C11_26   0.40000 0.38000 0.38000 0.02000 0.19000 0.19000
C11_27   0.40000 0.38000 0.38000 0.02000 0.19000 0.19000
C11_28   0.40000 0.38000 0.38000 0.02000 0.19000 0.19000
C11_29   0.40000 0.38000 0.38000 0.02000 0.19000 0.19000
C11_30   0.40000 0.38000 0.38000 0.02000 0.19000 0.19000
C11_31   0.40000 0.38000 0.38000 0.02000 0.19000 0.19000
C11_32   0.40000 0.38000 0.38000 0.02000 0.19000 0.19000
C11_33   0.40000 0.38000 0.38000 0.02000 0.19000 0.19000
C11_34   0.40000 0.38000 0.38000 0.02000 0.19000 0.19000
C11_35   0.40000 0.38000 0.38000 0.02000 0.19000 0.19000
C11_36   0.40000 0.38000 0.38000 0.02000 0.19000 0.19000
C11_37   0.40000 0.38000 0.38000 0.02000 0.19000 0.19000
C11_38   0.40000 0.38000 0.38000 0.02000 0.19000 0.19000
C11_39   0.40000 0.38000 0.38000 0.02000 0.19000 0.19000
C11_40   0.40000 0.38000 0.38000 0.02000 0.19000 0.19000
C11_41   0.40000 0.38000 0.38000 0.02000 0.19000 0.19000
C11_42   0.40000 0.38000 0.38000 0.02000 0.19000 0.19000
C11_43   0.40000 0.38000 0.38000 0.02000 0.19000 0.19000
C11_44   0.40000 0.38000 0.38000 0.02000 0.19000 0.19000
C11_45   0.40000 0.38000 0.38000 0.02000 0.19000 0.19000
C11_46   0.40000 0.38000 0.38000 0.02000 0.19000 0.19000
C11_47   0.40000 0.38000 0.38000 0.02000 0.19000 0.19000
C11_48   0.40000 0.38000 0.38000 0.02000 0.19000 0.19000
C11_49   0.40000 0.38000 0.38000 0.02000 0.19000 0.19000
C11_50   0.40000 0.38000 0.38000 0.02000 0.19000 0.19000
C11_51   0.40000 0.38000 0.38000 0.02000 0.19000 0.19000
C11_52   0.40000 0.38000 0.38000 0.02000 0.19000 0.19000
C11_53   0.40000 0.38000 0.38000 0.02000 0.19000 0.19000
C11_54   0.40000 0.38000 0.38000 0.02000 0.19000 0.19000
C11_55   0.40000 0.38000 0.38000 0.02000 0.19000 0.19000
C11_56   0.40000 0.38000 0.38000 0.02000 0.19000 0.19000
C11_57   0.40000 0.38000 0.38000 0.02000 0.19000 0.19000
C11_58   0.40000 0.38000 0.38000 0.02000 0.19000 0.19000
C11_59   0.40000 0.38000 0.38000 0.02000 0.19000 0.19000
C11_60   0.40000 0.38000 0.38000 0.02000 0.19000 0.19000
C11_61   0.40000 0.38000 0.38000 0.02000 0.19000 0.19000
C11_62   0.40000 0.38000 0.38000 0.02000 0.19000 0.19000
C11_63   0.40000 0.38000 0.38000 0.02000 0.19000 0.19000
C11_64   0.40000 0.38000 0.38000 0.02000 0.19000 0.19000
C11_65   0.40000 0.38000 0.38000 0.02000 0.19000 0.19000
C11_66   0.40000 0.38000 0.38000 0.02000 0.19000 0.19000
C11_67   0.40000 0.38000 0.38000 0.02000 0.19000 0.19000
C11_68   0.40000 0.38000 0.38000 0.02000 0.19000 0.19000
C11_69   0.40000 0.38000 0.38000 0.02000 0.19000 0.19000
C11_70   0.40000 0.38000 0.38000 0.02000 0.19000 0.19000
C11_71   0.40000 0.38000 0.38000 0.02000 0.19000 0.19000
C11_72   0.40000 0.38000 0.38000 0.02000 0.19000 0.19000
C11_73   0.40000 0.38000 0.38000 0.02000 0.19000 0.19000
C11_74   0.40000 0.38000 0.38000 0.02000 0.19000 0.19000
C11_75   0.40000 0.38000 0.38000 0.02000 0.19000 0.19000
C11_76   0.40000 0.38000 0.38000 0.02000 0.19000 0.19000
C11_77   0.40000 0.38000 0.38000 0.02000 0.19000 0.19000
C11_78   0.40000 0.38000 0.38000 0.02000 0.19000 0.19000
C11_79   0.40000 0.38000 0.38000 0.02000 0.19000 0.19000
C11_80   0.40000 0.38000 0.38000 0.02000 0.19000 0.19000
C11_81   0.40000 0.38000 0.38000 0.02000 0.19000 0.19000
C11_82   0.40000 0.38000 0.38000 0.02000 0.19000 0.19000
C11_83   0.40000 0.38000 0.38000 0.02000 0.19000 0.19000
C11_84   0.40000 0.38000 0.38000 0.02000 0.19000 0.19000
C11_85   0.40000 0.38000 0.38000 0.02000 0.19000 0.19000
C11_86   0.40000 0.38000 0.38000 0.02000 0.19000 0.19000
C11_87   0.40000 0.38000 0.38000 0.02000 0.19000 0.19000
C11_88   0.40000 0.38000 0.38000 0.02000 0.19000 0.19000
C11_89   0.40000 0.38000 0.38000 0.02000 0.19000 0.19000
C11_90   0.40000 0.38000 0.38000 0.02000 0.19000 0.19000
C11_91   0.40000 0.38000 0.38000 0.02000 0.19000 0.19000
C11_92   0.40000 0.38000 0.38000 0.02000 0.19000 0.19000
C11_93   0.40000 0.38000 0.38000 0.02000 0.19000 0.19000
C11_94   0.40000 0.38000 0.38000 0.02000 0.19000 0.19000
C11_95   0.40000 0.38000 0.38000 0.02000 0.19000 0.19000
C11_96   0.40000 0.38000 0.38000 0.02000 0.19000 0.19000
C1_2   0.36100 0.39000 0.36100 0.22800 0.16700 0.22800
C1_3   0.36100 0.39000 0.36100 0.22800 0.16700 0.22800
C1_4   0.36100 0.39000 0.36100 0.22800 0.16700 0.22800
C1_5   0.36100 0.39000 0.36100 0.22800 0.16700 0.22800
C1_6   0.36100 0.39000 0.36100 0.22800 0.16700 0.22800
C1_7   0.36100 0.39000 0.36100 0.22800 0.16700 0.22800
C1_8   0.36100 0.39000 0.36100 0.22800 0.16700 0.22800
C1_9   0.36100 0.39000 0.36100 0.22800 0.16700 0.22800
C1_10   0.36100 0.39000 0.36100 0.22800 0.16700 0.22800
C1_11   0.36100 0.39000 0.36100 0.22800 0.16700 0.22800
C1_12   0.36100 0.39000 0.36100 0.22800 0.16700 0.22800
C1_13   0.36100 0.39000 0.36100 0.22800 0.16700 0.22800
C1_14   0.36100 0.39000 0.36100 0.22800 0.16700 0.22800
C1_15   0.36100 0.39000 0.36100 0.22800 0.16700 0.22800
C1_16   0.36100 0.39000 0.36100 0.22800 0.16700 0.22800
C1_17   0.36100 0.39000 0.36100 0.22800 0.16700 0.22800
C1_18   0.36100 0.39000 0.36100 0.22800 0.16700 0.22800
C1_19   0.36100 0.39000 0.36100 0.22800 0.16700 0.22800
C1_20   0.36100 0.39000 0.36100 0.22800 0.16700 0.22800
C1_21   0.36100 0.39000 0.36100 0.22800 0.16700 0.22800
C1_22   0.36100 0.39000 0.36100 0.22800 0.16700 0.22800
C1_23   0.36100 0.39000 0.36100 0.22800 0.16700 0.22800
C1_24   0.36100 0.39000 0.36100 0.22800 0.16700 0.22800
C1_25   0.36100 0.39000 0.36100 0.22800 0.16700 0.22800
C1_26   0.36100 0.39000 0.36100 0.22800 0.16700 0.22800
C1_27   0.36100 0.39000 0.36100 0.22800 0.16700 0.22800
C1_28   0.36100 0.39000 0.36100 0.22800 0.16700 0.22800
C1_29   0.36100 0.39000 0.36100 0.22800 0.16700 0.22800
C1_30   0.36100 0.39000 0.36100 0.22800 0.16700 0.22800
C1_31   0.36100 0.39000 0.36100 0.22800 0.16700 0.22800
C1_32   0.36100 0.39000 0.36100 0.22800 0.16700 0.22800
C1_33   0.36100 0.39000 0.36100 0.22800 0.16700 0.22800
C1_34   0.36100 0.39000 0.36100 0.22800 0.16700 0.22800
C1_35   0.36100 0.39000 0.36100 0.22800 0.16700 0.22800
C1_36   0.36100 0.39000 0.36100 0.22800 0.16700 0.22800
C1_37   0.36100 0.39000 0.36100 0.22800 0.16700 0.22800
C1_38   0.36100 0.39000 0.36100 0.22800 0.16700 0.22800
C1_39   0.36100 0.39000 0.36100 0.22800 0.16700 0.22800
C1_40   0.36100 0.39000 0.36100 0.22800 0.16700 0.22800
C1_41   0.36100 0.39000 0.36100 0.22800 0.16700 0.22800
C1_42   0.36100 0.39000 0.36100 0.22800 0.16700 0.22800
C1_43   0.36100 0.39000 0.36100 0.22800 0.16700 0.22800
C1_44   0.36100 0.39000 0.36100 0.22800 0.16700 0.22800
C1_45   0.36100 0.39000 0.36100 0.22800 0.16700 0.22800
C1_46   0.36100 0.39000 0.36100 0.22800 0.16700 0.22800
C1_47   0.36100 0.39000 0.36100 0.22800 0.16700 0.22800
C1_48   0.36100 0.39000 0.36100 0.22800 0.16700 0.22800
C1_49   0.36100 0.39000 0.36100 0.22800 0.16700 0.22800
C1_50   0.36100 0.39000 0.36100 0.22800 0.16700 0.22800
C1_51   0.36100 0.39000 0.36100 0.22800 0.16700 0.22800
C1_52   0.36100 0.39000 0.36100 0.22800 0.16700 0.22800
C1_53   0.36100 0.39000 0.36100 0.22800 0.16700 0.22800
C1_54   0.36100 0.39000 0.36100 0.22800 0.16700 0.22800
C1_55   0.36100 0.39000 0.36100 0.22800 0.16700 0.22800
C1_56   0.36100 0.39000 0.36100 0.22800 0.16700 0.22800
C1_57   0.36100 0.39000 0.36100 0.22800 0.16700 0.22800
C1_58   0.36100 0.39000 0.36100 0.22800 0.16700 0.22800
C1_59   0.36100 0.39000 0.36100 0.22800 0.16700 0.22800
C1_60   0.36100 0.39000 0.36100 0.22800 0.16700 0.22800
C1_61   0.36100 0.39000 0.36100 0.22800 0.16700 0.22800
C1_62   0.36100 0.39000 0.36100 0.22800 0.16700 0.22800
C1_63   0.36100 0.39000 0.36100 0.22800 0.16700 0.22800
C1_64   0.36100 0.39000 0.36100 0.22800 0.16700 0.22800
C1_65   0.36100 0.39000 0.36100 0.22800 0.16700 0.22800
C1_66   0.36100 0.39000 0.36100 0.22800 0.16700 0.22800
C1_67   0.36100 0.39000 0.36100 0.22800 0.16700 0.22800
C1_68   0.36100 0.39000 0.36100 0.22800 0.16700 0.22800
C1_69   0.36100 0.39000 0.36100 0.22800 0.16700 0.22800
C1_70   0.36100 0.39000 0.36100 0.22800 0.16700 0.22800
C1_71   0.36100 0.39000 0.36100 0.22800 0.16700 0.22800
C1_72   0.36100 0.39000 0.36100 0.22800 0.16700 0.22800
C1_73   0.36100 0.39000 0.36100 0.22800 0.16700 0.22800
C1_74   0.36100 0.39000 0.36100 0.22800 0.16700 0.22800
C1_75   0.36100 0.39000 0.36100 0.22800 0.16700 0.22800
C1_76   0.36100 0.39000 0.36100 0.22800 0.16700 0.22800
C1_77   0.36100 0.39000 0.36100 0.22800 0.16700 0.22800
C1_78   0.36100 0.39000 0.36100 0.22800 0.16700 0.22800
C1_79   0.36100 0.39000 0.36100 0.22800 0.16700 0.22800
C1_80   0.36100 0.39000 0.36100 0.22800 0.16700 0.22800
C1_81   0.36100 0.39000 0.36100 0.22800 0.16700 0.22800
C1_82   0.36100 0.39000 0.36100 0.22800 0.16700 0.22800
C1_83   0.36100 0.39000 0.36100 0.22800 0.16700 0.22800
C1_84   0.36100 0.39000 0.36100 0.22800 0.16700 0.22800
C1_85   0.36100 0.39000 0.36100 0.22800 0.16700 0.22800
C1_86   0.36100 0.39000 0.36100 0.22800 0.16700 0.22800
C1_87   0.36100 0.39000 0.36100 0.22800 0.16700 0.22800
C1_88   0.36100 0.39000 0.36100 0.22800 0.16700 0.22800
C1_89   0.36100 0.39000 0.36100 0.22800 0.16700 0.22800
C1_90   0.36100 0.39000 0.36100 0.22800 0.16700 0.22800
C1_91   0.36100 0.39000 0.36100 0.22800 0.16700 0.22800
C1_92   0.36100 0.39000 0.36100 0.22800 0.16700 0.22800
C1_93   0.36100 0.39000 0.36100 0.22800 0.16700 0.22800
C1_94   0.36100 0.39000 0.36100 0.22800 0.16700 0.22800
C1_95   0.36100 0.39000 0.36100 0.22800 0.16700 0.22800
C1_96   0.36100 0.39000 0.36100 0.22800 0.16700 0.22800
C2_2   0.44000 0.31900 0.31900 0.26100 0.19000 0.19000
C2_3   0.44000 0.31900 0.31900 0.26100 0.19000 0.19000
C2_4   0.44000 0.31900 0.31900 0.26100 0.19000 0.19000
C2_5   0.44000 0.31900 0.31900 0.26100 0.19000 0.19000
C2_6   0.44000 0.31900 0.31900 0.26100 0.19000 0.19000
C2_7   0.44000 0.31900 0.31900 0.26100 0.19000 0.19000
C2_8   0.44000 0.31900 0.31900 0.26100 0.19000 0.19000
C2_9   0.44000 0.31900 0.31900 0.26100 0.19000 0.19000
C2_10   0.44000 0.31900 0.31900 0.26100 0.19000 0.19000
C2_11   0.44000 0.31900 0.31900 0.26100 0.19000 0.19000
C2_12   0.44000 0.31900 0.31900 0.26100 0.19000 0.19000
C2_13   0.44000 0.31900 0.31900 0.26100 0.19000 0.19000
C2_14   0.44000 0.31900 0.31900 0.26100 0.19000 0.19000
C2_15   0.44000 0.31900 0.31900 0.26100 0.19000 0.19000
C2_16   0.44000 0.31900 0.31900 0.26100 0.19000 0.19000
C2_17   0.44000 0.31900 0.31900 0.26100 0.19000 0.19000
C2_18   0.44000 0.31900 0.31900 0.26100 0.19000 0.19000
C2_19   0.44000 0.31900 0.31900 0.26100 0.19000 0.19000
C2_20   0.44000 0.31900 0.31900 0.26100 0.19000 0.19000
C2_21   0.44000 0.31900 0.31900 0.26100 0.19000 0.19000
C2_22   0.44000 0.31900 0.31900 0.26100 0.19000 0.19000
C2_23   0.44000 0.31900 0.31900 0.26100 0.19000 0.19000
C2_24   0.44000 0.31900 0.31900 0.26100 0.19000 0.19000
C2_25   0.44000 0.31900 0.31900 0.26100 0.19000 0.19000
C2_26   0.44000 0.31900 0.31900 0.26100 0.19000 0.19000
C2_27   0.44000 0.31900 0.31900 0.26100 0.19000 0.19000
C2_28   0.44000 0.31900 0.31900 0.26100 0.19000 0.19000
C2_29   0.44000 0.31900 0.31900 0.26100 0.19000 0.19000
C2_30   0.44000 0.31900 0.31900 0.26100 0.19000 0.19000
C2_31   0.44000 0.31900 0.31900 0.26100 0.19000 0.19000
C2_32   0.44000 0.31900 0.31900 0.26100 0.19000 0.19000
C2_33   0.44000 0.31900 0.31900 0.26100 0.19000 0.19000
C2_34   0.44000 0.31900 0.31900 0.26100 0.19000 0.19000
C2_35   0.44000 0.31900 0.31900 0.26100 0.19000 0.19000
C2_36   0.44000 0.31900 0.31900 0.26100 0.19000 0.19000
C2_37   0.44000 0.31900 0.31900 0.26100 0.19000 0.19000
C2_38   0.44000 0.31900 0.31900 0.26100 0.19000 0.19000
C2_39   0.44000 0.31900 0.31900 0.26100 0.19000 0.19000
C2_40   0.44000 0.31900 0.31900 0.26100 0.19000 0.19000
C2_41   0.44000 0.31900 0.31900 0.26100 0.19000 0.19000
C2_42   0.44000 0.31900 0.31900 0.26100 0.19000 0.19000
C2_43   0.44000 0.31900 0.31900 0.26100 0.19000 0.19000
C2_44   0.44000 0.31900 0.31900 0.26100 0.19000 0.19000
C2_45   0.44000 0.31900 0.31900 0.26100 0.19000 0.19000
C2_46   0.44000 0.31900 0.31900 0.26100 0.19000 0.19000
C2_47   0.44000 0.31900 0.31900 0.26100 0.19000 0.19000
C2_48   0.44000 0.31900 0.31900 0.26100 0.19000 0.19000
C2_49   0.44000 0.31900 0.31900 0.26100 0.19000 0.19000
C2_50   0.44000 0.31900 0.31900 0.26100 0.19000 0.19000
C2_51   0.44000 0.31900 0.31900 0.26100 0.19000 0.19000
C2_52   0.44000 0.31900 0.31900 0.26100 0.19000 0.19000
C2_53   0.44000 0.31900 0.31900 0.26100 0.19000 0.19000
C2_54   0.44000 0.31900 0.31900 0.26100 0.19000 0.19000
C2_55   0.44000 0.31900 0.31900 0.26100 0.19000 0.19000
C2_56   0.44000 0.31900 0.31900 0.26100 0.19000 0.19000
C2_57   0.44000 0.31900 0.31900 0.26100 0.19000 0.19000
C2_58   0.44000 0.31900 0.31900 0.26100 0.19000 0.19000
C2_59   0.44000 0.31900 0.31900 0.26100 0.19000 0.19000
C2_60   0.44000 0.31900 0.31900 0.26100 0.19000 0.19000
C2_61   0.44000 0.31900 0.31900 0.26100 0.19000 0.19000
C2_62   0.44000 0.31900 0.31900 0.26100 0.19000 0.19000
C2_63   0.44000 0.31900 0.31900 0.26100 0.19000 0.19000
C2_64   0.44000 0.31900 0.31900 0.26100 0.19000 0.19000
C2_65   0.44000 0.31900 0.31900 0.26100 0.19000 0.19000
C2_66   0.44000 0.31900 0.31900 0.26100 0.19000 0.19000
C2_67   0.44000 0.31900 0.31900 0.26100 0.19000 0.19000
C2_68   0.44000 0.31900 0.31900 0.26100 0.19000 0.19000
C2_69   0.44000 0.31900 0.31900 0.26100 0.19000 0.19000
C2_70   0.44000 0.31900 0.31900 0.26100 0.19000 0.19000
C2_71   0.44000 0.31900 0.31900 0.26100 0.19000 0.19000
C2_72   0.44000 0.31900 0.31900 0.26100 0.19000 0.19000
C2_73   0.44000 0.31900 0.31900 0.26100 0.19000 0.19000
C2_74   0.44000 0.31900 0.31900 0.26100 0.19000 0.19000
C2_75   0.44000 0.31900 0.31900 0.26100 0.19000 0.19000
C2_76   0.44000 0.31900 0.31900 0.26100 0.19000 0.19000
C2_77   0.44000 0.31900 0.31900 0.26100 0.19000 0.19000
C2_78   0.44000 0.31900 0.31900 0.26100 0.19000 0.19000
C2_79   0.44000 0.31900 0.31900 0.26100 0.19000 0.19000
C2_80   0.44000 0.31900 0.31900 0.26100 0.19000 0.19000
C2_81   0.44000 0.31900 0.31900 0.26100 0.19000 0.19000
C2_82   0.44000 0.31900 0.31900 0.26100 0.19000 0.19000
C2_83   0.44000 0.31900 0.31900 0.26100 0.19000 0.19000
C2_84   0.44000 0.31900 0.31900 0.26100 0.19000 0.19000
C2_85   0.44000 0.31900 0.31900 0.26100 0.19000 0.19000
C2_86   0.44000 0.31900 0.31900 0.26100 0.19000 0.19000
C2_87   0.44000 0.31900 0.31900 0.26100 0.19000 0.19000
C2_88   0.44000 0.31900 0.31900 0.26100 0.19000 0.19000
C2_89   0.44000 0.31900 0.31900 0.26100 0.19000 0.19000
C2_90   0.44000 0.31900 0.31900 0.26100 0.19000 0.19000
C2_91   0.44000 0.31900 0.31900 0.26100 0.19000 0.19000
C2_92   0.44000 0.31900 0.31900 0.26100 0.19000 0.19000
C2_93   0.44000 0.31900 0.31900 0.26100 0.19000 0.19000
C2_94   0.44000 0.31900 0.31900 0.26100 0.19000 0.19000
C2_95   0.44000 0.31900 0.31900 0.26100 0.19000 0.19000
C2_96   0.44000 0.31900 0.31900 0.26100 0.19000 0.19000
C3_2   0.38000 0.39800 0.39800 0.22900 0.29200 0.29200
C3_3   0.38000 0.39800 0.39800 0.22900 0.29200 0.29200
C3_4   0.38000 0.39800 0.39800 0.22900 0.29200 0.29200
C3_5   0.38000 0.39800 0.39800 0.22900 0.29200 0.29200
C3_6   0.38000 0.39800 0.39800 0.22900 0.29200 0.29200
C3_7   0.38000 0.39800 0.39800 0.22900 0.29200 0.29200
C3_8   0.38000 0.39800 0.39800 0.22900 0.29200 0.29200
C3_9   0.38000 0.39800 0.39800 0.22900 0.29200 0.29200
C3_10   0.38000 0.39800 0.39800 0.22900 0.29200 0.29200
C3_11   0.38000 0.39800 0.39800 0.22900 0.29200 0.29200
C3_12   0.38000 0.39800 0.39800 0.22900 0.29200 0.29200
C3_13   0.38000 0.39800 0.39800 0.22900 0.29200 0.29200
C3_14   0.38000 0.39800 0.39800 0.22900 0.29200 0.29200
C3_15   0.38000 0.39800 0.39800 0.22900 0.29200 0.29200
C3_16   0.38000 0.39800 0.39800 0.22900 0.29200 0.29200
C3_17   0.38000 0.39800 0.39800 0.22900 0.29200 0.29200
C3_18   0.38000 0.39800 0.39800 0.22900 0.29200 0.29200
C3_19   0.38000 0.39800 0.39800 0.22900 0.29200 0.29200
C3_20   0.38000 0.39800 0.39800 0.22900 0.29200 0.29200
C3_21   0.38000 0.39800 0.39800 0.22900 0.29200 0.29200
C3_22   0.38000 0.39800 0.39800 0.22900 0.29200 0.29200
C3_23   0.38000 0.39800 0.39800 0.22900 0.29200 0.29200
C3_24   0.38000 0.39800 0.39800 0.22900 0.29200 0.29200
C3_25   0.38000 0.39800 0.39800 0.22900 0.29200 0.29200
C3_26   0.38000 0.39800 0.39800 0.22900 0.29200 0.29200
C3_27   0.38000 0.39800 0.39800 0.22900 0.29200 0.29200
C3_28   0.38000 0.39800 0.39800 0.22900 0.29200 0.29200
C3_29   0.38000 0.39800 0.39800 0.22900 0.29200 0.29200
C3_30   0.38000 0.39800 0.39800 0.22900 0.29200 0.29200
C3_31   0.38000 0.39800 0.39800 0.22900 0.29200 0.29200
C3_32   0.38000 0.39800 0.39800 0.22900 0.29200 0.29200
C3_33   0.38000 0.39800 0.39800 0.22900 0.29200 0.29200
C3_34   0.38000 0.39800 0.39800 0.22900 0.29200 0.29200
C3_35   0.38000 0.39800 0.39800 0.22900 0.29200 0.29200
C3_36   0.38000 0.39800 0.39800 0.22900 0.29200 0.29200
C3_37   0.38000 0.39800 0.39800 0.22900 0.29200 0.29200
C3_38   0.38000 0.39800 0.39800 0.22900 0.29200 0.29200
C3_39   0.38000 0.39800 0.39800 0.22900 0.29200 0.29200
C3_40   0.38000 0.39800 0.39800 0.22900 0.29200 0.29200
C3_41   0.38000 0.39800 0.39800 0.22900 0.29200 0.29200
C3_42   0.38000 0.39800 0.39800 0.22900 0.29200 0.29200
C3_43   0.38000 0.39800 0.39800 0.22900 0.29200 0.29200
C3_44   0.38000 0.39800 0.39800 0.22900 0.29200 0.29200
C3_45   0.38000 0.39800 0.39800 0.22900 0.29200 0.29200
C3_46   0.38000 0.39800 0.39800 0.22900 0.29200 0.29200
C3_47   0.38000 0.39800 0.39800 0.22900 0.29200 0.29200
C3_48   0.38000 0.39800 0.39800 0.22900 0.29200 0.29200
C3_49   0.38000 0.39800 0.39800 0.22900 0.29200 0.29200
C3_50   0.38000 0.39800 0.39800 0.22900 0.29200 0.29200
C3_51   0.38000 0.39800 0.39800 0.22900 0.29200 0.29200
C3_52   0.38000 0.39800 0.39800 0.22900 0.29200 0.29200
C3_53   0.38000 0.39800 0.39800 0.22900 0.29200 0.29200
C3_54   0.38000 0.39800 0.39800 0.22900 0.29200 0.29200
C3_55   0.38000 0.39800 0.39800 0.22900 0.29200 0.29200
C3_56   0.38000 0.39800 0.39800 0.22900 0.29200 0.29200
C3_57   0.38000 0.39800 0.39800 0.22900 0.29200 0.29200
C3_58   0.38000 0.39800 0.39800 0.22900 0.29200 0.29200
C3_59   0.38000 0.39800 0.39800 0.22900 0.29200 0.29200
C3_60   0.38000 0.39800 0.39800 0.22900 0.29200 0.29200
C3_61   0.38000 0.39800 0.39800 0.22900 0.29200 0.29200
C3_62   0.38000 0.39800 0.39800 0.22900 0.29200 0.29200
C3_63   0.38000 0.39800 0.39800 0.22900 0.29200 0.29200
C3_64   0.38000 0.39800 0.39800 0.22900 0.29200 0.29200
C3_65   0.38000 0.39800 0.39800 0.22900 0.29200 0.29200
C3_66   0.38000 0.39800 0.39800 0.22900 0.29200 0.29200
C3_67   0.38000 0.39800 0.39800 0.22900 0.29200 0.29200
C3_68   0.38000 0.39800 0.39800 0.22900 0.29200 0.29200
C3_69   0.38000 0.39800 0.39800 0.22900 0.29200 0.29200
C3_70   0.38000 0.39800 0.39800 0.22900 0.29200 0.29200
C3_71   0.38000 0.39800 0.39800 0.22900 0.29200 0.29200
C3_72   0.38000 0.39800 0.39800 0.22900 0.29200 0.29200
C3_73   0.38000 0.39800 0.39800 0.22900 0.29200 0.29200
C3_74   0.38000 0.39800 0.39800 0.22900 0.29200 0.29200
C3_75   0.38000 0.39800 0.39800 0.22900 0.29200 0.29200
C3_76   0.38000 0.39800 0.39800 0.22900 0.29200 0.29200
C3_77   0.38000 0.39800 0.39800 0.22900 0.29200 0.29200
C3_78   0.38000 0.39800 0.39800 0.22900 0.29200 0.29200
C3_79   0.38000 0.39800 0.39800 0.22900 0.29200 0.29200
C3_80   0.38000 0.39800 0.39800 0.22900 0.29200 0.29200
C3_81   0.38000 0.39800 0.39800 0.22900 0.29200 0.29200
C3_82   0.38000 0.39800 0.39800 0.22900 0.29200 0.29200
C3_83   0.38000 0.39800 0.39800 0.22900 0.29200 0.29200
C3_84   0.38000 0.39800 0.39800 0.22900 0.29200 0.29200
C3_85   0.38000 0.39800 0.39800 0.22900 0.29200 0.29200
C3_86   0.38000 0.39800 0.39800 0.22900 0.29200 0.29200
C3_87   0.38000 0.39800 0.39800 0.22900 0.29200 0.29200
C3_88   0.38000 0.39800 0.39800 0.22900 0.29200 0.29200
C3_89   0.38000 0.39800 0.39800 0.22900 0.29200 0.29200
C3_90   0.38000 0.39800 0.39800 0.22900 0.29200 0.29200
C3_91   0.38000 0.39800 0.39800 0.22900 0.29200 0.29200
C3_92   0.38000 0.39800 0.39800 0.22900 0.29200 0.29200
C3_93   0.38000 0.39800 0.39800 0.22900 0.29200 0.29200
C3_94   0.38000 0.39800 0.39800 0.22900 0.29200 0.29200
C3_95   0.38000 0.39800 0.39800 0.22900 0.29200 0.29200
C3_96   0.38000 0.39800 0.39800 0.22900 0.29200 0.29200
C4_2   0.45000 0.55000 0.67000 0.43000 0.28000 0.33800
C4_3   0.45000 0.55000 0.67000 0.43000 0.28000 0.33800
C4_4   0.45000 0.55000 0.67000 0.43000 0.28000 0.33800
C4_5   0.45000 0.55000 0.67000 0.43000 0.28000 0.33800
C4_6   0.45000 0.55000 0.67000 0.43000 0.28000 0.33800
C4_7   0.45000 0.55000 0.67000 0.43000 0.28000 0.33800
C4_8   0.45000 0.55000 0.67000 0.43000 0.28000 0.33800
C4_9   0.45000 0.55000 0.67000 0.43000 0.28000 0.33800
C4_10   0.45000 0.55000 0.67000 0.43000 0.28000 0.33800
C4_11   0.45000 0.55000 0.67000 0.43000 0.28000 0.33800
C4_12   0.45000 0.55000 0.67000 0.43000 0.28000 0.33800
C4_13   0.45000 0.55000 0.67000 0.43000 0.28000 0.33800
C4_14   0.45000 0.55000 0.67000 0.43000 0.28000 0.33800
C4_15   0.45000 0.55000 0.67000 0.43000 0.28000 0.33800
C4_16   0.45000 0.55000 0.67000 0.43000 0.28000 0.33800
C4_17   0.45000 0.55000 0.67000 0.43000 0.28000 0.33800
C4_18   0.45000 0.55000 0.67000 0.43000 0.28000 0.33800
C4_19   0.45000 0.55000 0.67000 0.43000 0.28000 0.33800
C4_20   0.45000 0.55000 0.67000 0.43000 0.28000 0.33800
C4_21   0.45000 0.55000 0.67000 0.43000 0.28000 0.33800
C4_22   0.45000 0.55000 0.67000 0.43000 0.28000 0.33800
C4_23   0.45000 0.55000 0.67000 0.43000 0.28000 0.33800
C4_24   0.45000 0.55000 0.67000 0.43000 0.28000 0.33800
C4_25   0.45000 0.55000 0.67000 0.43000 0.28000 0.33800
C4_26   0.45000 0.55000 0.67000 0.43000 0.28000 0.33800
C4_27   0.45000 0.55000 0.67000 0.43000 0.28000 0.33800
C4_28   0.45000 0.55000 0.67000 0.43000 0.28000 0.33800
C4_29   0.45000 0.55000 0.67000 0.43000 0.28000 0.33800
C4_30   0.45000 0.55000 0.67000 0.43000 0.28000 0.33800
C4_31   0.45000 0.55000 0.67000 0.43000 0.28000 0.33800
C4_32   0.45000 0.55000 0.67000 0.43000 0.28000 0.33800
C4_33   0.45000 0.55000 0.67000 0.43000 0.28000 0.33800
C4_34   0.45000 0.55000 0.67000 0.43000 0.28000 0.33800
C4_35   0.45000 0.55000 0.67000 0.43000 0.28000 0.33800
C4_36   0.45000 0.55000 0.67000 0.43000 0.28000 0.33800
C4_37   0.45000 0.55000 0.67000 0.43000 0.28000 0.33800
C4_38   0.45000 0.55000 0.67000 0.43000 0.28000 0.33800
C4_39   0.45000 0.55000 0.67000 0.43000 0.28000 0.33800
C4_40   0.45000 0.55000 0.67000 0.43000 0.28000 0.33800
C4_41   0.45000 0.55000 0.67000 0.43000 0.28000 0.33800
C4_42   0.45000 0.55000 0.67000 0.43000 0.28000 0.33800
C4_43   0.45000 0.55000 0.67000 0.43000 0.28000 0.33800
C4_44   0.45000 0.55000 0.67000 0.43000 0.28000 0.33800
C4_45   0.45000 0.55000 0.67000 0.43000 0.28000 0.33800
C4_46   0.45000 0.55000 0.67000 0.43000 0.28000 0.33800
C4_47   0.45000 0.55000 0.67000 0.43000 0.28000 0.33800
C4_48   0.45000 0.55000 0.67000 0.43000 0.28000 0.33800
C4_49   0.45000 0.55000 0.67000 0.43000 0.28000 0.33800
C4_50   0.45000 0.55000 0.67000 0.43000 0.28000 0.33800
C4_51   0.45000 0.55000 0.67000 0.43000 0.28000 0.33800
C4_52   0.45000 0.55000 0.67000 0.43000 0.28000 0.33800
C4_53   0.45000 0.55000 0.67000 0.43000 0.28000 0.33800
C4_54   0.45000 0.55000 0.67000 0.43000 0.28000 0.33800
C4_55   0.45000 0.55000 0.67000 0.43000 0.28000 0.33800
C4_56   0.45000 0.55000 0.67000 0.43000 0.28000 0.33800
C4_57   0.45000 0.55000 0.67000 0.43000 0.28000 0.33800
C4_58   0.45000 0.55000 0.67000 0.43000 0.28000 0.33800
C4_59   0.45000 0.55000 0.67000 0.43000 0.28000 0.33800
C4_60   0.45000 0.55000 0.67000 0.43000 0.28000 0.33800
C4_61   0.45000 0.55000 0.67000 0.43000 0.28000 0.33800
C4_62   0.45000 0.55000 0.67000 0.43000 0.28000 0.33800
C4_63   0.45000 0.55000 0.67000 0.43000 0.28000 0.33800
C4_64   0.45000 0.55000 0.67000 0.43000 0.28000 0.33800
C4_65   0.45000 0.55000 0.67000 0.43000 0.28000 0.33800
C4_66   0.45000 0.55000 0.67000 0.43000 0.28000 0.33800
C4_67   0.45000 0.55000 0.67000 0.43000 0.28000 0.33800
C4_68   0.45000 0.55000 0.67000 0.43000 0.28000 0.33800
C4_69   0.45000 0.55000 0.67000 0.43000 0.28000 0.33800
C4_70   0.45000 0.55000 0.67000 0.43000 0.28000 0.33800
C4_71   0.45000 0.55000 0.67000 0.43000 0.28000 0.33800
C4_72   0.45000 0.55000 0.67000 0.43000 0.28000 0.33800
C4_73   0.45000 0.55000 0.67000 0.43000 0.28000 0.33800
C4_74   0.45000 0.55000 0.67000 0.43000 0.28000 0.33800
C4_75   0.45000 0.55000 0.67000 0.43000 0.28000 0.33800
C4_76   0.45000 0.55000 0.67000 0.43000 0.28000 0.33800
C4_77   0.45000 0.55000 0.67000 0.43000 0.28000 0.33800
C4_78   0.45000 0.55000 0.67000 0.43000 0.28000 0.33800
C4_79   0.45000 0.55000 0.67000 0.43000 0.28000 0.33800
C4_80   0.45000 0.55000 0.67000 0.43000 0.28000 0.33800
C4_81   0.45000 0.55000 0.67000 0.43000 0.28000 0.33800
C4_82   0.45000 0.55000 0.67000 0.43000 0.28000 0.33800
C4_83   0.45000 0.55000 0.67000 0.43000 0.28000 0.33800
C4_84   0.45000 0.55000 0.67000 0.43000 0.28000 0.33800
C4_85   0.45000 0.55000 0.67000 0.43000 0.28000 0.33800
C4_86   0.45000 0.55000 0.67000 0.43000 0.28000 0.33800
C4_87   0.45000 0.55000 0.67000 0.43000 0.28000 0.33800
C4_88   0.45000 0.55000 0.67000 0.43000 0.28000 0.33800
C4_89   0.45000 0.55000 0.67000 0.43000 0.28000 0.33800
C4_90   0.45000 0.55000 0.67000 0.43000 0.28000 0.33800
C4_91   0.45000 0.55000 0.67000 0.43000 0.28000 0.33800
C4_92   0.45000 0.55000 0.67000 0.43000 0.28000 0.33800
C4_93   0.45000 0.55000 0.67000 0.43000 0.28000 0.33800
C4_94   0.45000 0.55000 0.67000 0.43000 0.28000 0.33800
C4_95   0.45000 0.55000 0.67000 0.43000 0.28000 0.33800
C4_96   0.45000 0.55000 0.67000 0.43000 0.28000 0.33800
C4_97   0.45000 0.55000 0.67000 0.43000 0.28000 0.33800
C4_98   0.45000 0.55000 0.67000 0.43000 0.28000 0.33800
C4_99   0.45000 0.55000 0.67000 0.43000 0.28000 0.33800
C4_100   0.45000 0.55000 0.67000 0.43000 0.28000 0.33800
C4_101   0.45000 0.55000 0.67000 0.43000 0.28000 0.33800
C4_102   0.45000 0.55000 0.67000 0.43000 0.28000 0.33800
C4_103   0.45000 0.55000 0.67000 0.43000 0.28000 0.33800
C4_104   0.45000 0.55000 0.67000 0.43000 0.28000 0.33800
C4_105   0.45000 0.55000 0.67000 0.43000 0.28000 0.33800
C4_106   0.45000 0.55000 0.67000 0.43000 0.28000 0.33800
C4_107   0.45000 0.55000 0.67000 0.43000 0.28000 0.33800
C4_108   0.45000 0.55000 0.67000 0.43000 0.28000 0.33800
C4_109   0.45000 0.55000 0.67000 0.43000 0.28000 0.33800
C4_110   0.45000 0.55000 0.67000 0.43000 0.28000 0.33800
C4_111   0.45000 0.55000 0.67000 0.43000 0.28000 0.33800
C4_112   0.45000 0.55000 0.67000 0.43000 0.28000 0.33800
C4_113   0.45000 0.55000 0.67000 0.43000 0.28000 0.33800
C4_114   0.45000 0.55000 0.67000 0.43000 0.28000 0.33800
C4_115   0.45000 0.55000 0.67000 0.43000 0.28000 0.33800
C4_116   0.45000 0.55000 0.67000 0.43000 0.28000 0.33800
C4_117   0.45000 0.55000 0.67000 0.43000 0.28000 0.33800
C4_118   0.45000 0.55000 0.67000 0.43000 0.28000 0.33800
C4_119   0.45000 0.55000 0.67000 0.43000 0.28000 0.33800
C4_120   0.45000 0.55000 0.67000 0.43000 0.28000 0.33800
C4_121   0.45000 0.55000 0.67000 0.43000 0.28000 0.33800
C4_122   0.45000 0.55000 0.67000 0.43000 0.28000 0.33800
C4_123   0.45000 0.55000 0.67000 0.43000 0.28000 0.33800
C4_124   0.45000 0.55000 0.67000 0.43000 0.28000 0.33800
C4_125   0.45000 0.55000 0.67000 0.43000 0.28000 0.33800
C4_126   0.45000 0.55000 0.67000 0.43000 0.28000 0.33800
C4_127   0.45000 0.55000 0.67000 0.43000 0.28000 0.33800
C4_128   0.45000 0.55000 0.67000 0.43000 0.28000 0.33800
C4_129   0.45000 0.55000 0.67000 0.43000 0.28000 0.33800
C4_130   0.45000 0.55000 0.67000 0.43000 0.28000 0.33800
C4_131   0.45000 0.55000 0.67000 0.43000 0.28000 0.33800
C4_132   0.45000 0.55000 0.67000 0.43000 0.28000 0.33800
C4_133   0.45000 0.55000 0.67000 0.43000 0.28000 0.33800
C4_134   0.45000 0.55000 0.67000 0.43000 0.28000 0.33800
C4_135   0.45000 0.55000 0.67000 0.43000 0.28000 0.33800
C4_136   0.45000 0.55000 0.67000 0.43000 0.28000 0.33800
C4_137   0.45000 0.55000 0.67000 0.43000 0.28000 0.33800
C4_138   0.45000 0.55000 0.67000 0.43000 0.28000 0.33800
C4_139   0.45000 0.55000 0.67000 0.43000 0.28000 0.33800
C4_140   0.45000 0.55000 0.67000 0.43000 0.28000 0.33800
C4_141   0.45000 0.55000 0.67000 0.43000 0.28000 0.33800
C4_142   0.45000 0.55000 0.67000 0.43000 0.28000 0.33800
C4_143   0.45000 0.55000 0.67000 0.43000 0.28000 0.33800
C4_144   0.45000 0.55000 0.67000 0.43000 0.28000 0.33800
C4_145   0.45000 0.55000 0.67000 0.43000 0.28000 0.33800
C4_146   0.45000 0.55000 0.67000 0.43000 0.28000 0.33800
C4_147   0.45000 0.55000 0.67000 0.43000 0.28000 0.33800
C4_148   0.45000 0.55000 0.67000 0.43000 0.28000 0.33800
C4_149   0.45000 0.55000 0.67000 0.43000 0.28000 0.33800
C4_150   0.45000 0.55000 0.67000 0.43000 0.28000 0.33800
C4_151   0.45000 0.55000 0.67000 0.43000 0.28000 0.33800
C4_152   0.45000 0.55000 0.67000 0.43000 0.28000 0.33800
C4_153   0.45000 0.55000 0.67000 0.43000 0.28000 0.33800
C4_154   0.45000 0.55000 0.67000 0.43000 0.28000 0.33800
C4_155   0.45000 0.55000 0.67000 0.43000 0.28000 0.33800
C4_156   0.45000 0.55000 0.67000 0.43000 0.28000 0.33800
C4_157   0.45000 0.55000 0.67000 0.43000 0.28000 0.33800
C4_158   0.45000 0.55000 0.67000 0.43000 0.28000 0.33800
C4_159   0.45000 0.55000 0.67000 0.43000 0.28000 0.33800
C4_160   0.45000 0.55000 0.67000 0.43000 0.28000 0.33800
C4_161   0.45000 0.55000 0.67000 0.43000 0.28000 0.33800
C4_162   0.45000 0.55000 0.67000 0.43000 0.28000 0.33800
C4_163   0.45000 0.55000 0.67000 0.43000 0.28000 0.33800
C4_164   0.45000 0.55000 0.67000 0.43000 0.28000 0.33800
C4_165   0.45000 0.55000 0.67000 0.43000 0.28000 0.33800
C4_166   0.45000 0.55000 0.67000 0.43000 0.28000 0.33800
C4_167   0.45000 0.55000 0.67000 0.43000 0.28000 0.33800
C4_168   0.45000 0.55000 0.67000 0.43000 0.28000 0.33800
C4_169   0.45000 0.55000 0.67000 0.43000 0.28000 0.33800
C4_170   0.45000 0.55000 0.67000 0.43000 0.28000 0.33800
C4_171   0.45000 0.55000 0.67000 0.43000 0.28000 0.33800
C4_172   0.45000 0.55000 0.67000 0.43000 0.28000 0.33800
C4_173   0.45000 0.55000 0.67000 0.43000 0.28000 0.33800
C4_174   0.45000 0.55000 0.67000 0.43000 0.28000 0.33800
C4_175   0.45000 0.55000 0.67000 0.43000 0.28000 0.33800
C4_176   0.45000 0.55000 0.67000 0.43000 0.28000 0.33800
C4_177   0.45000 0.55000 0.67000 0.43000 0.28000 0.33800
C4_178   0.45000 0.55000 0.67000 0.43000 0.28000 0.33800
C4_179   0.45000 0.55000 0.67000 0.43000 0.28000 0.33800
C4_180   0.45000 0.55000 0.67000 0.43000 0.28000 0.33800
C4_181   0.45000 0.55000 0.67000 0.43000 0.28000 0.33800
C4_182   0.45000 0.55000 0.67000 0.43000 0.28000 0.33800
C4_183   0.45000 0.55000 0.67000 0.43000 0.28000 0.33800
C4_184   0.45000 0.55000 0.67000 0.43000 0.28000 0.33800
C4_185   0.45000 0.55000 0.67000 0.43000 0.28000 0.33800
C4_186   0.45000 0.55000 0.67000 0.43000 0.28000 0.33800
C4_187   0.45000 0.55000 0.67000 0.43000 0.28000 0.33800
C4_188   0.45000 0.55000 0.67000 0.43000 0.28000 0.33800
C4_189   0.45000 0.55000 0.67000 0.43000 0.28000 0.33800
C4_190   0.45000 0.55000 0.67000 0.43000 0.28000 0.33800
C4_191   0.45000 0.55000 0.67000 0.43000 0.28000 0.33800
C4_192   0.45000 0.55000 0.67000 0.43000 0.28000 0.33800
C5_2   0.41000 0.77000 0.44000 0.24000 0.26600 0.25000
C5_3   0.41000 0.77000 0.44000 0.24000 0.26600 0.25000
C5_4   0.41000 0.77000 0.44000 0.24000 0.26600 0.25000
C5_5   0.41000 0.77000 0.44000 0.24000 0.26600 0.25000
C5_6   0.41000 0.77000 0.44000 0.24000 0.26600 0.25000
C5_7   0.41000 0.77000 0.44000 0.24000 0.26600 0.25000
C5_8   0.41000 0.77000 0.44000 0.24000 0.26600 0.25000
C5_9   0.41000 0.77000 0.44000 0.24000 0.26600 0.25000
C5_10   0.41000 0.77000 0.44000 0.24000 0.26600 0.25000
C5_11   0.41000 0.77000 0.44000 0.24000 0.26600 0.25000
C5_12   0.41000 0.77000 0.44000 0.24000 0.26600 0.25000
C5_13   0.41000 0.77000 0.44000 0.24000 0.26600 0.25000
C5_14   0.41000 0.77000 0.44000 0.24000 0.26600 0.25000
C5_15   0.41000 0.77000 0.44000 0.24000 0.26600 0.25000
C5_16   0.41000 0.77000 0.44000 0.24000 0.26600 0.25000
C5_17   0.41000 0.77000 0.44000 0.24000 0.26600 0.25000
C5_18   0.41000 0.77000 0.44000 0.24000 0.26600 0.25000
C5_19   0.41000 0.77000 0.44000 0.24000 0.26600 0.25000
C5_20   0.41000 0.77000 0.44000 0.24000 0.26600 0.25000
C5_21   0.41000 0.77000 0.44000 0.24000 0.26600 0.25000
C5_22   0.41000 0.77000 0.44000 0.24000 0.26600 0.25000
C5_23   0.41000 0.77000 0.44000 0.24000 0.26600 0.25000
C5_24   0.41000 0.77000 0.44000 0.24000 0.26600 0.25000
C5_25   0.41000 0.77000 0.44000 0.24000 0.26600 0.25000
C5_26   0.41000 0.77000 0.44000 0.24000 0.26600 0.25000
C5_27   0.41000 0.77000 0.44000 0.24000 0.26600 0.25000
C5_28   0.41000 0.77000 0.44000 0.24000 0.26600 0.25000
C5_29   0.41000 0.77000 0.44000 0.24000 0.26600 0.25000
C5_30   0.41000 0.77000 0.44000 0.24000 0.26600 0.25000
C5_31   0.41000 0.77000 0.44000 0.24000 0.26600 0.25000
C5_32   0.41000 0.77000 0.44000 0.24000 0.26600 0.25000
C5_33   0.41000 0.77000 0.44000 0.24000 0.26600 0.25000
C5_34   0.41000 0.77000 0.44000 0.24000 0.26600 0.25000
C5_35   0.41000 0.77000 0.44000 0.24000 0.26600 0.25000
C5_36   0.41000 0.77000 0.44000 0.24000 0.26600 0.25000
C5_37   0.41000 0.77000 0.44000 0.24000 0.26600 0.25000
C5_38   0.41000 0.77000 0.44000 0.24000 0.26600 0.25000
C5_39   0.41000 0.77000 0.44000 0.24000 0.26600 0.25000
C5_40   0.41000 0.77000 0.44000 0.24000 0.26600 0.25000
C5_41   0.41000 0.77000 0.44000 0.24000 0.26600 0.25000
C5_42   0.41000 0.77000 0.44000 0.24000 0.26600 0.25000
C5_43   0.41000 0.77000 0.44000 0.24000 0.26600 0.25000
C5_44   0.41000 0.77000 0.44000 0.24000 0.26600 0.25000
C5_45   0.41000 0.77000 0.44000 0.24000 0.26600 0.25000
C5_46   0.41000 0.77000 0.44000 0.24000 0.26600 0.25000
C5_47   0.41000 0.77000 0.44000 0.24000 0.26600 0.25000
C5_48   0.41000 0.77000 0.44000 0.24000 0.26600 0.25000
C5_49   0.41000 0.77000 0.44000 0.24000 0.26600 0.25000
C5_50   0.41000 0.77000 0.44000 0.24000 0.26600 0.25000
C5_51   0.41000 0.77000 0.44000 0.24000 0.26600 0.25000
C5_52   0.41000 0.77000 0.44000 0.24000 0.26600 0.25000
C5_53   0.41000 0.77000 0.44000 0.24000 0.26600 0.25000
C5_54   0.41000 0.77000 0.44000 0.24000 0.26600 0.25000
C5_55   0.41000 0.77000 0.44000 0.24000 0.26600 0.25000
C5_56   0.41000 0.77000 0.44000 0.24000 0.26600 0.25000
C5_57   0.41000 0.77000 0.44000 0.24000 0.26600 0.25000
C5_58   0.41000 0.77000 0.44000 0.24000 0.26600 0.25000
C5_59   0.41000 0.77000 0.44000 0.24000 0.26600 0.25000
C5_60   0.41000 0.77000 0.44000 0.24000 0.26600 0.25000
C5_61   0.41000 0.77000 0.44000 0.24000 0.26600 0.25000
C5_62   0.41000 0.77000 0.44000 0.24000 0.26600 0.25000
C5_63   0.41000 0.77000 0.44000 0.24000 0.26600 0.25000
C5_64   0.41000 0.77000 0.44000 0.24000 0.26600 0.25000
C5_65   0.41000 0.77000 0.44000 0.24000 0.26600 0.25000
C5_66   0.41000 0.77000 0.44000 0.24000 0.26600 0.25000
C5_67   0.41000 0.77000 0.44000 0.24000 0.26600 0.25000
C5_68   0.41000 0.77000 0.44000 0.24000 0.26600 0.25000
C5_69   0.41000 0.77000 0.44000 0.24000 0.26600 0.25000
C5_70   0.41000 0.77000 0.44000 0.24000 0.26600 0.25000
C5_71   0.41000 0.77000 0.44000 0.24000 0.26600 0.25000
C5_72   0.41000 0.77000 0.44000 0.24000 0.26600 0.25000
C5_73   0.41000 0.77000 0.44000 0.24000 0.26600 0.25000
C5_74   0.41000 0.77000 0.44000 0.24000 0.26600 0.25000
C5_75   0.41000 0.77000 0.44000 0.24000 0.26600 0.25000
C5_76   0.41000 0.77000 0.44000 0.24000 0.26600 0.25000
C5_77   0.41000 0.77000 0.44000 0.24000 0.26600 0.25000
C5_78   0.41000 0.77000 0.44000 0.24000 0.26600 0.25000
C5_79   0.41000 0.77000 0.44000 0.24000 0.26600 0.25000
C5_80   0.41000 0.77000 0.44000 0.24000 0.26600 0.25000
C5_81   0.41000 0.77000 0.44000 0.24000 0.26600 0.25000
C5_82   0.41000 0.77000 0.44000 0.24000 0.26600 0.25000
C5_83   0.41000 0.77000 0.44000 0.24000 0.26600 0.25000
C5_84   0.41000 0.77000 0.44000 0.24000 0.26600 0.25000
C5_85   0.41000 0.77000 0.44000 0.24000 0.26600 0.25000
C5_86   0.41000 0.77000 0.44000 0.24000 0.26600 0.25000
C5_87   0.41000 0.77000 0.44000 0.24000 0.26600 0.25000
C5_88   0.41000 0.77000 0.44000 0.24000 0.26600 0.25000
C5_89   0.41000 0.77000 0.44000 0.24000 0.26600 0.25000
C5_90   0.41000 0.77000 0.44000 0.24000 0.26600 0.25000
C5_91   0.41000 0.77000 0.44000 0.24000 0.26600 0.25000
C5_92   0.41000 0.77000 0.44000 0.24000 0.26600 0.25000
C5_93   0.41000 0.77000 0.44000 0.24000 0.26600 0.25000
C5_94   0.41000 0.77000 0.44000 0.24000 0.26600 0.25000
C5_95   0.41000 0.77000 0.44000 0.24000 0.26600 0.25000
C5_96   0.41000 0.77000 0.44000 0.24000 0.26600 0.25000
C5_97   0.41000 0.77000 0.44000 0.24000 0.26600 0.25000
C5_98   0.41000 0.77000 0.44000 0.24000 0.26600 0.25000
C5_99   0.41000 0.77000 0.44000 0.24000 0.26600 0.25000
C5_100   0.41000 0.77000 0.44000 0.24000 0.26600 0.25000
C5_101   0.41000 0.77000 0.44000 0.24000 0.26600 0.25000
C5_102   0.41000 0.77000 0.44000 0.24000 0.26600 0.25000
C5_103   0.41000 0.77000 0.44000 0.24000 0.26600 0.25000
C5_104   0.41000 0.77000 0.44000 0.24000 0.26600 0.25000
C5_105   0.41000 0.77000 0.44000 0.24000 0.26600 0.25000
C5_106   0.41000 0.77000 0.44000 0.24000 0.26600 0.25000
C5_107   0.41000 0.77000 0.44000 0.24000 0.26600 0.25000
C5_108   0.41000 0.77000 0.44000 0.24000 0.26600 0.25000
C5_109   0.41000 0.77000 0.44000 0.24000 0.26600 0.25000
C5_110   0.41000 0.77000 0.44000 0.24000 0.26600 0.25000
C5_111   0.41000 0.77000 0.44000 0.24000 0.26600 0.25000
C5_112   0.41000 0.77000 0.44000 0.24000 0.26600 0.25000
C5_113   0.41000 0.77000 0.44000 0.24000 0.26600 0.25000
C5_114   0.41000 0.77000 0.44000 0.24000 0.26600 0.25000
C5_115   0.41000 0.77000 0.44000 0.24000 0.26600 0.25000
C5_116   0.41000 0.77000 0.44000 0.24000 0.26600 0.25000
C5_117   0.41000 0.77000 0.44000 0.24000 0.26600 0.25000
C5_118   0.41000 0.77000 0.44000 0.24000 0.26600 0.25000
C5_119   0.41000 0.77000 0.44000 0.24000 0.26600 0.25000
C5_120   0.41000 0.77000 0.44000 0.24000 0.26600 0.25000
C5_121   0.41000 0.77000 0.44000 0.24000 0.26600 0.25000
C5_122   0.41000 0.77000 0.44000 0.24000 0.26600 0.25000
C5_123   0.41000 0.77000 0.44000 0.24000 0.26600 0.25000
C5_124   0.41000 0.77000 0.44000 0.24000 0.26600 0.25000
C5_125   0.41000 0.77000 0.44000 0.24000 0.26600 0.25000
C5_126   0.41000 0.77000 0.44000 0.24000 0.26600 0.25000
C5_127   0.41000 0.77000 0.44000 0.24000 0.26600 0.25000
C5_128   0.41000 0.77000 0.44000 0.24000 0.26600 0.25000
C5_129   0.41000 0.77000 0.44000 0.24000 0.26600 0.25000
C5_130   0.41000 0.77000 0.44000 0.24000 0.26600 0.25000
C5_131   0.41000 0.77000 0.44000 0.24000 0.26600 0.25000
C5_132   0.41000 0.77000 0.44000 0.24000 0.26600 0.25000
C5_133   0.41000 0.77000 0.44000 0.24000 0.26600 0.25000
C5_134   0.41000 0.77000 0.44000 0.24000 0.26600 0.25000
C5_135   0.41000 0.77000 0.44000 0.24000 0.26600 0.25000
C5_136   0.41000 0.77000 0.44000 0.24000 0.26600 0.25000
C5_137   0.41000 0.77000 0.44000 0.24000 0.26600 0.25000
C5_138   0.41000 0.77000 0.44000 0.24000 0.26600 0.25000
C5_139   0.41000 0.77000 0.44000 0.24000 0.26600 0.25000
C5_140   0.41000 0.77000 0.44000 0.24000 0.26600 0.25000
C5_141   0.41000 0.77000 0.44000 0.24000 0.26600 0.25000
C5_142   0.41000 0.77000 0.44000 0.24000 0.26600 0.25000
C5_143   0.41000 0.77000 0.44000 0.24000 0.26600 0.25000
C5_144   0.41000 0.77000 0.44000 0.24000 0.26600 0.25000
C5_145   0.41000 0.77000 0.44000 0.24000 0.26600 0.25000
C5_146   0.41000 0.77000 0.44000 0.24000 0.26600 0.25000
C5_147   0.41000 0.77000 0.44000 0.24000 0.26600 0.25000
C5_148   0.41000 0.77000 0.44000 0.24000 0.26600 0.25000
C5_149   0.41000 0.77000 0.44000 0.24000 0.26600 0.25000
C5_150   0.41000 0.77000 0.44000 0.24000 0.26600 0.25000
C5_151   0.41000 0.77000 0.44000 0.24000 0.26600 0.25000
C5_152   0.41000 0.77000 0.44000 0.24000 0.26600 0.25000
C5_153   0.41000 0.77000 0.44000 0.24000 0.26600 0.25000
C5_154   0.41000 0.77000 0.44000 0.24000 0.26600 0.25000
C5_155   0.41000 0.77000 0.44000 0.24000 0.26600 0.25000
C5_156   0.41000 0.77000 0.44000 0.24000 0.26600 0.25000
C5_157   0.41000 0.77000 0.44000 0.24000 0.26600 0.25000
C5_158   0.41000 0.77000 0.44000 0.24000 0.26600 0.25000
C5_159   0.41000 0.77000 0.44000 0.24000 0.26600 0.25000
C5_160   0.41000 0.77000 0.44000 0.24000 0.26600 0.25000
C5_161   0.41000 0.77000 0.44000 0.24000 0.26600 0.25000
C5_162   0.41000 0.77000 0.44000 0.24000 0.26600 0.25000
C5_163   0.41000 0.77000 0.44000 0.24000 0.26600 0.25000
C5_164   0.41000 0.77000 0.44000 0.24000 0.26600 0.25000
C5_165   0.41000 0.77000 0.44000 0.24000 0.26600 0.25000
C5_166   0.41000 0.77000 0.44000 0.24000 0.26600 0.25000
C5_167   0.41000 0.77000 0.44000 0.24000 0.26600 0.25000
C5_168   0.41000 0.77000 0.44000 0.24000 0.26600 0.25000
C5_169   0.41000 0.77000 0.44000 0.24000 0.26600 0.25000
C5_170   0.41000 0.77000 0.44000 0.24000 0.26600 0.25000
C5_171   0.41000 0.77000 0.44000 0.24000 0.26600 0.25000
C5_172   0.41000 0.77000 0.44000 0.24000 0.26600 0.25000
C5_173   0.41000 0.77000 0.44000 0.24000 0.26600 0.25000
C5_174   0.41000 0.77000 0.44000 0.24000 0.26600 0.25000
C5_175   0.41000 0.77000 0.44000 0.24000 0.26600 0.25000
C5_176   0.41000 0.77000 0.44000 0.24000 0.26600 0.25000
C5_177   0.41000 0.77000 0.44000 0.24000 0.26600 0.25000
C5_178   0.41000 0.77000 0.44000 0.24000 0.26600 0.25000
C5_179   0.41000 0.77000 0.44000 0.24000 0.26600 0.25000
C5_180   0.41000 0.77000 0.44000 0.24000 0.26600 0.25000
C5_181   0.41000 0.77000 0.44000 0.24000 0.26600 0.25000
C5_182   0.41000 0.77000 0.44000 0.24000 0.26600 0.25000
C5_183   0.41000 0.77000 0.44000 0.24000 0.26600 0.25000
C5_184   0.41000 0.77000 0.44000 0.24000 0.26600 0.25000
C5_185   0.41000 0.77000 0.44000 0.24000 0.26600 0.25000
C5_186   0.41000 0.77000 0.44000 0.24000 0.26600 0.25000
C5_187   0.41000 0.77000 0.44000 0.24000 0.26600 0.25000
C5_188   0.41000 0.77000 0.44000 0.24000 0.26600 0.25000
C5_189   0.41000 0.77000 0.44000 0.24000 0.26600 0.25000
C5_190   0.41000 0.77000 0.44000 0.24000 0.26600 0.25000
C5_191   0.41000 0.77000 0.44000 0.24000 0.26600 0.25000
C5_192   0.41000 0.77000 0.44000 0.24000 0.26600 0.25000
C6_2   0.33000 0.33400 0.33400 0.10600 0.17600 0.17600
C6_3   0.33000 0.33400 0.33400 0.10600 0.17600 0.17600
C6_4   0.33000 0.33400 0.33400 0.10600 0.17600 0.17600
C6_5   0.33000 0.33400 0.33400 0.10600 0.17600 0.17600
C6_6   0.33000 0.33400 0.33400 0.10600 0.17600 0.17600
C6_7   0.33000 0.33400 0.33400 0.10600 0.17600 0.17600
C6_8   0.33000 0.33400 0.33400 0.10600 0.17600 0.17600
C6_9   0.33000 0.33400 0.33400 0.10600 0.17600 0.17600
C6_10   0.33000 0.33400 0.33400 0.10600 0.17600 0.17600
C6_11   0.33000 0.33400 0.33400 0.10600 0.17600 0.17600
C6_12   0.33000 0.33400 0.33400 0.10600 0.17600 0.17600
C6_13   0.33000 0.33400 0.33400 0.10600 0.17600 0.17600
C6_14   0.33000 0.33400 0.33400 0.10600 0.17600 0.17600
C6_15   0.33000 0.33400 0.33400 0.10600 0.17600 0.17600
C6_16   0.33000 0.33400 0.33400 0.10600 0.17600 0.17600
C6_17   0.33000 0.33400 0.33400 0.10600 0.17600 0.17600
C6_18   0.33000 0.33400 0.33400 0.10600 0.17600 0.17600
C6_19   0.33000 0.33400 0.33400 0.10600 0.17600 0.17600
C6_20   0.33000 0.33400 0.33400 0.10600 0.17600 0.17600
C6_21   0.33000 0.33400 0.33400 0.10600 0.17600 0.17600
C6_22   0.33000 0.33400 0.33400 0.10600 0.17600 0.17600
C6_23   0.33000 0.33400 0.33400 0.10600 0.17600 0.17600
C6_24   0.33000 0.33400 0.33400 0.10600 0.17600 0.17600
C6_25   0.33000 0.33400 0.33400 0.10600 0.17600 0.17600
C6_26   0.33000 0.33400 0.33400 0.10600 0.17600 0.17600
C6_27   0.33000 0.33400 0.33400 0.10600 0.17600 0.17600
C6_28   0.33000 0.33400 0.33400 0.10600 0.17600 0.17600
C6_29   0.33000 0.33400 0.33400 0.10600 0.17600 0.17600
C6_30   0.33000 0.33400 0.33400 0.10600 0.17600 0.17600
C6_31   0.33000 0.33400 0.33400 0.10600 0.17600 0.17600
C6_32   0.33000 0.33400 0.33400 0.10600 0.17600 0.17600
C6_33   0.33000 0.33400 0.33400 0.10600 0.17600 0.17600
C6_34   0.33000 0.33400 0.33400 0.10600 0.17600 0.17600
C6_35   0.33000 0.33400 0.33400 0.10600 0.17600 0.17600
C6_36   0.33000 0.33400 0.33400 0.10600 0.17600 0.17600
C6_37   0.33000 0.33400 0.33400 0.10600 0.17600 0.17600
C6_38   0.33000 0.33400 0.33400 0.10600 0.17600 0.17600
C6_39   0.33000 0.33400 0.33400 0.10600 0.17600 0.17600
C6_40   0.33000 0.33400 0.33400 0.10600 0.17600 0.17600
C6_41   0.33000 0.33400 0.33400 0.10600 0.17600 0.17600
C6_42   0.33000 0.33400 0.33400 0.10600 0.17600 0.17600
C6_43   0.33000 0.33400 0.33400 0.10600 0.17600 0.17600
C6_44   0.33000 0.33400 0.33400 0.10600 0.17600 0.17600
C6_45   0.33000 0.33400 0.33400 0.10600 0.17600 0.17600
C6_46   0.33000 0.33400 0.33400 0.10600 0.17600 0.17600
C6_47   0.33000 0.33400 0.33400 0.10600 0.17600 0.17600
C6_48   0.33000 0.33400 0.33400 0.10600 0.17600 0.17600
C6_49   0.33000 0.33400 0.33400 0.10600 0.17600 0.17600
C6_50   0.33000 0.33400 0.33400 0.10600 0.17600 0.17600
C6_51   0.33000 0.33400 0.33400 0.10600 0.17600 0.17600
C6_52   0.33000 0.33400 0.33400 0.10600 0.17600 0.17600
C6_53   0.33000 0.33400 0.33400 0.10600 0.17600 0.17600
C6_54   0.33000 0.33400 0.33400 0.10600 0.17600 0.17600
C6_55   0.33000 0.33400 0.33400 0.10600 0.17600 0.17600
C6_56   0.33000 0.33400 0.33400 0.10600 0.17600 0.17600
C6_57   0.33000 0.33400 0.33400 0.10600 0.17600 0.17600
C6_58   0.33000 0.33400 0.33400 0.10600 0.17600 0.17600
C6_59   0.33000 0.33400 0.33400 0.10600 0.17600 0.17600
C6_60   0.33000 0.33400 0.33400 0.10600 0.17600 0.17600
C6_61   0.33000 0.33400 0.33400 0.10600 0.17600 0.17600
C6_62   0.33000 0.33400 0.33400 0.10600 0.17600 0.17600
C6_63   0.33000 0.33400 0.33400 0.10600 0.17600 0.17600
C6_64   0.33000 0.33400 0.33400 0.10600 0.17600 0.17600
C6_65   0.33000 0.33400 0.33400 0.10600 0.17600 0.17600
C6_66   0.33000 0.33400 0.33400 0.10600 0.17600 0.17600
C6_67   0.33000 0.33400 0.33400 0.10600 0.17600 0.17600
C6_68   0.33000 0.33400 0.33400 0.10600 0.17600 0.17600
C6_69   0.33000 0.33400 0.33400 0.10600 0.17600 0.17600
C6_70   0.33000 0.33400 0.33400 0.10600 0.17600 0.17600
C6_71   0.33000 0.33400 0.33400 0.10600 0.17600 0.17600
C6_72   0.33000 0.33400 0.33400 0.10600 0.17600 0.17600
C6_73   0.33000 0.33400 0.33400 0.10600 0.17600 0.17600
C6_74   0.33000 0.33400 0.33400 0.10600 0.17600 0.17600
C6_75   0.33000 0.33400 0.33400 0.10600 0.17600 0.17600
C6_76   0.33000 0.33400 0.33400 0.10600 0.17600 0.17600
C6_77   0.33000 0.33400 0.33400 0.10600 0.17600 0.17600
C6_78   0.33000 0.33400 0.33400 0.10600 0.17600 0.17600
C6_79   0.33000 0.33400 0.33400 0.10600 0.17600 0.17600
C6_80   0.33000 0.33400 0.33400 0.10600 0.17600 0.17600
C6_81   0.33000 0.33400 0.33400 0.10600 0.17600 0.17600
C6_82   0.33000 0.33400 0.33400 0.10600 0.17600 0.17600
C6_83   0.33000 0.33400 0.33400 0.10600 0.17600 0.17600
C6_84   0.33000 0.33400 0.33400 0.10600 0.17600 0.17600
C6_85   0.33000 0.33400 0.33400 0.10600 0.17600 0.17600
C6_86   0.33000 0.33400 0.33400 0.10600 0.17600 0.17600
C6_87   0.33000 0.33400 0.33400 0.10600 0.17600 0.17600
C6_88   0.33000 0.33400 0.33400 0.10600 0.17600 0.17600
C6_89   0.33000 0.33400 0.33400 0.10600 0.17600 0.17600
C6_90   0.33000 0.33400 0.33400 0.10600 0.17600 0.17600
C6_91   0.33000 0.33400 0.33400 0.10600 0.17600 0.17600
C6_92   0.33000 0.33400 0.33400 0.10600 0.17600 0.17600
C6_93   0.33000 0.33400 0.33400 0.10600 0.17600 0.17600
C6_94   0.33000 0.33400 0.33400 0.10600 0.17600 0.17600
C6_95   0.33000 0.33400 0.33400 0.10600 0.17600 0.17600
C6_96   0.33000 0.33400 0.33400 0.10600 0.17600 0.17600
C7_2   0.22800 0.24100 0.24100 0.01100 0.09900 0.09900
C7_3   0.22800 0.24100 0.24100 0.01100 0.09900 0.09900
C7_4   0.22800 0.24100 0.24100 0.01100 0.09900 0.09900
C7_5   0.22800 0.24100 0.24100 0.01100 0.09900 0.09900
C7_6   0.22800 0.24100 0.24100 0.01100 0.09900 0.09900
C7_7   0.22800 0.24100 0.24100 0.01100 0.09900 0.09900
C7_8   0.22800 0.24100 0.24100 0.01100 0.09900 0.09900
C7_9   0.22800 0.24100 0.24100 0.01100 0.09900 0.09900
C7_10   0.22800 0.24100 0.24100 0.01100 0.09900 0.09900
C7_11   0.22800 0.24100 0.24100 0.01100 0.09900 0.09900
C7_12   0.22800 0.24100 0.24100 0.01100 0.09900 0.09900
C7_13   0.22800 0.24100 0.24100 0.01100 0.09900 0.09900
C7_14   0.22800 0.24100 0.24100 0.01100 0.09900 0.09900
C7_15   0.22800 0.24100 0.24100 0.01100 0.09900 0.09900
C7_16   0.22800 0.24100 0.24100 0.01100 0.09900 0.09900
C7_17   0.22800 0.24100 0.24100 0.01100 0.09900 0.09900
C7_18   0.22800 0.24100 0.24100 0.01100 0.09900 0.09900
C7_19   0.22800 0.24100 0.24100 0.01100 0.09900 0.09900
C7_20   0.22800 0.24100 0.24100 0.01100 0.09900 0.09900
C7_21   0.22800 0.24100 0.24100 0.01100 0.09900 0.09900
C7_22   0.22800 0.24100 0.24100 0.01100 0.09900 0.09900
C7_23   0.22800 0.24100 0.24100 0.01100 0.09900 0.09900
C7_24   0.22800 0.24100 0.24100 0.01100 0.09900 0.09900
C7_25   0.22800 0.24100 0.24100 0.01100 0.09900 0.09900
C7_26   0.22800 0.24100 0.24100 0.01100 0.09900 0.09900
C7_27   0.22800 0.24100 0.24100 0.01100 0.09900 0.09900
C7_28   0.22800 0.24100 0.24100 0.01100 0.09900 0.09900
C7_29   0.22800 0.24100 0.24100 0.01100 0.09900 0.09900
C7_30   0.22800 0.24100 0.24100 0.01100 0.09900 0.09900
C7_31   0.22800 0.24100 0.24100 0.01100 0.09900 0.09900
C7_32   0.22800 0.24100 0.24100 0.01100 0.09900 0.09900
C7_33   0.22800 0.24100 0.24100 0.01100 0.09900 0.09900
C7_34   0.22800 0.24100 0.24100 0.01100 0.09900 0.09900
C7_35   0.22800 0.24100 0.24100 0.01100 0.09900 0.09900
C7_36   0.22800 0.24100 0.24100 0.01100 0.09900 0.09900
C7_37   0.22800 0.24100 0.24100 0.01100 0.09900 0.09900
C7_38   0.22800 0.24100 0.24100 0.01100 0.09900 0.09900
C7_39   0.22800 0.24100 0.24100 0.01100 0.09900 0.09900
C7_40   0.22800 0.24100 0.24100 0.01100 0.09900 0.09900
C7_41   0.22800 0.24100 0.24100 0.01100 0.09900 0.09900
C7_42   0.22800 0.24100 0.24100 0.01100 0.09900 0.09900
C7_43   0.22800 0.24100 0.24100 0.01100 0.09900 0.09900
C7_44   0.22800 0.24100 0.24100 0.01100 0.09900 0.09900
C7_45   0.22800 0.24100 0.24100 0.01100 0.09900 0.09900
C7_46   0.22800 0.24100 0.24100 0.01100 0.09900 0.09900
C7_47   0.22800 0.24100 0.24100 0.01100 0.09900 0.09900
C7_48   0.22800 0.24100 0.24100 0.01100 0.09900 0.09900
C7_49   0.22800 0.24100 0.24100 0.01100 0.09900 0.09900
C7_50   0.22800 0.24100 0.24100 0.01100 0.09900 0.09900
C7_51   0.22800 0.24100 0.24100 0.01100 0.09900 0.09900
C7_52   0.22800 0.24100 0.24100 0.01100 0.09900 0.09900
C7_53   0.22800 0.24100 0.24100 0.01100 0.09900 0.09900
C7_54   0.22800 0.24100 0.24100 0.01100 0.09900 0.09900
C7_55   0.22800 0.24100 0.24100 0.01100 0.09900 0.09900
C7_56   0.22800 0.24100 0.24100 0.01100 0.09900 0.09900
C7_57   0.22800 0.24100 0.24100 0.01100 0.09900 0.09900
C7_58   0.22800 0.24100 0.24100 0.01100 0.09900 0.09900
C7_59   0.22800 0.24100 0.24100 0.01100 0.09900 0.09900
C7_60   0.22800 0.24100 0.24100 0.01100 0.09900 0.09900
C7_61   0.22800 0.24100 0.24100 0.01100 0.09900 0.09900
C7_62   0.22800 0.24100 0.24100 0.01100 0.09900 0.09900
C7_63   0.22800 0.24100 0.24100 0.01100 0.09900 0.09900
C7_64   0.22800 0.24100 0.24100 0.01100 0.09900 0.09900
C7_65   0.22800 0.24100 0.24100 0.01100 0.09900 0.09900
C7_66   0.22800 0.24100 0.24100 0.01100 0.09900 0.09900
C7_67   0.22800 0.24100 0.24100 0.01100 0.09900 0.09900
C7_68   0.22800 0.24100 0.24100 0.01100 0.09900 0.09900
C7_69   0.22800 0.24100 0.24100 0.01100 0.09900 0.09900
C7_70   0.22800 0.24100 0.24100 0.01100 0.09900 0.09900
C7_71   0.22800 0.24100 0.24100 0.01100 0.09900 0.09900
C7_72   0.22800 0.24100 0.24100 0.01100 0.09900 0.09900
C7_73   0.22800 0.24100 0.24100 0.01100 0.09900 0.09900
C7_74   0.22800 0.24100 0.24100 0.01100 0.09900 0.09900
C7_75   0.22800 0.24100 0.24100 0.01100 0.09900 0.09900
C7_76   0.22800 0.24100 0.24100 0.01100 0.09900 0.09900
C7_77   0.22800 0.24100 0.24100 0.01100 0.09900 0.09900
C7_78   0.22800 0.24100 0.24100 0.01100 0.09900 0.09900
C7_79   0.22800 0.24100 0.24100 0.01100 0.09900 0.09900
C7_80   0.22800 0.24100 0.24100 0.01100 0.09900 0.09900
C7_81   0.22800 0.24100 0.24100 0.01100 0.09900 0.09900
C7_82   0.22800 0.24100 0.24100 0.01100 0.09900 0.09900
C7_83   0.22800 0.24100 0.24100 0.01100 0.09900 0.09900
C7_84   0.22800 0.24100 0.24100 0.01100 0.09900 0.09900
C7_85   0.22800 0.24100 0.24100 0.01100 0.09900 0.09900
C7_86   0.22800 0.24100 0.24100 0.01100 0.09900 0.09900
C7_87   0.22800 0.24100 0.24100 0.01100 0.09900 0.09900
C7_88   0.22800 0.24100 0.24100 0.01100 0.09900 0.09900
C7_89   0.22800 0.24100 0.24100 0.01100 0.09900 0.09900
C7_90   0.22800 0.24100 0.24100 0.01100 0.09900 0.09900
C7_91   0.22800 0.24100 0.24100 0.01100 0.09900 0.09900
C7_92   0.22800 0.24100 0.24100 0.01100 0.09900 0.09900
C7_93   0.22800 0.24100 0.24100 0.01100 0.09900 0.09900
C7_94   0.22800 0.24100 0.24100 0.01100 0.09900 0.09900
C7_95   0.22800 0.24100 0.24100 0.01100 0.09900 0.09900
C7_96   0.22800 0.24100 0.24100 0.01100 0.09900 0.09900
C8_2   0.43300 0.24700 0.32900 0.09600 0.01100 0.21000
C8_3   0.43300 0.24700 0.32900 0.09600 0.01100 0.21000
C8_4   0.43300 0.24700 0.32900 0.09600 0.01100 0.21000
C8_5   0.43300 0.24700 0.32900 0.09600 0.01100 0.21000
C8_6   0.43300 0.24700 0.32900 0.09600 0.01100 0.21000
C8_7   0.43300 0.24700 0.32900 0.09600 0.01100 0.21000
C8_8   0.43300 0.24700 0.32900 0.09600 0.01100 0.21000
C8_9   0.43300 0.24700 0.32900 0.09600 0.01100 0.21000
C8_10   0.43300 0.24700 0.32900 0.09600 0.01100 0.21000
C8_11   0.43300 0.24700 0.32900 0.09600 0.01100 0.21000
C8_12   0.43300 0.24700 0.32900 0.09600 0.01100 0.21000
C8_13   0.43300 0.24700 0.32900 0.09600 0.01100 0.21000
C8_14   0.43300 0.24700 0.32900 0.09600 0.01100 0.21000
C8_15   0.43300 0.24700 0.32900 0.09600 0.01100 0.21000
C8_16   0.43300 0.24700 0.32900 0.09600 0.01100 0.21000
C8_17   0.43300 0.24700 0.32900 0.09600 0.01100 0.21000
C8_18   0.43300 0.24700 0.32900 0.09600 0.01100 0.21000
C8_19   0.43300 0.24700 0.32900 0.09600 0.01100 0.21000
C8_20   0.43300 0.24700 0.32900 0.09600 0.01100 0.21000
C8_21   0.43300 0.24700 0.32900 0.09600 0.01100 0.21000
C8_22   0.43300 0.24700 0.32900 0.09600 0.01100 0.21000
C8_23   0.43300 0.24700 0.32900 0.09600 0.01100 0.21000
C8_24   0.43300 0.24700 0.32900 0.09600 0.01100 0.21000
C8_25   0.43300 0.24700 0.32900 0.09600 0.01100 0.21000
C8_26   0.43300 0.24700 0.32900 0.09600 0.01100 0.21000
C8_27   0.43300 0.24700 0.32900 0.09600 0.01100 0.21000
C8_28   0.43300 0.24700 0.32900 0.09600 0.01100 0.21000
C8_29   0.43300 0.24700 0.32900 0.09600 0.01100 0.21000
C8_30   0.43300 0.24700 0.32900 0.09600 0.01100 0.21000
C8_31   0.43300 0.24700 0.32900 0.09600 0.01100 0.21000
C8_32   0.43300 0.24700 0.32900 0.09600 0.01100 0.21000
C8_33   0.43300 0.24700 0.32900 0.09600 0.01100 0.21000
C8_34   0.43300 0.24700 0.32900 0.09600 0.01100 0.21000
C8_35   0.43300 0.24700 0.32900 0.09600 0.01100 0.21000
C8_36   0.43300 0.24700 0.32900 0.09600 0.01100 0.21000
C8_37   0.43300 0.24700 0.32900 0.09600 0.01100 0.21000
C8_38   0.43300 0.24700 0.32900 0.09600 0.01100 0.21000
C8_39   0.43300 0.24700 0.32900 0.09600 0.01100 0.21000
C8_40   0.43300 0.24700 0.32900 0.09600 0.01100 0.21000
C8_41   0.43300 0.24700 0.32900 0.09600 0.01100 0.21000
C8_42   0.43300 0.24700 0.32900 0.09600 0.01100 0.21000
C8_43   0.43300 0.24700 0.32900 0.09600 0.01100 0.21000
C8_44   0.43300 0.24700 0.32900 0.09600 0.01100 0.21000
C8_45   0.43300 0.24700 0.32900 0.09600 0.01100 0.21000
C8_46   0.43300 0.24700 0.32900 0.09600 0.01100 0.21000
C8_47   0.43300 0.24700 0.32900 0.09600 0.01100 0.21000
C8_48   0.43300 0.24700 0.32900 0.09600 0.01100 0.21000
C8_49   0.43300 0.24700 0.32900 0.09600 0.01100 0.21000
C8_50   0.43300 0.24700 0.32900 0.09600 0.01100 0.21000
C8_51   0.43300 0.24700 0.32900 0.09600 0.01100 0.21000
C8_52   0.43300 0.24700 0.32900 0.09600 0.01100 0.21000
C8_53   0.43300 0.24700 0.32900 0.09600 0.01100 0.21000
C8_54   0.43300 0.24700 0.32900 0.09600 0.01100 0.21000
C8_55   0.43300 0.24700 0.32900 0.09600 0.01100 0.21000
C8_56   0.43300 0.24700 0.32900 0.09600 0.01100 0.21000
C8_57   0.43300 0.24700 0.32900 0.09600 0.01100 0.21000
C8_58   0.43300 0.24700 0.32900 0.09600 0.01100 0.21000
C8_59   0.43300 0.24700 0.32900 0.09600 0.01100 0.21000
C8_60   0.43300 0.24700 0.32900 0.09600 0.01100 0.21000
C8_61   0.43300 0.24700 0.32900 0.09600 0.01100 0.21000
C8_62   0.43300 0.24700 0.32900 0.09600 0.01100 0.21000
C8_63   0.43300 0.24700 0.32900 0.09600 0.01100 0.21000
C8_64   0.43300 0.24700 0.32900 0.09600 0.01100 0.21000
C8_65   0.43300 0.24700 0.32900 0.09600 0.01100 0.21000
C8_66   0.43300 0.24700 0.32900 0.09600 0.01100 0.21000
C8_67   0.43300 0.24700 0.32900 0.09600 0.01100 0.21000
C8_68   0.43300 0.24700 0.32900 0.09600 0.01100 0.21000
C8_69   0.43300 0.24700 0.32900 0.09600 0.01100 0.21000
C8_70   0.43300 0.24700 0.32900 0.09600 0.01100 0.21000
C8_71   0.43300 0.24700 0.32900 0.09600 0.01100 0.21000
C8_72   0.43300 0.24700 0.32900 0.09600 0.01100 0.21000
C8_73   0.43300 0.24700 0.32900 0.09600 0.01100 0.21000
C8_74   0.43300 0.24700 0.32900 0.09600 0.01100 0.21000
C8_75   0.43300 0.24700 0.32900 0.09600 0.01100 0.21000
C8_76   0.43300 0.24700 0.32900 0.09600 0.01100 0.21000
C8_77   0.43300 0.24700 0.32900 0.09600 0.01100 0.21000
C8_78   0.43300 0.24700 0.32900 0.09600 0.01100 0.21000
C8_79   0.43300 0.24700 0.32900 0.09600 0.01100 0.21000
C8_80   0.43300 0.24700 0.32900 0.09600 0.01100 0.21000
C8_81   0.43300 0.24700 0.32900 0.09600 0.01100 0.21000
C8_82   0.43300 0.24700 0.32900 0.09600 0.01100 0.21000
C8_83   0.43300 0.24700 0.32900 0.09600 0.01100 0.21000
C8_84   0.43300 0.24700 0.32900 0.09600 0.01100 0.21000
C8_85   0.43300 0.24700 0.32900 0.09600 0.01100 0.21000
C8_86   0.43300 0.24700 0.32900 0.09600 0.01100 0.21000
C8_87   0.43300 0.24700 0.32900 0.09600 0.01100 0.21000
C8_88   0.43300 0.24700 0.32900 0.09600 0.01100 0.21000
C8_89   0.43300 0.24700 0.32900 0.09600 0.01100 0.21000
C8_90   0.43300 0.24700 0.32900 0.09600 0.01100 0.21000
C8_91   0.43300 0.24700 0.32900 0.09600 0.01100 0.21000
C8_92   0.43300 0.24700 0.32900 0.09600 0.01100 0.21000
C8_93   0.43300 0.24700 0.32900 0.09600 0.01100 0.21000
C8_94   0.43300 0.24700 0.32900 0.09600 0.01100 0.21000
C8_95   0.43300 0.24700 0.32900 0.09600 0.01100 0.21000
C8_96   0.43300 0.24700 0.32900 0.09600 0.01100 0.21000
C8_97   0.43300 0.24700 0.32900 0.09600 0.01100 0.21000
C8_98   0.43300 0.24700 0.32900 0.09600 0.01100 0.21000
C8_99   0.43300 0.24700 0.32900 0.09600 0.01100 0.21000
C8_100   0.43300 0.24700 0.32900 0.09600 0.01100 0.21000
C8_101   0.43300 0.24700 0.32900 0.09600 0.01100 0.21000
C8_102   0.43300 0.24700 0.32900 0.09600 0.01100 0.21000
C8_103   0.43300 0.24700 0.32900 0.09600 0.01100 0.21000
C8_104   0.43300 0.24700 0.32900 0.09600 0.01100 0.21000
C8_105   0.43300 0.24700 0.32900 0.09600 0.01100 0.21000
C8_106   0.43300 0.24700 0.32900 0.09600 0.01100 0.21000
C8_107   0.43300 0.24700 0.32900 0.09600 0.01100 0.21000
C8_108   0.43300 0.24700 0.32900 0.09600 0.01100 0.21000
C8_109   0.43300 0.24700 0.32900 0.09600 0.01100 0.21000
C8_110   0.43300 0.24700 0.32900 0.09600 0.01100 0.21000
C8_111   0.43300 0.24700 0.32900 0.09600 0.01100 0.21000
C8_112   0.43300 0.24700 0.32900 0.09600 0.01100 0.21000
C8_113   0.43300 0.24700 0.32900 0.09600 0.01100 0.21000
C8_114   0.43300 0.24700 0.32900 0.09600 0.01100 0.21000
C8_115   0.43300 0.24700 0.32900 0.09600 0.01100 0.21000
C8_116   0.43300 0.24700 0.32900 0.09600 0.01100 0.21000
C8_117   0.43300 0.24700 0.32900 0.09600 0.01100 0.21000
C8_118   0.43300 0.24700 0.32900 0.09600 0.01100 0.21000
C8_119   0.43300 0.24700 0.32900 0.09600 0.01100 0.21000
C8_120   0.43300 0.24700 0.32900 0.09600 0.01100 0.21000
C8_121   0.43300 0.24700 0.32900 0.09600 0.01100 0.21000
C8_122   0.43300 0.24700 0.32900 0.09600 0.01100 0.21000
C8_123   0.43300 0.24700 0.32900 0.09600 0.01100 0.21000
C8_124   0.43300 0.24700 0.32900 0.09600 0.01100 0.21000
C8_125   0.43300 0.24700 0.32900 0.09600 0.01100 0.21000
C8_126   0.43300 0.24700 0.32900 0.09600 0.01100 0.21000
C8_127   0.43300 0.24700 0.32900 0.09600 0.01100 0.21000
C8_128   0.43300 0.24700 0.32900 0.09600 0.01100 0.21000
C8_129   0.43300 0.24700 0.32900 0.09600 0.01100 0.21000
C8_130   0.43300 0.24700 0.32900 0.09600 0.01100 0.21000
C8_131   0.43300 0.24700 0.32900 0.09600 0.01100 0.21000
C8_132   0.43300 0.24700 0.32900 0.09600 0.01100 0.21000
C8_133   0.43300 0.24700 0.32900 0.09600 0.01100 0.21000
C8_134   0.43300 0.24700 0.32900 0.09600 0.01100 0.21000
C8_135   0.43300 0.24700 0.32900 0.09600 0.01100 0.21000
C8_136   0.43300 0.24700 0.32900 0.09600 0.01100 0.21000
C8_137   0.43300 0.24700 0.32900 0.09600 0.01100 0.21000
C8_138   0.43300 0.24700 0.32900 0.09600 0.01100 0.21000
C8_139   0.43300 0.24700 0.32900 0.09600 0.01100 0.21000
C8_140   0.43300 0.24700 0.32900 0.09600 0.01100 0.21000
C8_141   0.43300 0.24700 0.32900 0.09600 0.01100 0.21000
C8_142   0.43300 0.24700 0.32900 0.09600 0.01100 0.21000
C8_143   0.43300 0.24700 0.32900 0.09600 0.01100 0.21000
C8_144   0.43300 0.24700 0.32900 0.09600 0.01100 0.21000
C8_145   0.43300 0.24700 0.32900 0.09600 0.01100 0.21000
C8_146   0.43300 0.24700 0.32900 0.09600 0.01100 0.21000
C8_147   0.43300 0.24700 0.32900 0.09600 0.01100 0.21000
C8_148   0.43300 0.24700 0.32900 0.09600 0.01100 0.21000
C8_149   0.43300 0.24700 0.32900 0.09600 0.01100 0.21000
C8_150   0.43300 0.24700 0.32900 0.09600 0.01100 0.21000
C8_151   0.43300 0.24700 0.32900 0.09600 0.01100 0.21000
C8_152   0.43300 0.24700 0.32900 0.09600 0.01100 0.21000
C8_153   0.43300 0.24700 0.32900 0.09600 0.01100 0.21000
C8_154   0.43300 0.24700 0.32900 0.09600 0.01100 0.21000
C8_155   0.43300 0.24700 0.32900 0.09600 0.01100 0.21000
C8_156   0.43300 0.24700 0.32900 0.09600 0.01100 0.21000
C8_157   0.43300 0.24700 0.32900 0.09600 0.01100 0.21000
C8_158   0.43300 0.24700 0.32900 0.09600 0.01100 0.21000
C8_159   0.43300 0.24700 0.32900 0.09600 0.01100 0.21000
C8_160   0.43300 0.24700 0.32900 0.09600 0.01100 0.21000
C8_161   0.43300 0.24700 0.32900 0.09600 0.01100 0.21000
C8_162   0.43300 0.24700 0.32900 0.09600 0.01100 0.21000
C8_163   0.43300 0.24700 0.32900 0.09600 0.01100 0.21000
C8_164   0.43300 0.24700 0.32900 0.09600 0.01100 0.21000
C8_165   0.43300 0.24700 0.32900 0.09600 0.01100 0.21000
C8_166   0.43300 0.24700 0.32900 0.09600 0.01100 0.21000
C8_167   0.43300 0.24700 0.32900 0.09600 0.01100 0.21000
C8_168   0.43300 0.24700 0.32900 0.09600 0.01100 0.21000
C8_169   0.43300 0.24700 0.32900 0.09600 0.01100 0.21000
C8_170   0.43300 0.24700 0.32900 0.09600 0.01100 0.21000
C8_171   0.43300 0.24700 0.32900 0.09600 0.01100 0.21000
C8_172   0.43300 0.24700 0.32900 0.09600 0.01100 0.21000
C8_173   0.43300 0.24700 0.32900 0.09600 0.01100 0.21000
C8_174   0.43300 0.24700 0.32900 0.09600 0.01100 0.21000
C8_175   0.43300 0.24700 0.32900 0.09600 0.01100 0.21000
C8_176   0.43300 0.24700 0.32900 0.09600 0.01100 0.21000
C8_177   0.43300 0.24700 0.32900 0.09600 0.01100 0.21000
C8_178   0.43300 0.24700 0.32900 0.09600 0.01100 0.21000
C8_179   0.43300 0.24700 0.32900 0.09600 0.01100 0.21000
C8_180   0.43300 0.24700 0.32900 0.09600 0.01100 0.21000
C8_181   0.43300 0.24700 0.32900 0.09600 0.01100 0.21000
C8_182   0.43300 0.24700 0.32900 0.09600 0.01100 0.21000
C8_183   0.43300 0.24700 0.32900 0.09600 0.01100 0.21000
C8_184   0.43300 0.24700 0.32900 0.09600 0.01100 0.21000
C8_185   0.43300 0.24700 0.32900 0.09600 0.01100 0.21000
C8_186   0.43300 0.24700 0.32900 0.09600 0.01100 0.21000
C8_187   0.43300 0.24700 0.32900 0.09600 0.01100 0.21000
C8_188   0.43300 0.24700 0.32900 0.09600 0.01100 0.21000
C8_189   0.43300 0.24700 0.32900 0.09600 0.01100 0.21000
C8_190   0.43300 0.24700 0.32900 0.09600 0.01100 0.21000
C8_191   0.43300 0.24700 0.32900 0.09600 0.01100 0.21000
C8_192   0.43300 0.24700 0.32900 0.09600 0.01100 0.21000
C9_2   0.32200 0.35400 0.43900 0.08800 0.14100 0.11400
C9_3   0.32200 0.35400 0.43900 0.08800 0.14100 0.11400
C9_4   0.32200 0.35400 0.43900 0.08800 0.14100 0.11400
C9_5   0.32200 0.35400 0.43900 0.08800 0.14100 0.11400
C9_6   0.32200 0.35400 0.43900 0.08800 0.14100 0.11400
C9_7   0.32200 0.35400 0.43900 0.08800 0.14100 0.11400
C9_8   0.32200 0.35400 0.43900 0.08800 0.14100 0.11400
C9_9   0.32200 0.35400 0.43900 0.08800 0.14100 0.11400
C9_10   0.32200 0.35400 0.43900 0.08800 0.14100 0.11400
C9_11   0.32200 0.35400 0.43900 0.08800 0.14100 0.11400
C9_12   0.32200 0.35400 0.43900 0.08800 0.14100 0.11400
C9_13   0.32200 0.35400 0.43900 0.08800 0.14100 0.11400
C9_14   0.32200 0.35400 0.43900 0.08800 0.14100 0.11400
C9_15   0.32200 0.35400 0.43900 0.08800 0.14100 0.11400
C9_16   0.32200 0.35400 0.43900 0.08800 0.14100 0.11400
C9_17   0.32200 0.35400 0.43900 0.08800 0.14100 0.11400
C9_18   0.32200 0.35400 0.43900 0.08800 0.14100 0.11400
C9_19   0.32200 0.35400 0.43900 0.08800 0.14100 0.11400
C9_20   0.32200 0.35400 0.43900 0.08800 0.14100 0.11400
C9_21   0.32200 0.35400 0.43900 0.08800 0.14100 0.11400
C9_22   0.32200 0.35400 0.43900 0.08800 0.14100 0.11400
C9_23   0.32200 0.35400 0.43900 0.08800 0.14100 0.11400
C9_24   0.32200 0.35400 0.43900 0.08800 0.14100 0.11400
C9_25   0.32200 0.35400 0.43900 0.08800 0.14100 0.11400
C9_26   0.32200 0.35400 0.43900 0.08800 0.14100 0.11400
C9_27   0.32200 0.35400 0.43900 0.08800 0.14100 0.11400
C9_28   0.32200 0.35400 0.43900 0.08800 0.14100 0.11400
C9_29   0.32200 0.35400 0.43900 0.08800 0.14100 0.11400
C9_30   0.32200 0.35400 0.43900 0.08800 0.14100 0.11400
C9_31   0.32200 0.35400 0.43900 0.08800 0.14100 0.11400
C9_32   0.32200 0.35400 0.43900 0.08800 0.14100 0.11400
C9_33   0.32200 0.35400 0.43900 0.08800 0.14100 0.11400
C9_34   0.32200 0.35400 0.43900 0.08800 0.14100 0.11400
C9_35   0.32200 0.35400 0.43900 0.08800 0.14100 0.11400
C9_36   0.32200 0.35400 0.43900 0.08800 0.14100 0.11400
C9_37   0.32200 0.35400 0.43900 0.08800 0.14100 0.11400
C9_38   0.32200 0.35400 0.43900 0.08800 0.14100 0.11400
C9_39   0.32200 0.35400 0.43900 0.08800 0.14100 0.11400
C9_40   0.32200 0.35400 0.43900 0.08800 0.14100 0.11400
C9_41   0.32200 0.35400 0.43900 0.08800 0.14100 0.11400
C9_42   0.32200 0.35400 0.43900 0.08800 0.14100 0.11400
C9_43   0.32200 0.35400 0.43900 0.08800 0.14100 0.11400
C9_44   0.32200 0.35400 0.43900 0.08800 0.14100 0.11400
C9_45   0.32200 0.35400 0.43900 0.08800 0.14100 0.11400
C9_46   0.32200 0.35400 0.43900 0.08800 0.14100 0.11400
C9_47   0.32200 0.35400 0.43900 0.08800 0.14100 0.11400
C9_48   0.32200 0.35400 0.43900 0.08800 0.14100 0.11400
C9_49   0.32200 0.35400 0.43900 0.08800 0.14100 0.11400
C9_50   0.32200 0.35400 0.43900 0.08800 0.14100 0.11400
C9_51   0.32200 0.35400 0.43900 0.08800 0.14100 0.11400
C9_52   0.32200 0.35400 0.43900 0.08800 0.14100 0.11400
C9_53   0.32200 0.35400 0.43900 0.08800 0.14100 0.11400
C9_54   0.32200 0.35400 0.43900 0.08800 0.14100 0.11400
C9_55   0.32200 0.35400 0.43900 0.08800 0.14100 0.11400
C9_56   0.32200 0.35400 0.43900 0.08800 0.14100 0.11400
C9_57   0.32200 0.35400 0.43900 0.08800 0.14100 0.11400
C9_58   0.32200 0.35400 0.43900 0.08800 0.14100 0.11400
C9_59   0.32200 0.35400 0.43900 0.08800 0.14100 0.11400
C9_60   0.32200 0.35400 0.43900 0.08800 0.14100 0.11400
C9_61   0.32200 0.35400 0.43900 0.08800 0.14100 0.11400
C9_62   0.32200 0.35400 0.43900 0.08800 0.14100 0.11400
C9_63   0.32200 0.35400 0.43900 0.08800 0.14100 0.11400
C9_64   0.32200 0.35400 0.43900 0.08800 0.14100 0.11400
C9_65   0.32200 0.35400 0.43900 0.08800 0.14100 0.11400
C9_66   0.32200 0.35400 0.43900 0.08800 0.14100 0.11400
C9_67   0.32200 0.35400 0.43900 0.08800 0.14100 0.11400
C9_68   0.32200 0.35400 0.43900 0.08800 0.14100 0.11400
C9_69   0.32200 0.35400 0.43900 0.08800 0.14100 0.11400
C9_70   0.32200 0.35400 0.43900 0.08800 0.14100 0.11400
C9_71   0.32200 0.35400 0.43900 0.08800 0.14100 0.11400
C9_72   0.32200 0.35400 0.43900 0.08800 0.14100 0.11400
C9_73   0.32200 0.35400 0.43900 0.08800 0.14100 0.11400
C9_74   0.32200 0.35400 0.43900 0.08800 0.14100 0.11400
C9_75   0.32200 0.35400 0.43900 0.08800 0.14100 0.11400
C9_76   0.32200 0.35400 0.43900 0.08800 0.14100 0.11400
C9_77   0.32200 0.35400 0.43900 0.08800 0.14100 0.11400
C9_78   0.32200 0.35400 0.43900 0.08800 0.14100 0.11400
C9_79   0.32200 0.35400 0.43900 0.08800 0.14100 0.11400
C9_80   0.32200 0.35400 0.43900 0.08800 0.14100 0.11400
C9_81   0.32200 0.35400 0.43900 0.08800 0.14100 0.11400
C9_82   0.32200 0.35400 0.43900 0.08800 0.14100 0.11400
C9_83   0.32200 0.35400 0.43900 0.08800 0.14100 0.11400
C9_84   0.32200 0.35400 0.43900 0.08800 0.14100 0.11400
C9_85   0.32200 0.35400 0.43900 0.08800 0.14100 0.11400
C9_86   0.32200 0.35400 0.43900 0.08800 0.14100 0.11400
C9_87   0.32200 0.35400 0.43900 0.08800 0.14100 0.11400
C9_88   0.32200 0.35400 0.43900 0.08800 0.14100 0.11400
C9_89   0.32200 0.35400 0.43900 0.08800 0.14100 0.11400
C9_90   0.32200 0.35400 0.43900 0.08800 0.14100 0.11400
C9_91   0.32200 0.35400 0.43900 0.08800 0.14100 0.11400
C9_92   0.32200 0.35400 0.43900 0.08800 0.14100 0.11400
C9_93   0.32200 0.35400 0.43900 0.08800 0.14100 0.11400
C9_94   0.32200 0.35400 0.43900 0.08800 0.14100 0.11400
C9_95   0.32200 0.35400 0.43900 0.08800 0.14100 0.11400
C9_96   0.32200 0.35400 0.43900 0.08800 0.14100 0.11400
C9_97   0.32200 0.35400 0.43900 0.08800 0.14100 0.11400
C9_98   0.32200 0.35400 0.43900 0.08800 0.14100 0.11400
C9_99   0.32200 0.35400 0.43900 0.08800 0.14100 0.11400
C9_100   0.32200 0.35400 0.43900 0.08800 0.14100 0.11400
C9_101   0.32200 0.35400 0.43900 0.08800 0.14100 0.11400
C9_102   0.32200 0.35400 0.43900 0.08800 0.14100 0.11400
C9_103   0.32200 0.35400 0.43900 0.08800 0.14100 0.11400
C9_104   0.32200 0.35400 0.43900 0.08800 0.14100 0.11400
C9_105   0.32200 0.35400 0.43900 0.08800 0.14100 0.11400
C9_106   0.32200 0.35400 0.43900 0.08800 0.14100 0.11400
C9_107   0.32200 0.35400 0.43900 0.08800 0.14100 0.11400
C9_108   0.32200 0.35400 0.43900 0.08800 0.14100 0.11400
C9_109   0.32200 0.35400 0.43900 0.08800 0.14100 0.11400
C9_110   0.32200 0.35400 0.43900 0.08800 0.14100 0.11400
C9_111   0.32200 0.35400 0.43900 0.08800 0.14100 0.11400
C9_112   0.32200 0.35400 0.43900 0.08800 0.14100 0.11400
C9_113   0.32200 0.35400 0.43900 0.08800 0.14100 0.11400
C9_114   0.32200 0.35400 0.43900 0.08800 0.14100 0.11400
C9_115   0.32200 0.35400 0.43900 0.08800 0.14100 0.11400
C9_116   0.32200 0.35400 0.43900 0.08800 0.14100 0.11400
C9_117   0.32200 0.35400 0.43900 0.08800 0.14100 0.11400
C9_118   0.32200 0.35400 0.43900 0.08800 0.14100 0.11400
C9_119   0.32200 0.35400 0.43900 0.08800 0.14100 0.11400
C9_120   0.32200 0.35400 0.43900 0.08800 0.14100 0.11400
C9_121   0.32200 0.35400 0.43900 0.08800 0.14100 0.11400
C9_122   0.32200 0.35400 0.43900 0.08800 0.14100 0.11400
C9_123   0.32200 0.35400 0.43900 0.08800 0.14100 0.11400
C9_124   0.32200 0.35400 0.43900 0.08800 0.14100 0.11400
C9_125   0.32200 0.35400 0.43900 0.08800 0.14100 0.11400
C9_126   0.32200 0.35400 0.43900 0.08800 0.14100 0.11400
C9_127   0.32200 0.35400 0.43900 0.08800 0.14100 0.11400
C9_128   0.32200 0.35400 0.43900 0.08800 0.14100 0.11400
C9_129   0.32200 0.35400 0.43900 0.08800 0.14100 0.11400
C9_130   0.32200 0.35400 0.43900 0.08800 0.14100 0.11400
C9_131   0.32200 0.35400 0.43900 0.08800 0.14100 0.11400
C9_132   0.32200 0.35400 0.43900 0.08800 0.14100 0.11400
C9_133   0.32200 0.35400 0.43900 0.08800 0.14100 0.11400
C9_134   0.32200 0.35400 0.43900 0.08800 0.14100 0.11400
C9_135   0.32200 0.35400 0.43900 0.08800 0.14100 0.11400
C9_136   0.32200 0.35400 0.43900 0.08800 0.14100 0.11400
C9_137   0.32200 0.35400 0.43900 0.08800 0.14100 0.11400
C9_138   0.32200 0.35400 0.43900 0.08800 0.14100 0.11400
C9_139   0.32200 0.35400 0.43900 0.08800 0.14100 0.11400
C9_140   0.32200 0.35400 0.43900 0.08800 0.14100 0.11400
C9_141   0.32200 0.35400 0.43900 0.08800 0.14100 0.11400
C9_142   0.32200 0.35400 0.43900 0.08800 0.14100 0.11400
C9_143   0.32200 0.35400 0.43900 0.08800 0.14100 0.11400
C9_144   0.32200 0.35400 0.43900 0.08800 0.14100 0.11400
C9_145   0.32200 0.35400 0.43900 0.08800 0.14100 0.11400
C9_146   0.32200 0.35400 0.43900 0.08800 0.14100 0.11400
C9_147   0.32200 0.35400 0.43900 0.08800 0.14100 0.11400
C9_148   0.32200 0.35400 0.43900 0.08800 0.14100 0.11400
C9_149   0.32200 0.35400 0.43900 0.08800 0.14100 0.11400
C9_150   0.32200 0.35400 0.43900 0.08800 0.14100 0.11400
C9_151   0.32200 0.35400 0.43900 0.08800 0.14100 0.11400
C9_152   0.32200 0.35400 0.43900 0.08800 0.14100 0.11400
C9_153   0.32200 0.35400 0.43900 0.08800 0.14100 0.11400
C9_154   0.32200 0.35400 0.43900 0.08800 0.14100 0.11400
C9_155   0.32200 0.35400 0.43900 0.08800 0.14100 0.11400
C9_156   0.32200 0.35400 0.43900 0.08800 0.14100 0.11400
C9_157   0.32200 0.35400 0.43900 0.08800 0.14100 0.11400
C9_158   0.32200 0.35400 0.43900 0.08800 0.14100 0.11400
C9_159   0.32200 0.35400 0.43900 0.08800 0.14100 0.11400
C9_160   0.32200 0.35400 0.43900 0.08800 0.14100 0.11400
C9_161   0.32200 0.35400 0.43900 0.08800 0.14100 0.11400
C9_162   0.32200 0.35400 0.43900 0.08800 0.14100 0.11400
C9_163   0.32200 0.35400 0.43900 0.08800 0.14100 0.11400
C9_164   0.32200 0.35400 0.43900 0.08800 0.14100 0.11400
C9_165   0.32200 0.35400 0.43900 0.08800 0.14100 0.11400
C9_166   0.32200 0.35400 0.43900 0.08800 0.14100 0.11400
C9_167   0.32200 0.35400 0.43900 0.08800 0.14100 0.11400
C9_168   0.32200 0.35400 0.43900 0.08800 0.14100 0.11400
C9_169   0.32200 0.35400 0.43900 0.08800 0.14100 0.11400
C9_170   0.32200 0.35400 0.43900 0.08800 0.14100 0.11400
C9_171   0.32200 0.35400 0.43900 0.08800 0.14100 0.11400
C9_172   0.32200 0.35400 0.43900 0.08800 0.14100 0.11400
C9_173   0.32200 0.35400 0.43900 0.08800 0.14100 0.11400
C9_174   0.32200 0.35400 0.43900 0.08800 0.14100 0.11400
C9_175   0.32200 0.35400 0.43900 0.08800 0.14100 0.11400
C9_176   0.32200 0.35400 0.43900 0.08800 0.14100 0.11400
C9_177   0.32200 0.35400 0.43900 0.08800 0.14100 0.11400
C9_178   0.32200 0.35400 0.43900 0.08800 0.14100 0.11400
C9_179   0.32200 0.35400 0.43900 0.08800 0.14100 0.11400
C9_180   0.32200 0.35400 0.43900 0.08800 0.14100 0.11400
C9_181   0.32200 0.35400 0.43900 0.08800 0.14100 0.11400
C9_182   0.32200 0.35400 0.43900 0.08800 0.14100 0.11400
C9_183   0.32200 0.35400 0.43900 0.08800 0.14100 0.11400
C9_184   0.32200 0.35400 0.43900 0.08800 0.14100 0.11400
C9_185   0.32200 0.35400 0.43900 0.08800 0.14100 0.11400
C9_186   0.32200 0.35400 0.43900 0.08800 0.14100 0.11400
C9_187   0.32200 0.35400 0.43900 0.08800 0.14100 0.11400
C9_188   0.32200 0.35400 0.43900 0.08800 0.14100 0.11400
C9_189   0.32200 0.35400 0.43900 0.08800 0.14100 0.11400
C9_190   0.32200 0.35400 0.43900 0.08800 0.14100 0.11400
C9_191   0.32200 0.35400 0.43900 0.08800 0.14100 0.11400
C9_192   0.32200 0.35400 0.43900 0.08800 0.14100 0.11400
Cu1   0.19400 0.25500 0.25500 0.03800 0.00000 0.00000
Cu1_2   0.19400 0.25500 0.25500 0.03800 0.00000 0.00000
Cu1_3   0.19400 0.25500 0.25500 0.03800 0.00000 0.00000
Cu1_4   0.19400 0.25500 0.25500 0.03800 0.00000 0.00000
Cu1_5   0.19400 0.25500 0.25500 0.03800 0.00000 0.00000
Cu1_6   0.19400 0.25500 0.25500 0.03800 0.00000 0.00000
Cu1_7   0.19400 0.25500 0.25500 0.03800 0.00000 0.00000
Cu1_8   0.19400 0.25500 0.25500 0.03800 0.00000 0.00000
Cu1_9   0.19400 0.25500 0.25500 0.03800 0.00000 0.00000
Cu1_10   0.19400 0.25500 0.25500 0.03800 0.00000 0.00000
Cu1_11   0.19400 0.25500 0.25500 0.03800 0.00000 0.00000
Cu1_12   0.19400 0.25500 0.25500 0.03800 0.00000 0.00000
Cu1_13   0.19400 0.25500 0.25500 0.03800 0.00000 0.00000
Cu1_14   0.19400 0.25500 0.25500 0.03800 0.00000 0.00000
Cu1_15   0.19400 0.25500 0.25500 0.03800 0.00000 0.00000
Cu1_16   0.19400 0.25500 0.25500 0.03800 0.00000 0.00000
Cu1_17   0.19400 0.25500 0.25500 0.03800 0.00000 0.00000
Cu1_18   0.19400 0.25500 0.25500 0.03800 0.00000 0.00000
Cu1_19   0.19400 0.25500 0.25500 0.03800 0.00000 0.00000
Cu1_20   0.19400 0.25500 0.25500 0.03800 0.00000 0.00000
Cu1_21   0.19400 0.25500 0.25500 0.03800 0.00000 0.00000
Cu1_22   0.19400 0.25500 0.25500 0.03800 0.00000 0.00000
Cu1_23   0.19400 0.25500 0.25500 0.03800 0.00000 0.00000
Cu1_24   0.19400 0.25500 0.25500 0.03800 0.00000 0.00000
Cu1_25   0.19400 0.25500 0.25500 0.03800 0.00000 0.00000
Cu1_26   0.19400 0.25500 0.25500 0.03800 0.00000 0.00000
Cu1_27   0.19400 0.25500 0.25500 0.03800 0.00000 0.00000
Cu1_28   0.19400 0.25500 0.25500 0.03800 0.00000 0.00000
Cu1_29   0.19400 0.25500 0.25500 0.03800 0.00000 0.00000
Cu1_30   0.19400 0.25500 0.25500 0.03800 0.00000 0.00000
Cu1_31   0.19400 0.25500 0.25500 0.03800 0.00000 0.00000
Cu1_32   0.19400 0.25500 0.25500 0.03800 0.00000 0.00000
Cu1_33   0.19400 0.25500 0.25500 0.03800 0.00000 0.00000
Cu1_34   0.19400 0.25500 0.25500 0.03800 0.00000 0.00000
Cu1_35   0.19400 0.25500 0.25500 0.03800 0.00000 0.00000
Cu1_36   0.19400 0.25500 0.25500 0.03800 0.00000 0.00000
Cu1_37   0.19400 0.25500 0.25500 0.03800 0.00000 0.00000
Cu1_38   0.19400 0.25500 0.25500 0.03800 0.00000 0.00000
Cu1_39   0.19400 0.25500 0.25500 0.03800 0.00000 0.00000
Cu1_40   0.19400 0.25500 0.25500 0.03800 0.00000 0.00000
Cu1_41   0.19400 0.25500 0.25500 0.03800 0.00000 0.00000
Cu1_42   0.19400 0.25500 0.25500 0.03800 0.00000 0.00000
Cu1_43   0.19400 0.25500 0.25500 0.03800 0.00000 0.00000
Cu1_44   0.19400 0.25500 0.25500 0.03800 0.00000 0.00000
Cu1_45   0.19400 0.25500 0.25500 0.03800 0.00000 0.00000
Cu1_46   0.19400 0.25500 0.25500 0.03800 0.00000 0.00000
Cu1_47   0.19400 0.25500 0.25500 0.03800 0.00000 0.00000
Cu1_48   0.19400 0.25500 0.25500 0.03800 0.00000 0.00000
O1   0.18000 0.22200 0.27300 0.00700 0.03900 0.02900
O1_2   0.18000 0.22200 0.27300 0.00700 0.03900 0.02900
O1_3   0.18000 0.22200 0.27300 0.00700 0.03900 0.02900
O1_4   0.18000 0.22200 0.27300 0.00700 0.03900 0.02900
O1_5   0.18000 0.22200 0.27300 0.00700 0.03900 0.02900
O1_6   0.18000 0.22200 0.27300 0.00700 0.03900 0.02900
O1_7   0.18000 0.22200 0.27300 0.00700 0.03900 0.02900
O1_8   0.18000 0.22200 0.27300 0.00700 0.03900 0.02900
O1_9   0.18000 0.22200 0.27300 0.00700 0.03900 0.02900
O1_10   0.18000 0.22200 0.27300 0.00700 0.03900 0.02900
O1_11   0.18000 0.22200 0.27300 0.00700 0.03900 0.02900
O1_12   0.18000 0.22200 0.27300 0.00700 0.03900 0.02900
O1_13   0.18000 0.22200 0.27300 0.00700 0.03900 0.02900
O1_14   0.18000 0.22200 0.27300 0.00700 0.03900 0.02900
O1_15   0.18000 0.22200 0.27300 0.00700 0.03900 0.02900
O1_16   0.18000 0.22200 0.27300 0.00700 0.03900 0.02900
O1_17   0.18000 0.22200 0.27300 0.00700 0.03900 0.02900
O1_18   0.18000 0.22200 0.27300 0.00700 0.03900 0.02900
O1_19   0.18000 0.22200 0.27300 0.00700 0.03900 0.02900
O1_20   0.18000 0.22200 0.27300 0.00700 0.03900 0.02900
O1_21   0.18000 0.22200 0.27300 0.00700 0.03900 0.02900
O1_22   0.18000 0.22200 0.27300 0.00700 0.03900 0.02900
O1_23   0.18000 0.22200 0.27300 0.00700 0.03900 0.02900
O1_24   0.18000 0.22200 0.27300 0.00700 0.03900 0.02900
O1_25   0.18000 0.22200 0.27300 0.00700 0.03900 0.02900
O1_26   0.18000 0.22200 0.27300 0.00700 0.03900 0.02900
O1_27   0.18000 0.22200 0.27300 0.00700 0.03900 0.02900
O1_28   0.18000 0.22200 0.27300 0.00700 0.03900 0.02900
O1_29   0.18000 0.22200 0.27300 0.00700 0.03900 0.02900
O1_30   0.18000 0.22200 0.27300 0.00700 0.03900 0.02900
O1_31   0.18000 0.22200 0.27300 0.00700 0.03900 0.02900
O1_32   0.18000 0.22200 0.27300 0.00700 0.03900 0.02900
O1_33   0.18000 0.22200 0.27300 0.00700 0.03900 0.02900
O1_34   0.18000 0.22200 0.27300 0.00700 0.03900 0.02900
O1_35   0.18000 0.22200 0.27300 0.00700 0.03900 0.02900
O1_36   0.18000 0.22200 0.27300 0.00700 0.03900 0.02900
O1_37   0.18000 0.22200 0.27300 0.00700 0.03900 0.02900
O1_38   0.18000 0.22200 0.27300 0.00700 0.03900 0.02900
O1_39   0.18000 0.22200 0.27300 0.00700 0.03900 0.02900
O1_40   0.18000 0.22200 0.27300 0.00700 0.03900 0.02900
O1_41   0.18000 0.22200 0.27300 0.00700 0.03900 0.02900
O1_42   0.18000 0.22200 0.27300 0.00700 0.03900 0.02900
O1_43   0.18000 0.22200 0.27300 0.00700 0.03900 0.02900
O1_44   0.18000 0.22200 0.27300 0.00700 0.03900 0.02900
O1_45   0.18000 0.22200 0.27300 0.00700 0.03900 0.02900
O1_46   0.18000 0.22200 0.27300 0.00700 0.03900 0.02900
O1_47   0.18000 0.22200 0.27300 0.00700 0.03900 0.02900
O1_48   0.18000 0.22200 0.27300 0.00700 0.03900 0.02900
O1_49   0.18000 0.22200 0.27300 0.00700 0.03900 0.02900
O1_50   0.18000 0.22200 0.27300 0.00700 0.03900 0.02900
O1_51   0.18000 0.22200 0.27300 0.00700 0.03900 0.02900
O1_52   0.18000 0.22200 0.27300 0.00700 0.03900 0.02900
O1_53   0.18000 0.22200 0.27300 0.00700 0.03900 0.02900
O1_54   0.18000 0.22200 0.27300 0.00700 0.03900 0.02900
O1_55   0.18000 0.22200 0.27300 0.00700 0.03900 0.02900
O1_56   0.18000 0.22200 0.27300 0.00700 0.03900 0.02900
O1_57   0.18000 0.22200 0.27300 0.00700 0.03900 0.02900
O1_58   0.18000 0.22200 0.27300 0.00700 0.03900 0.02900
O1_59   0.18000 0.22200 0.27300 0.00700 0.03900 0.02900
O1_60   0.18000 0.22200 0.27300 0.00700 0.03900 0.02900
O1_61   0.18000 0.22200 0.27300 0.00700 0.03900 0.02900
O1_62   0.18000 0.22200 0.27300 0.00700 0.03900 0.02900
O1_63   0.18000 0.22200 0.27300 0.00700 0.03900 0.02900
O1_64   0.18000 0.22200 0.27300 0.00700 0.03900 0.02900
O1_65   0.18000 0.22200 0.27300 0.00700 0.03900 0.02900
O1_66   0.18000 0.22200 0.27300 0.00700 0.03900 0.02900
O1_67   0.18000 0.22200 0.27300 0.00700 0.03900 0.02900
O1_68   0.18000 0.22200 0.27300 0.00700 0.03900 0.02900
O1_69   0.18000 0.22200 0.27300 0.00700 0.03900 0.02900
O1_70   0.18000 0.22200 0.27300 0.00700 0.03900 0.02900
O1_71   0.18000 0.22200 0.27300 0.00700 0.03900 0.02900
O1_72   0.18000 0.22200 0.27300 0.00700 0.03900 0.02900
O1_73   0.18000 0.22200 0.27300 0.00700 0.03900 0.02900
O1_74   0.18000 0.22200 0.27300 0.00700 0.03900 0.02900
O1_75   0.18000 0.22200 0.27300 0.00700 0.03900 0.02900
O1_76   0.18000 0.22200 0.27300 0.00700 0.03900 0.02900
O1_77   0.18000 0.22200 0.27300 0.00700 0.03900 0.02900
O1_78   0.18000 0.22200 0.27300 0.00700 0.03900 0.02900
O1_79   0.18000 0.22200 0.27300 0.00700 0.03900 0.02900
O1_80   0.18000 0.22200 0.27300 0.00700 0.03900 0.02900
O1_81   0.18000 0.22200 0.27300 0.00700 0.03900 0.02900
O1_82   0.18000 0.22200 0.27300 0.00700 0.03900 0.02900
O1_83   0.18000 0.22200 0.27300 0.00700 0.03900 0.02900
O1_84   0.18000 0.22200 0.27300 0.00700 0.03900 0.02900
O1_85   0.18000 0.22200 0.27300 0.00700 0.03900 0.02900
O1_86   0.18000 0.22200 0.27300 0.00700 0.03900 0.02900
O1_87   0.18000 0.22200 0.27300 0.00700 0.03900 0.02900
O1_88   0.18000 0.22200 0.27300 0.00700 0.03900 0.02900
O1_89   0.18000 0.22200 0.27300 0.00700 0.03900 0.02900
O1_90   0.18000 0.22200 0.27300 0.00700 0.03900 0.02900
O1_91   0.18000 0.22200 0.27300 0.00700 0.03900 0.02900
O1_92   0.18000 0.22200 0.27300 0.00700 0.03900 0.02900
O1_93   0.18000 0.22200 0.27300 0.00700 0.03900 0.02900
O1_94   0.18000 0.22200 0.27300 0.00700 0.03900 0.02900
O1_95   0.18000 0.22200 0.27300 0.00700 0.03900 0.02900
O1_96   0.18000 0.22200 0.27300 0.00700 0.03900 0.02900
O1_97   0.18000 0.22200 0.27300 0.00700 0.03900 0.02900
O1_98   0.18000 0.22200 0.27300 0.00700 0.03900 0.02900
O1_99   0.18000 0.22200 0.27300 0.00700 0.03900 0.02900
O1_100   0.18000 0.22200 0.27300 0.00700 0.03900 0.02900
O1_101   0.18000 0.22200 0.27300 0.00700 0.03900 0.02900
O1_102   0.18000 0.22200 0.27300 0.00700 0.03900 0.02900
O1_103   0.18000 0.22200 0.27300 0.00700 0.03900 0.02900
O1_104   0.18000 0.22200 0.27300 0.00700 0.03900 0.02900
O1_105   0.18000 0.22200 0.27300 0.00700 0.03900 0.02900
O1_106   0.18000 0.22200 0.27300 0.00700 0.03900 0.02900
O1_107   0.18000 0.22200 0.27300 0.00700 0.03900 0.02900
O1_108   0.18000 0.22200 0.27300 0.00700 0.03900 0.02900
O1_109   0.18000 0.22200 0.27300 0.00700 0.03900 0.02900
O1_110   0.18000 0.22200 0.27300 0.00700 0.03900 0.02900
O1_111   0.18000 0.22200 0.27300 0.00700 0.03900 0.02900
O1_112   0.18000 0.22200 0.27300 0.00700 0.03900 0.02900
O1_113   0.18000 0.22200 0.27300 0.00700 0.03900 0.02900
O1_114   0.18000 0.22200 0.27300 0.00700 0.03900 0.02900
O1_115   0.18000 0.22200 0.27300 0.00700 0.03900 0.02900
O1_116   0.18000 0.22200 0.27300 0.00700 0.03900 0.02900
O1_117   0.18000 0.22200 0.27300 0.00700 0.03900 0.02900
O1_118   0.18000 0.22200 0.27300 0.00700 0.03900 0.02900
O1_119   0.18000 0.22200 0.27300 0.00700 0.03900 0.02900
O1_120   0.18000 0.22200 0.27300 0.00700 0.03900 0.02900
O1_121   0.18000 0.22200 0.27300 0.00700 0.03900 0.02900
O1_122   0.18000 0.22200 0.27300 0.00700 0.03900 0.02900
O1_123   0.18000 0.22200 0.27300 0.00700 0.03900 0.02900
O1_124   0.18000 0.22200 0.27300 0.00700 0.03900 0.02900
O1_125   0.18000 0.22200 0.27300 0.00700 0.03900 0.02900
O1_126   0.18000 0.22200 0.27300 0.00700 0.03900 0.02900
O1_127   0.18000 0.22200 0.27300 0.00700 0.03900 0.02900
O1_128   0.18000 0.22200 0.27300 0.00700 0.03900 0.02900
O1_129   0.18000 0.22200 0.27300 0.00700 0.03900 0.02900
O1_130   0.18000 0.22200 0.27300 0.00700 0.03900 0.02900
O1_131   0.18000 0.22200 0.27300 0.00700 0.03900 0.02900
O1_132   0.18000 0.22200 0.27300 0.00700 0.03900 0.02900
O1_133   0.18000 0.22200 0.27300 0.00700 0.03900 0.02900
O1_134   0.18000 0.22200 0.27300 0.00700 0.03900 0.02900
O1_135   0.18000 0.22200 0.27300 0.00700 0.03900 0.02900
O1_136   0.18000 0.22200 0.27300 0.00700 0.03900 0.02900
O1_137   0.18000 0.22200 0.27300 0.00700 0.03900 0.02900
O1_138   0.18000 0.22200 0.27300 0.00700 0.03900 0.02900
O1_139   0.18000 0.22200 0.27300 0.00700 0.03900 0.02900
O1_140   0.18000 0.22200 0.27300 0.00700 0.03900 0.02900
O1_141   0.18000 0.22200 0.27300 0.00700 0.03900 0.02900
O1_142   0.18000 0.22200 0.27300 0.00700 0.03900 0.02900
O1_143   0.18000 0.22200 0.27300 0.00700 0.03900 0.02900
O1_144   0.18000 0.22200 0.27300 0.00700 0.03900 0.02900
O1_145   0.18000 0.22200 0.27300 0.00700 0.03900 0.02900
O1_146   0.18000 0.22200 0.27300 0.00700 0.03900 0.02900
O1_147   0.18000 0.22200 0.27300 0.00700 0.03900 0.02900
O1_148   0.18000 0.22200 0.27300 0.00700 0.03900 0.02900
O1_149   0.18000 0.22200 0.27300 0.00700 0.03900 0.02900
O1_150   0.18000 0.22200 0.27300 0.00700 0.03900 0.02900
O1_151   0.18000 0.22200 0.27300 0.00700 0.03900 0.02900
O1_152   0.18000 0.22200 0.27300 0.00700 0.03900 0.02900
O1_153   0.18000 0.22200 0.27300 0.00700 0.03900 0.02900
O1_154   0.18000 0.22200 0.27300 0.00700 0.03900 0.02900
O1_155   0.18000 0.22200 0.27300 0.00700 0.03900 0.02900
O1_156   0.18000 0.22200 0.27300 0.00700 0.03900 0.02900
O1_157   0.18000 0.22200 0.27300 0.00700 0.03900 0.02900
O1_158   0.18000 0.22200 0.27300 0.00700 0.03900 0.02900
O1_159   0.18000 0.22200 0.27300 0.00700 0.03900 0.02900
O1_160   0.18000 0.22200 0.27300 0.00700 0.03900 0.02900
O1_161   0.18000 0.22200 0.27300 0.00700 0.03900 0.02900
O1_162   0.18000 0.22200 0.27300 0.00700 0.03900 0.02900
O1_163   0.18000 0.22200 0.27300 0.00700 0.03900 0.02900
O1_164   0.18000 0.22200 0.27300 0.00700 0.03900 0.02900
O1_165   0.18000 0.22200 0.27300 0.00700 0.03900 0.02900
O1_166   0.18000 0.22200 0.27300 0.00700 0.03900 0.02900
O1_167   0.18000 0.22200 0.27300 0.00700 0.03900 0.02900
O1_168   0.18000 0.22200 0.27300 0.00700 0.03900 0.02900
O1_169   0.18000 0.22200 0.27300 0.00700 0.03900 0.02900
O1_170   0.18000 0.22200 0.27300 0.00700 0.03900 0.02900
O1_171   0.18000 0.22200 0.27300 0.00700 0.03900 0.02900
O1_172   0.18000 0.22200 0.27300 0.00700 0.03900 0.02900
O1_173   0.18000 0.22200 0.27300 0.00700 0.03900 0.02900
O1_174   0.18000 0.22200 0.27300 0.00700 0.03900 0.02900
O1_175   0.18000 0.22200 0.27300 0.00700 0.03900 0.02900
O1_176   0.18000 0.22200 0.27300 0.00700 0.03900 0.02900
O1_177   0.18000 0.22200 0.27300 0.00700 0.03900 0.02900
O1_178   0.18000 0.22200 0.27300 0.00700 0.03900 0.02900
O1_179   0.18000 0.22200 0.27300 0.00700 0.03900 0.02900
O1_180   0.18000 0.22200 0.27300 0.00700 0.03900 0.02900
O1_181   0.18000 0.22200 0.27300 0.00700 0.03900 0.02900
O1_182   0.18000 0.22200 0.27300 0.00700 0.03900 0.02900
O1_183   0.18000 0.22200 0.27300 0.00700 0.03900 0.02900
O1_184   0.18000 0.22200 0.27300 0.00700 0.03900 0.02900
O1_185   0.18000 0.22200 0.27300 0.00700 0.03900 0.02900
O1_186   0.18000 0.22200 0.27300 0.00700 0.03900 0.02900
O1_187   0.18000 0.22200 0.27300 0.00700 0.03900 0.02900
O1_188   0.18000 0.22200 0.27300 0.00700 0.03900 0.02900
O1_189   0.18000 0.22200 0.27300 0.00700 0.03900 0.02900
O1_190   0.18000 0.22200 0.27300 0.00700 0.03900 0.02900
O1_191   0.18000 0.22200 0.27300 0.00700 0.03900 0.02900
O1_192   0.18000 0.22200 0.27300 0.00700 0.03900 0.02900
