data_DUT67_model
_audit_creation_method         'generated by CrystalMaker X for macOS'
_cell_length_a                  38.995200
_cell_length_b                  38.995200
_cell_length_c                  38.995200
_cell_angle_alpha               90.000000
_cell_angle_beta                90.000000
_cell_angle_gamma               90.000000

_symmetry_space_group_name_H-M     'P 1'

loop_
_symmetry_equiv_pos_as_xyz
'+x,+y,+z'

loop_
_atom_site_label
_atom_site_type_symbol
_atom_site_occupancy
_atom_site_fract_x
_atom_site_fract_y
_atom_site_fract_z
_atom_site_U_iso_or_equiv
 C1  C 1.0  0.23357  0.15705  0.06083  0.05000
 C1_2  C 1.0  0.06083  0.23357  0.15705  0.05000
 C1_3  C 1.0  0.15705  0.06083  0.23357  0.05000
 C1_4  C 1.0  0.73357  0.15705  0.43917  0.05000
 C1_5  C 1.0  0.56083  0.23357  0.34295  0.05000
 C1_6  C 1.0  0.65705  0.06083  0.26643  0.05000
 C1_7  C 1.0  0.26643  0.65705  0.06083  0.05000
 C1_8  C 1.0  0.43917  0.73357  0.15705  0.05000
 C1_9  C 1.0  0.34295  0.56083  0.23357  0.05000
 C1_10  C 1.0  0.76643  0.65705  0.43917  0.05000
 C1_11  C 1.0  0.93917  0.73357  0.34295  0.05000
 C1_12  C 1.0  0.84295  0.56083  0.26643  0.05000
 C1_13  C 1.0  0.76643  0.84295  0.93917  0.05000
 C1_14  C 1.0  0.93917  0.76643  0.84295  0.05000
 C1_15  C 1.0  0.84295  0.93917  0.76643  0.05000
 C1_16  C 1.0  0.26643  0.84295  0.56083  0.05000
 C1_17  C 1.0  0.43917  0.76643  0.65705  0.05000
 C1_18  C 1.0  0.34295  0.93917  0.73357  0.05000
 C1_19  C 1.0  0.73357  0.34295  0.93917  0.05000
 C1_20  C 1.0  0.56083  0.26643  0.84295  0.05000
 C1_21  C 1.0  0.65705  0.43917  0.76643  0.05000
 C1_22  C 1.0  0.23357  0.34295  0.56083  0.05000
 C1_23  C 1.0  0.06083  0.26643  0.65705  0.05000
 C1_24  C 1.0  0.15705  0.43917  0.73357  0.05000
 C2  C 1.0  0.22603  0.12855  0.08404  0.05000
 C2_2  C 1.0  0.08404  0.22603  0.12855  0.05000
 C2_3  C 1.0  0.12855  0.08404  0.22603  0.05000
 C2_4  C 1.0  0.72603  0.12855  0.41596  0.05000
 C2_5  C 1.0  0.58404  0.22603  0.37145  0.05000
 C2_6  C 1.0  0.62855  0.08404  0.27397  0.05000
 C2_7  C 1.0  0.27397  0.62855  0.08404  0.05000
 C2_8  C 1.0  0.41596  0.72603  0.12855  0.05000
 C2_9  C 1.0  0.37145  0.58404  0.22603  0.05000
 C2_10  C 1.0  0.77397  0.62855  0.41596  0.05000
 C2_11  C 1.0  0.91596  0.72603  0.37145  0.05000
 C2_12  C 1.0  0.87145  0.58404  0.27397  0.05000
 C2_13  C 1.0  0.77397  0.87145  0.91596  0.05000
 C2_14  C 1.0  0.91596  0.77397  0.87145  0.05000
 C2_15  C 1.0  0.87145  0.91596  0.77397  0.05000
 C2_16  C 1.0  0.27397  0.87145  0.58404  0.05000
 C2_17  C 1.0  0.41596  0.77397  0.62855  0.05000
 C2_18  C 1.0  0.37145  0.91596  0.72603  0.05000
 C2_19  C 1.0  0.72603  0.37145  0.91596  0.05000
 C2_20  C 1.0  0.58404  0.27397  0.87145  0.05000
 C2_21  C 1.0  0.62855  0.41596  0.77397  0.05000
 C2_22  C 1.0  0.22603  0.37145  0.58404  0.05000
 C2_23  C 1.0  0.08404  0.27397  0.62855  0.05000
 C2_24  C 1.0  0.12855  0.41596  0.72603  0.05000
 C3  C 1.0  0.19785  0.10718  0.08211  0.05000
 C3_2  C 1.0  0.08211  0.19785  0.10718  0.05000
 C3_3  C 1.0  0.10718  0.08211  0.19785  0.05000
 C3_4  C 1.0  0.69785  0.10718  0.41789  0.05000
 C3_5  C 1.0  0.58211  0.19785  0.39282  0.05000
 C3_6  C 1.0  0.60718  0.08211  0.30215  0.05000
 C3_7  C 1.0  0.30215  0.60718  0.08211  0.05000
 C3_8  C 1.0  0.41789  0.69785  0.10718  0.05000
 C3_9  C 1.0  0.39282  0.58211  0.19785  0.05000
 C3_10  C 1.0  0.80215  0.60718  0.41789  0.05000
 C3_11  C 1.0  0.91789  0.69785  0.39282  0.05000
 C3_12  C 1.0  0.89282  0.58211  0.30215  0.05000
 C3_13  C 1.0  0.80215  0.89282  0.91789  0.05000
 C3_14  C 1.0  0.91789  0.80215  0.89282  0.05000
 C3_15  C 1.0  0.89282  0.91789  0.80215  0.05000
 C3_16  C 1.0  0.30215  0.89282  0.58211  0.05000
 C3_17  C 1.0  0.41789  0.80215  0.60718  0.05000
 C3_18  C 1.0  0.39282  0.91789  0.69785  0.05000
 C3_19  C 1.0  0.69785  0.39282  0.91789  0.05000
 C3_20  C 1.0  0.58211  0.30215  0.89282  0.05000
 C3_21  C 1.0  0.60718  0.41789  0.80215  0.05000
 C3_22  C 1.0  0.19785  0.39282  0.58211  0.05000
 C3_23  C 1.0  0.08211  0.30215  0.60718  0.05000
 C3_24  C 1.0  0.10718  0.41789  0.69785  0.05000
 C4  C 1.0  0.32867  0.5  0.32867  0.05000
 C4_2  C 1.0  0.32867  0.32867  0.5  0.05000
 C4_3  C 1.0  0.5  0.32867  0.32867  0.05000
 C4_4  C 1.0  0.82867  0.5  0.17133  0.05000
 C4_5  C 1.0  0.82867  0.32867  0.0  0.05000
 C4_6  C 1.0  0.0  0.32867  0.17133  0.05000
 C4_7  C 1.0  0.17133  0.0  0.32867  0.05000
 C4_8  C 1.0  0.17133  0.82867  0.5  0.05000
 C4_9  C 1.0  0.0  0.82867  0.32867  0.05000
 C4_10  C 1.0  0.67133  0.0  0.17133  0.05000
 C4_11  C 1.0  0.67133  0.82867  0.0  0.05000
 C4_12  C 1.0  0.5  0.82867  0.17133  0.05000
 C4_13  C 1.0  0.67133  0.5  0.67133  0.05000
 C4_14  C 1.0  0.67133  0.67133  0.5  0.05000
 C4_15  C 1.0  0.5  0.67133  0.67133  0.05000
 C4_16  C 1.0  0.17133  0.5  0.82867  0.05000
 C4_17  C 1.0  0.17133  0.67133  0.0  0.05000
 C4_18  C 1.0  0.0  0.67133  0.82867  0.05000
 C4_19  C 1.0  0.82867  0.0  0.67133  0.05000
 C4_20  C 1.0  0.82867  0.17133  0.5  0.05000
 C4_21  C 1.0  0.0  0.17133  0.67133  0.05000
 C4_22  C 1.0  0.32867  0.0  0.82867  0.05000
 C4_23  C 1.0  0.32867  0.17133  0.0  0.05000
 C4_24  C 1.0  0.5  0.17133  0.82867  0.05000
 C5  C 1.0  0.14433  0.5  0.14433  0.05000
 C5_2  C 1.0  0.14433  0.14433  0.5  0.05000
 C5_3  C 1.0  0.5  0.14433  0.14433  0.05000
 C5_4  C 1.0  0.64433  0.5  0.35567  0.05000
 C5_5  C 1.0  0.64433  0.14433  0.0  0.05000
 C5_6  C 1.0  0.0  0.14433  0.35567  0.05000
 C5_7  C 1.0  0.35567  0.0  0.14433  0.05000
 C5_8  C 1.0  0.35567  0.64433  0.5  0.05000
 C5_9  C 1.0  0.0  0.64433  0.14433  0.05000
 C5_10  C 1.0  0.85567  0.0  0.35567  0.05000
 C5_11  C 1.0  0.85567  0.64433  0.0  0.05000
 C5_12  C 1.0  0.5  0.64433  0.35567  0.05000
 C5_13  C 1.0  0.85567  0.5  0.85567  0.05000
 C5_14  C 1.0  0.85567  0.85567  0.5  0.05000
 C5_15  C 1.0  0.5  0.85567  0.85567  0.05000
 C5_16  C 1.0  0.35567  0.5  0.64433  0.05000
 C5_17  C 1.0  0.35567  0.85567  0.0  0.05000
 C5_18  C 1.0  0.0  0.85567  0.64433  0.05000
 C5_19  C 1.0  0.64433  0.0  0.85567  0.05000
 C5_20  C 1.0  0.64433  0.35567  0.5  0.05000
 C5_21  C 1.0  0.0  0.35567  0.85567  0.05000
 C5_22  C 1.0  0.14433  0.0  0.64433  0.05000
 C5_23  C 1.0  0.14433  0.35567  0.0  0.05000
 C5_24  C 1.0  0.5  0.35567  0.64433  0.05000
 C6  C 1.0  0.25  0.61479  0.25  0.05000
 C6_2  C 1.0  0.25  0.25  0.61479  0.05000
 C6_3  C 1.0  0.61479  0.25  0.25  0.05000
 C6_4  C 1.0  0.75  0.61479  0.25  0.05000
 C6_5  C 1.0  0.75  0.25  0.88521  0.05000
 C6_6  C 1.0  0.11479  0.25  0.25  0.05000
 C6_7  C 1.0  0.25  0.11479  0.25  0.05000
 C6_8  C 1.0  0.25  0.75  0.61479  0.05000
 C6_9  C 1.0  0.88521  0.75  0.25  0.05000
 C6_10  C 1.0  0.75  0.11479  0.25  0.05000
 C6_11  C 1.0  0.75  0.75  0.88521  0.05000
 C6_12  C 1.0  0.38521  0.75  0.25  0.05000
 C6_13  C 1.0  0.75  0.38521  0.75  0.05000
 C6_14  C 1.0  0.75  0.75  0.38521  0.05000
 C6_15  C 1.0  0.38521  0.75  0.75  0.05000
 C6_16  C 1.0  0.25  0.38521  0.75  0.05000
 C6_17  C 1.0  0.25  0.75  0.11479  0.05000
 C6_18  C 1.0  0.88521  0.75  0.75  0.05000
 C6_19  C 1.0  0.75  0.88521  0.75  0.05000
 C6_20  C 1.0  0.75  0.25  0.38521  0.05000
 C6_21  C 1.0  0.11479  0.25  0.75  0.05000
 C6_22  C 1.0  0.25  0.88521  0.75  0.05000
 C6_23  C 1.0  0.25  0.25  0.11479  0.05000
 C6_24  C 1.0  0.61479  0.25  0.75  0.05000
 C7  C 1.0  0.25  0.65297  0.25  0.05000
 C7_2  C 1.0  0.25  0.25  0.65297  0.05000
 C7_3  C 1.0  0.65297  0.25  0.25  0.05000
 C7_4  C 1.0  0.75  0.65297  0.25  0.05000
 C7_5  C 1.0  0.75  0.25  0.84703  0.05000
 C7_6  C 1.0  0.15297  0.25  0.25  0.05000
 C7_7  C 1.0  0.25  0.15297  0.25  0.05000
 C7_8  C 1.0  0.25  0.75  0.65297  0.05000
 C7_9  C 1.0  0.84703  0.75  0.25  0.05000
 C7_10  C 1.0  0.75  0.15297  0.25  0.05000
 C7_11  C 1.0  0.75  0.75  0.84703  0.05000
 C7_12  C 1.0  0.34703  0.75  0.25  0.05000
 C7_13  C 1.0  0.75  0.34703  0.75  0.05000
 C7_14  C 1.0  0.75  0.75  0.34703  0.05000
 C7_15  C 1.0  0.34703  0.75  0.75  0.05000
 C7_16  C 1.0  0.25  0.34703  0.75  0.05000
 C7_17  C 1.0  0.25  0.75  0.15297  0.05000
 C7_18  C 1.0  0.84703  0.75  0.75  0.05000
 C7_19  C 1.0  0.75  0.84703  0.75  0.05000
 C7_20  C 1.0  0.75  0.25  0.34703  0.05000
 C7_21  C 1.0  0.15297  0.25  0.75  0.05000
 C7_22  C 1.0  0.25  0.84703  0.75  0.05000
 C7_23  C 1.0  0.25  0.25  0.15297  0.05000
 C7_24  C 1.0  0.65297  0.25  0.75  0.05000
 C1_4  C 1.0  0.23357  0.15705  0.93917  0.05000
 C1_4_2  C 1.0  0.93917  0.23357  0.15705  0.05000
 C1_4_3  C 1.0  0.15705  0.93917  0.23357  0.05000
 C1_4_4  C 1.0  0.73357  0.15705  0.56083  0.05000
 C1_4_5  C 1.0  0.43917  0.23357  0.34295  0.05000
 C1_4_6  C 1.0  0.65705  0.93917  0.26643  0.05000
 C1_4_7  C 1.0  0.26643  0.65705  0.93917  0.05000
 C1_4_8  C 1.0  0.56083  0.73357  0.15705  0.05000
 C1_4_9  C 1.0  0.34295  0.43917  0.23357  0.05000
 C1_4_10  C 1.0  0.76643  0.65705  0.56083  0.05000
 C1_4_11  C 1.0  0.06083  0.73357  0.34295  0.05000
 C1_4_12  C 1.0  0.84295  0.43917  0.26643  0.05000
 C1_4_13  C 1.0  0.76643  0.84295  0.06083  0.05000
 C1_4_14  C 1.0  0.06083  0.76643  0.84295  0.05000
 C1_4_15  C 1.0  0.84295  0.06083  0.76643  0.05000
 C1_4_16  C 1.0  0.26643  0.84295  0.43917  0.05000
 C1_4_17  C 1.0  0.56083  0.76643  0.65705  0.05000
 C1_4_18  C 1.0  0.34295  0.06083  0.73357  0.05000
 C1_4_19  C 1.0  0.73357  0.34295  0.06083  0.05000
 C1_4_20  C 1.0  0.43917  0.26643  0.84295  0.05000
 C1_4_21  C 1.0  0.65705  0.56083  0.76643  0.05000
 C1_4_22  C 1.0  0.23357  0.34295  0.43917  0.05000
 C1_4_23  C 1.0  0.93917  0.26643  0.65705  0.05000
 C1_4_24  C 1.0  0.15705  0.56083  0.73357  0.05000
 C1_5  C 1.0  0.06083  0.23357  0.84295  0.05000
 C1_5_2  C 1.0  0.84295  0.06083  0.23357  0.05000
 C1_5_3  C 1.0  0.23357  0.84295  0.06083  0.05000
 C1_5_4  C 1.0  0.56083  0.23357  0.65705  0.05000
 C1_5_5  C 1.0  0.34295  0.06083  0.26643  0.05000
 C1_5_6  C 1.0  0.73357  0.84295  0.43917  0.05000
 C1_5_7  C 1.0  0.43917  0.73357  0.84295  0.05000
 C1_5_8  C 1.0  0.65705  0.56083  0.23357  0.05000
 C1_5_9  C 1.0  0.26643  0.34295  0.06083  0.05000
 C1_5_10  C 1.0  0.93917  0.73357  0.65705  0.05000
 C1_5_11  C 1.0  0.15705  0.56083  0.26643  0.05000
 C1_5_12  C 1.0  0.76643  0.34295  0.43917  0.05000
 C1_5_13  C 1.0  0.93917  0.76643  0.15705  0.05000
 C1_5_14  C 1.0  0.15705  0.93917  0.76643  0.05000
 C1_5_15  C 1.0  0.76643  0.15705  0.93917  0.05000
 C1_5_16  C 1.0  0.43917  0.76643  0.34295  0.05000
 C1_5_17  C 1.0  0.65705  0.93917  0.73357  0.05000
 C1_5_18  C 1.0  0.26643  0.15705  0.56083  0.05000
 C1_5_19  C 1.0  0.56083  0.26643  0.15705  0.05000
 C1_5_20  C 1.0  0.34295  0.43917  0.76643  0.05000
 C1_5_21  C 1.0  0.73357  0.65705  0.93917  0.05000
 C1_5_22  C 1.0  0.06083  0.26643  0.34295  0.05000
 C1_5_23  C 1.0  0.84295  0.43917  0.73357  0.05000
 C1_5_24  C 1.0  0.23357  0.65705  0.56083  0.05000
 C1_6  C 1.0  0.15705  0.06083  0.76643  0.05000
 C1_6_2  C 1.0  0.76643  0.15705  0.06083  0.05000
 C1_6_3  C 1.0  0.06083  0.76643  0.15705  0.05000
 C1_6_4  C 1.0  0.65705  0.06083  0.73357  0.05000
 C1_6_5  C 1.0  0.26643  0.15705  0.43917  0.05000
 C1_6_6  C 1.0  0.56083  0.76643  0.34295  0.05000
 C1_6_7  C 1.0  0.34295  0.56083  0.76643  0.05000
 C1_6_8  C 1.0  0.73357  0.65705  0.06083  0.05000
 C1_6_9  C 1.0  0.43917  0.26643  0.15705  0.05000
 C1_6_10  C 1.0  0.84295  0.56083  0.73357  0.05000
 C1_6_11  C 1.0  0.23357  0.65705  0.43917  0.05000
 C1_6_12  C 1.0  0.93917  0.26643  0.34295  0.05000
 C1_6_13  C 1.0  0.84295  0.93917  0.23357  0.05000
 C1_6_14  C 1.0  0.23357  0.84295  0.93917  0.05000
 C1_6_15  C 1.0  0.93917  0.23357  0.84295  0.05000
 C1_6_16  C 1.0  0.34295  0.93917  0.26643  0.05000
 C1_6_17  C 1.0  0.73357  0.84295  0.56083  0.05000
 C1_6_18  C 1.0  0.43917  0.23357  0.65705  0.05000
 C1_6_19  C 1.0  0.65705  0.43917  0.23357  0.05000
 C1_6_20  C 1.0  0.26643  0.34295  0.93917  0.05000
 C1_6_21  C 1.0  0.56083  0.73357  0.84295  0.05000
 C1_6_22  C 1.0  0.15705  0.43917  0.26643  0.05000
 C1_6_23  C 1.0  0.76643  0.34295  0.56083  0.05000
 C1_6_24  C 1.0  0.06083  0.73357  0.65705  0.05000
 C1_13  C 1.0  0.15705  0.23357  0.06083  0.05000
 C1_13_2  C 1.0  0.06083  0.15705  0.23357  0.05000
 C1_13_3  C 1.0  0.23357  0.06083  0.15705  0.05000
 C1_13_4  C 1.0  0.65705  0.23357  0.43917  0.05000
 C1_13_5  C 1.0  0.56083  0.15705  0.26643  0.05000
 C1_13_6  C 1.0  0.73357  0.06083  0.34295  0.05000
 C1_13_7  C 1.0  0.34295  0.73357  0.06083  0.05000
 C1_13_8  C 1.0  0.43917  0.65705  0.23357  0.05000
 C1_13_9  C 1.0  0.26643  0.56083  0.15705  0.05000
 C1_13_10  C 1.0  0.84295  0.73357  0.43917  0.05000
 C1_13_11  C 1.0  0.93917  0.65705  0.26643  0.05000
 C1_13_12  C 1.0  0.76643  0.56083  0.34295  0.05000
 C1_13_13  C 1.0  0.84295  0.76643  0.93917  0.05000
 C1_13_14  C 1.0  0.93917  0.84295  0.76643  0.05000
 C1_13_15  C 1.0  0.76643  0.93917  0.84295  0.05000
 C1_13_16  C 1.0  0.34295  0.76643  0.56083  0.05000
 C1_13_17  C 1.0  0.43917  0.84295  0.73357  0.05000
 C1_13_18  C 1.0  0.26643  0.93917  0.65705  0.05000
 C1_13_19  C 1.0  0.65705  0.26643  0.93917  0.05000
 C1_13_20  C 1.0  0.56083  0.34295  0.76643  0.05000
 C1_13_21  C 1.0  0.73357  0.43917  0.84295  0.05000
 C1_13_22  C 1.0  0.15705  0.26643  0.56083  0.05000
 C1_13_23  C 1.0  0.06083  0.34295  0.73357  0.05000
 C1_13_24  C 1.0  0.23357  0.43917  0.65705  0.05000
 C1_16  C 1.0  0.15705  0.23357  0.93917  0.05000
 C1_16_2  C 1.0  0.93917  0.15705  0.23357  0.05000
 C1_16_3  C 1.0  0.23357  0.93917  0.15705  0.05000
 C1_16_4  C 1.0  0.65705  0.23357  0.56083  0.05000
 C1_16_5  C 1.0  0.43917  0.15705  0.26643  0.05000
 C1_16_6  C 1.0  0.73357  0.93917  0.34295  0.05000
 C1_16_7  C 1.0  0.34295  0.73357  0.93917  0.05000
 C1_16_8  C 1.0  0.56083  0.65705  0.23357  0.05000
 C1_16_9  C 1.0  0.26643  0.43917  0.15705  0.05000
 C1_16_10  C 1.0  0.84295  0.73357  0.56083  0.05000
 C1_16_11  C 1.0  0.06083  0.65705  0.26643  0.05000
 C1_16_12  C 1.0  0.76643  0.43917  0.34295  0.05000
 C1_16_13  C 1.0  0.84295  0.76643  0.06083  0.05000
 C1_16_14  C 1.0  0.06083  0.84295  0.76643  0.05000
 C1_16_15  C 1.0  0.76643  0.06083  0.84295  0.05000
 C1_16_16  C 1.0  0.34295  0.76643  0.43917  0.05000
 C1_16_17  C 1.0  0.56083  0.84295  0.73357  0.05000
 C1_16_18  C 1.0  0.26643  0.06083  0.65705  0.05000
 C1_16_19  C 1.0  0.65705  0.26643  0.06083  0.05000
 C1_16_20  C 1.0  0.43917  0.34295  0.76643  0.05000
 C1_16_21  C 1.0  0.73357  0.56083  0.84295  0.05000
 C1_16_22  C 1.0  0.15705  0.26643  0.43917  0.05000
 C1_16_23  C 1.0  0.93917  0.34295  0.73357  0.05000
 C1_16_24  C 1.0  0.23357  0.56083  0.65705  0.05000
 C1_17  C 1.0  0.23357  0.06083  0.84295  0.05000
 C1_17_2  C 1.0  0.84295  0.23357  0.06083  0.05000
 C1_17_3  C 1.0  0.06083  0.84295  0.23357  0.05000
 C1_17_4  C 1.0  0.73357  0.06083  0.65705  0.05000
 C1_17_5  C 1.0  0.34295  0.23357  0.43917  0.05000
 C1_17_6  C 1.0  0.56083  0.84295  0.26643  0.05000
 C1_17_7  C 1.0  0.26643  0.56083  0.84295  0.05000
 C1_17_8  C 1.0  0.65705  0.73357  0.06083  0.05000
 C1_17_9  C 1.0  0.43917  0.34295  0.23357  0.05000
 C1_17_10  C 1.0  0.76643  0.56083  0.65705  0.05000
 C1_17_11  C 1.0  0.15705  0.73357  0.43917  0.05000
 C1_17_12  C 1.0  0.93917  0.34295  0.26643  0.05000
 C1_17_13  C 1.0  0.76643  0.93917  0.15705  0.05000
 C1_17_14  C 1.0  0.15705  0.76643  0.93917  0.05000
 C1_17_15  C 1.0  0.93917  0.15705  0.76643  0.05000
 C1_17_16  C 1.0  0.26643  0.93917  0.34295  0.05000
 C1_17_17  C 1.0  0.65705  0.76643  0.56083  0.05000
 C1_17_18  C 1.0  0.43917  0.15705  0.73357  0.05000
 C1_17_19  C 1.0  0.73357  0.43917  0.15705  0.05000
 C1_17_20  C 1.0  0.34295  0.26643  0.93917  0.05000
 C1_17_21  C 1.0  0.56083  0.65705  0.76643  0.05000
 C1_17_22  C 1.0  0.23357  0.43917  0.34295  0.05000
 C1_17_23  C 1.0  0.84295  0.26643  0.56083  0.05000
 C1_17_24  C 1.0  0.06083  0.65705  0.73357  0.05000
 C1_18  C 1.0  0.06083  0.15705  0.76643  0.05000
 C1_18_2  C 1.0  0.76643  0.06083  0.15705  0.05000
 C1_18_3  C 1.0  0.15705  0.76643  0.06083  0.05000
 C1_18_4  C 1.0  0.56083  0.15705  0.73357  0.05000
 C1_18_5  C 1.0  0.26643  0.06083  0.34295  0.05000
 C1_18_6  C 1.0  0.65705  0.76643  0.43917  0.05000
 C1_18_7  C 1.0  0.43917  0.65705  0.76643  0.05000
 C1_18_8  C 1.0  0.73357  0.56083  0.15705  0.05000
 C1_18_9  C 1.0  0.34295  0.26643  0.06083  0.05000
 C1_18_10  C 1.0  0.93917  0.65705  0.73357  0.05000
 C1_18_11  C 1.0  0.23357  0.56083  0.34295  0.05000
 C1_18_12  C 1.0  0.84295  0.26643  0.43917  0.05000
 C1_18_13  C 1.0  0.93917  0.84295  0.23357  0.05000
 C1_18_14  C 1.0  0.23357  0.93917  0.84295  0.05000
 C1_18_15  C 1.0  0.84295  0.23357  0.93917  0.05000
 C1_18_16  C 1.0  0.43917  0.84295  0.26643  0.05000
 C1_18_17  C 1.0  0.73357  0.93917  0.65705  0.05000
 C1_18_18  C 1.0  0.34295  0.23357  0.56083  0.05000
 C1_18_19  C 1.0  0.56083  0.34295  0.23357  0.05000
 C1_18_20  C 1.0  0.26643  0.43917  0.84295  0.05000
 C1_18_21  C 1.0  0.65705  0.73357  0.93917  0.05000
 C1_18_22  C 1.0  0.06083  0.34295  0.26643  0.05000
 C1_18_23  C 1.0  0.76643  0.43917  0.65705  0.05000
 C1_18_24  C 1.0  0.15705  0.73357  0.56083  0.05000
 C2_4  C 1.0  0.22603  0.12855  0.91596  0.05000
 C2_4_2  C 1.0  0.91596  0.22603  0.12855  0.05000
 C2_4_3  C 1.0  0.12855  0.91596  0.22603  0.05000
 C2_4_4  C 1.0  0.72603  0.12855  0.58404  0.05000
 C2_4_5  C 1.0  0.41596  0.22603  0.37145  0.05000
 C2_4_6  C 1.0  0.62855  0.91596  0.27397  0.05000
 C2_4_7  C 1.0  0.27397  0.62855  0.91596  0.05000
 C2_4_8  C 1.0  0.58404  0.72603  0.12855  0.05000
 C2_4_9  C 1.0  0.37145  0.41596  0.22603  0.05000
 C2_4_10  C 1.0  0.77397  0.62855  0.58404  0.05000
 C2_4_11  C 1.0  0.08404  0.72603  0.37145  0.05000
 C2_4_12  C 1.0  0.87145  0.41596  0.27397  0.05000
 C2_4_13  C 1.0  0.77397  0.87145  0.08404  0.05000
 C2_4_14  C 1.0  0.08404  0.77397  0.87145  0.05000
 C2_4_15  C 1.0  0.87145  0.08404  0.77397  0.05000
 C2_4_16  C 1.0  0.27397  0.87145  0.41596  0.05000
 C2_4_17  C 1.0  0.58404  0.77397  0.62855  0.05000
 C2_4_18  C 1.0  0.37145  0.08404  0.72603  0.05000
 C2_4_19  C 1.0  0.72603  0.37145  0.08404  0.05000
 C2_4_20  C 1.0  0.41596  0.27397  0.87145  0.05000
 C2_4_21  C 1.0  0.62855  0.58404  0.77397  0.05000
 C2_4_22  C 1.0  0.22603  0.37145  0.41596  0.05000
 C2_4_23  C 1.0  0.91596  0.27397  0.62855  0.05000
 C2_4_24  C 1.0  0.12855  0.58404  0.72603  0.05000
 C2_5  C 1.0  0.08404  0.22603  0.87145  0.05000
 C2_5_2  C 1.0  0.87145  0.08404  0.22603  0.05000
 C2_5_3  C 1.0  0.22603  0.87145  0.08404  0.05000
 C2_5_4  C 1.0  0.58404  0.22603  0.62855  0.05000
 C2_5_5  C 1.0  0.37145  0.08404  0.27397  0.05000
 C2_5_6  C 1.0  0.72603  0.87145  0.41596  0.05000
 C2_5_7  C 1.0  0.41596  0.72603  0.87145  0.05000
 C2_5_8  C 1.0  0.62855  0.58404  0.22603  0.05000
 C2_5_9  C 1.0  0.27397  0.37145  0.08404  0.05000
 C2_5_10  C 1.0  0.91596  0.72603  0.62855  0.05000
 C2_5_11  C 1.0  0.12855  0.58404  0.27397  0.05000
 C2_5_12  C 1.0  0.77397  0.37145  0.41596  0.05000
 C2_5_13  C 1.0  0.91596  0.77397  0.12855  0.05000
 C2_5_14  C 1.0  0.12855  0.91596  0.77397  0.05000
 C2_5_15  C 1.0  0.77397  0.12855  0.91596  0.05000
 C2_5_16  C 1.0  0.41596  0.77397  0.37145  0.05000
 C2_5_17  C 1.0  0.62855  0.91596  0.72603  0.05000
 C2_5_18  C 1.0  0.27397  0.12855  0.58404  0.05000
 C2_5_19  C 1.0  0.58404  0.27397  0.12855  0.05000
 C2_5_20  C 1.0  0.37145  0.41596  0.77397  0.05000
 C2_5_21  C 1.0  0.72603  0.62855  0.91596  0.05000
 C2_5_22  C 1.0  0.08404  0.27397  0.37145  0.05000
 C2_5_23  C 1.0  0.87145  0.41596  0.72603  0.05000
 C2_5_24  C 1.0  0.22603  0.62855  0.58404  0.05000
 C2_6  C 1.0  0.12855  0.08404  0.77397  0.05000
 C2_6_2  C 1.0  0.77397  0.12855  0.08404  0.05000
 C2_6_3  C 1.0  0.08404  0.77397  0.12855  0.05000
 C2_6_4  C 1.0  0.62855  0.08404  0.72603  0.05000
 C2_6_5  C 1.0  0.27397  0.12855  0.41596  0.05000
 C2_6_6  C 1.0  0.58404  0.77397  0.37145  0.05000
 C2_6_7  C 1.0  0.37145  0.58404  0.77397  0.05000
 C2_6_8  C 1.0  0.72603  0.62855  0.08404  0.05000
 C2_6_9  C 1.0  0.41596  0.27397  0.12855  0.05000
 C2_6_10  C 1.0  0.87145  0.58404  0.72603  0.05000
 C2_6_11  C 1.0  0.22603  0.62855  0.41596  0.05000
 C2_6_12  C 1.0  0.91596  0.27397  0.37145  0.05000
 C2_6_13  C 1.0  0.87145  0.91596  0.22603  0.05000
 C2_6_14  C 1.0  0.22603  0.87145  0.91596  0.05000
 C2_6_15  C 1.0  0.91596  0.22603  0.87145  0.05000
 C2_6_16  C 1.0  0.37145  0.91596  0.27397  0.05000
 C2_6_17  C 1.0  0.72603  0.87145  0.58404  0.05000
 C2_6_18  C 1.0  0.41596  0.22603  0.62855  0.05000
 C2_6_19  C 1.0  0.62855  0.41596  0.22603  0.05000
 C2_6_20  C 1.0  0.27397  0.37145  0.91596  0.05000
 C2_6_21  C 1.0  0.58404  0.72603  0.87145  0.05000
 C2_6_22  C 1.0  0.12855  0.41596  0.27397  0.05000
 C2_6_23  C 1.0  0.77397  0.37145  0.58404  0.05000
 C2_6_24  C 1.0  0.08404  0.72603  0.62855  0.05000
 C2_13  C 1.0  0.12855  0.22603  0.08404  0.05000
 C2_13_2  C 1.0  0.08404  0.12855  0.22603  0.05000
 C2_13_3  C 1.0  0.22603  0.08404  0.12855  0.05000
 C2_13_4  C 1.0  0.62855  0.22603  0.41596  0.05000
 C2_13_5  C 1.0  0.58404  0.12855  0.27397  0.05000
 C2_13_6  C 1.0  0.72603  0.08404  0.37145  0.05000
 C2_13_7  C 1.0  0.37145  0.72603  0.08404  0.05000
 C2_13_8  C 1.0  0.41596  0.62855  0.22603  0.05000
 C2_13_9  C 1.0  0.27397  0.58404  0.12855  0.05000
 C2_13_10  C 1.0  0.87145  0.72603  0.41596  0.05000
 C2_13_11  C 1.0  0.91596  0.62855  0.27397  0.05000
 C2_13_12  C 1.0  0.77397  0.58404  0.37145  0.05000
 C2_13_13  C 1.0  0.87145  0.77397  0.91596  0.05000
 C2_13_14  C 1.0  0.91596  0.87145  0.77397  0.05000
 C2_13_15  C 1.0  0.77397  0.91596  0.87145  0.05000
 C2_13_16  C 1.0  0.37145  0.77397  0.58404  0.05000
 C2_13_17  C 1.0  0.41596  0.87145  0.72603  0.05000
 C2_13_18  C 1.0  0.27397  0.91596  0.62855  0.05000
 C2_13_19  C 1.0  0.62855  0.27397  0.91596  0.05000
 C2_13_20  C 1.0  0.58404  0.37145  0.77397  0.05000
 C2_13_21  C 1.0  0.72603  0.41596  0.87145  0.05000
 C2_13_22  C 1.0  0.12855  0.27397  0.58404  0.05000
 C2_13_23  C 1.0  0.08404  0.37145  0.72603  0.05000
 C2_13_24  C 1.0  0.22603  0.41596  0.62855  0.05000
 C2_16  C 1.0  0.12855  0.22603  0.91596  0.05000
 C2_16_2  C 1.0  0.91596  0.12855  0.22603  0.05000
 C2_16_3  C 1.0  0.22603  0.91596  0.12855  0.05000
 C2_16_4  C 1.0  0.62855  0.22603  0.58404  0.05000
 C2_16_5  C 1.0  0.41596  0.12855  0.27397  0.05000
 C2_16_6  C 1.0  0.72603  0.91596  0.37145  0.05000
 C2_16_7  C 1.0  0.37145  0.72603  0.91596  0.05000
 C2_16_8  C 1.0  0.58404  0.62855  0.22603  0.05000
 C2_16_9  C 1.0  0.27397  0.41596  0.12855  0.05000
 C2_16_10  C 1.0  0.87145  0.72603  0.58404  0.05000
 C2_16_11  C 1.0  0.08404  0.62855  0.27397  0.05000
 C2_16_12  C 1.0  0.77397  0.41596  0.37145  0.05000
 C2_16_13  C 1.0  0.87145  0.77397  0.08404  0.05000
 C2_16_14  C 1.0  0.08404  0.87145  0.77397  0.05000
 C2_16_15  C 1.0  0.77397  0.08404  0.87145  0.05000
 C2_16_16  C 1.0  0.37145  0.77397  0.41596  0.05000
 C2_16_17  C 1.0  0.58404  0.87145  0.72603  0.05000
 C2_16_18  C 1.0  0.27397  0.08404  0.62855  0.05000
 C2_16_19  C 1.0  0.62855  0.27397  0.08404  0.05000
 C2_16_20  C 1.0  0.41596  0.37145  0.77397  0.05000
 C2_16_21  C 1.0  0.72603  0.58404  0.87145  0.05000
 C2_16_22  C 1.0  0.12855  0.27397  0.41596  0.05000
 C2_16_23  C 1.0  0.91596  0.37145  0.72603  0.05000
 C2_16_24  C 1.0  0.22603  0.58404  0.62855  0.05000
 C2_17  C 1.0  0.22603  0.08404  0.87145  0.05000
 C2_17_2  C 1.0  0.87145  0.22603  0.08404  0.05000
 C2_17_3  C 1.0  0.08404  0.87145  0.22603  0.05000
 C2_17_4  C 1.0  0.72603  0.08404  0.62855  0.05000
 C2_17_5  C 1.0  0.37145  0.22603  0.41596  0.05000
 C2_17_6  C 1.0  0.58404  0.87145  0.27397  0.05000
 C2_17_7  C 1.0  0.27397  0.58404  0.87145  0.05000
 C2_17_8  C 1.0  0.62855  0.72603  0.08404  0.05000
 C2_17_9  C 1.0  0.41596  0.37145  0.22603  0.05000
 C2_17_10  C 1.0  0.77397  0.58404  0.62855  0.05000
 C2_17_11  C 1.0  0.12855  0.72603  0.41596  0.05000
 C2_17_12  C 1.0  0.91596  0.37145  0.27397  0.05000
 C2_17_13  C 1.0  0.77397  0.91596  0.12855  0.05000
 C2_17_14  C 1.0  0.12855  0.77397  0.91596  0.05000
 C2_17_15  C 1.0  0.91596  0.12855  0.77397  0.05000
 C2_17_16  C 1.0  0.27397  0.91596  0.37145  0.05000
 C2_17_17  C 1.0  0.62855  0.77397  0.58404  0.05000
 C2_17_18  C 1.0  0.41596  0.12855  0.72603  0.05000
 C2_17_19  C 1.0  0.72603  0.41596  0.12855  0.05000
 C2_17_20  C 1.0  0.37145  0.27397  0.91596  0.05000
 C2_17_21  C 1.0  0.58404  0.62855  0.77397  0.05000
 C2_17_22  C 1.0  0.22603  0.41596  0.37145  0.05000
 C2_17_23  C 1.0  0.87145  0.27397  0.58404  0.05000
 C2_17_24  C 1.0  0.08404  0.62855  0.72603  0.05000
 C2_18  C 1.0  0.08404  0.12855  0.77397  0.05000
 C2_18_2  C 1.0  0.77397  0.08404  0.12855  0.05000
 C2_18_3  C 1.0  0.12855  0.77397  0.08404  0.05000
 C2_18_4  C 1.0  0.58404  0.12855  0.72603  0.05000
 C2_18_5  C 1.0  0.27397  0.08404  0.37145  0.05000
 C2_18_6  C 1.0  0.62855  0.77397  0.41596  0.05000
 C2_18_7  C 1.0  0.41596  0.62855  0.77397  0.05000
 C2_18_8  C 1.0  0.72603  0.58404  0.12855  0.05000
 C2_18_9  C 1.0  0.37145  0.27397  0.08404  0.05000
 C2_18_10  C 1.0  0.91596  0.62855  0.72603  0.05000
 C2_18_11  C 1.0  0.22603  0.58404  0.37145  0.05000
 C2_18_12  C 1.0  0.87145  0.27397  0.41596  0.05000
 C2_18_13  C 1.0  0.91596  0.87145  0.22603  0.05000
 C2_18_14  C 1.0  0.22603  0.91596  0.87145  0.05000
 C2_18_15  C 1.0  0.87145  0.22603  0.91596  0.05000
 C2_18_16  C 1.0  0.41596  0.87145  0.27397  0.05000
 C2_18_17  C 1.0  0.72603  0.91596  0.62855  0.05000
 C2_18_18  C 1.0  0.37145  0.22603  0.58404  0.05000
 C2_18_19  C 1.0  0.58404  0.37145  0.22603  0.05000
 C2_18_20  C 1.0  0.27397  0.41596  0.87145  0.05000
 C2_18_21  C 1.0  0.62855  0.72603  0.91596  0.05000
 C2_18_22  C 1.0  0.08404  0.37145  0.27397  0.05000
 C2_18_23  C 1.0  0.77397  0.41596  0.62855  0.05000
 C2_18_24  C 1.0  0.12855  0.72603  0.58404  0.05000
 C3_4  C 1.0  0.19785  0.10718  0.91789  0.05000
 C3_4_2  C 1.0  0.91789  0.19785  0.10718  0.05000
 C3_4_3  C 1.0  0.10718  0.91789  0.19785  0.05000
 C3_4_4  C 1.0  0.69785  0.10718  0.58211  0.05000
 C3_4_5  C 1.0  0.41789  0.19785  0.39282  0.05000
 C3_4_6  C 1.0  0.60718  0.91789  0.30215  0.05000
 C3_4_7  C 1.0  0.30215  0.60718  0.91789  0.05000
 C3_4_8  C 1.0  0.58211  0.69785  0.10718  0.05000
 C3_4_9  C 1.0  0.39282  0.41789  0.19785  0.05000
 C3_4_10  C 1.0  0.80215  0.60718  0.58211  0.05000
 C3_4_11  C 1.0  0.08211  0.69785  0.39282  0.05000
 C3_4_12  C 1.0  0.89282  0.41789  0.30215  0.05000
 C3_4_13  C 1.0  0.80215  0.89282  0.08211  0.05000
 C3_4_14  C 1.0  0.08211  0.80215  0.89282  0.05000
 C3_4_15  C 1.0  0.89282  0.08211  0.80215  0.05000
 C3_4_16  C 1.0  0.30215  0.89282  0.41789  0.05000
 C3_4_17  C 1.0  0.58211  0.80215  0.60718  0.05000
 C3_4_18  C 1.0  0.39282  0.08211  0.69785  0.05000
 C3_4_19  C 1.0  0.69785  0.39282  0.08211  0.05000
 C3_4_20  C 1.0  0.41789  0.30215  0.89282  0.05000
 C3_4_21  C 1.0  0.60718  0.58211  0.80215  0.05000
 C3_4_22  C 1.0  0.19785  0.39282  0.41789  0.05000
 C3_4_23  C 1.0  0.91789  0.30215  0.60718  0.05000
 C3_4_24  C 1.0  0.10718  0.58211  0.69785  0.05000
 C3_5  C 1.0  0.08211  0.19785  0.89282  0.05000
 C3_5_2  C 1.0  0.89282  0.08211  0.19785  0.05000
 C3_5_3  C 1.0  0.19785  0.89282  0.08211  0.05000
 C3_5_4  C 1.0  0.58211  0.19785  0.60718  0.05000
 C3_5_5  C 1.0  0.39282  0.08211  0.30215  0.05000
 C3_5_6  C 1.0  0.69785  0.89282  0.41789  0.05000
 C3_5_7  C 1.0  0.41789  0.69785  0.89282  0.05000
 C3_5_8  C 1.0  0.60718  0.58211  0.19785  0.05000
 C3_5_9  C 1.0  0.30215  0.39282  0.08211  0.05000
 C3_5_10  C 1.0  0.91789  0.69785  0.60718  0.05000
 C3_5_11  C 1.0  0.10718  0.58211  0.30215  0.05000
 C3_5_12  C 1.0  0.80215  0.39282  0.41789  0.05000
 C3_5_13  C 1.0  0.91789  0.80215  0.10718  0.05000
 C3_5_14  C 1.0  0.10718  0.91789  0.80215  0.05000
 C3_5_15  C 1.0  0.80215  0.10718  0.91789  0.05000
 C3_5_16  C 1.0  0.41789  0.80215  0.39282  0.05000
 C3_5_17  C 1.0  0.60718  0.91789  0.69785  0.05000
 C3_5_18  C 1.0  0.30215  0.10718  0.58211  0.05000
 C3_5_19  C 1.0  0.58211  0.30215  0.10718  0.05000
 C3_5_20  C 1.0  0.39282  0.41789  0.80215  0.05000
 C3_5_21  C 1.0  0.69785  0.60718  0.91789  0.05000
 C3_5_22  C 1.0  0.08211  0.30215  0.39282  0.05000
 C3_5_23  C 1.0  0.89282  0.41789  0.69785  0.05000
 C3_5_24  C 1.0  0.19785  0.60718  0.58211  0.05000
 C3_6  C 1.0  0.10718  0.08211  0.80215  0.05000
 C3_6_2  C 1.0  0.80215  0.10718  0.08211  0.05000
 C3_6_3  C 1.0  0.08211  0.80215  0.10718  0.05000
 C3_6_4  C 1.0  0.60718  0.08211  0.69785  0.05000
 C3_6_5  C 1.0  0.30215  0.10718  0.41789  0.05000
 C3_6_6  C 1.0  0.58211  0.80215  0.39282  0.05000
 C3_6_7  C 1.0  0.39282  0.58211  0.80215  0.05000
 C3_6_8  C 1.0  0.69785  0.60718  0.08211  0.05000
 C3_6_9  C 1.0  0.41789  0.30215  0.10718  0.05000
 C3_6_10  C 1.0  0.89282  0.58211  0.69785  0.05000
 C3_6_11  C 1.0  0.19785  0.60718  0.41789  0.05000
 C3_6_12  C 1.0  0.91789  0.30215  0.39282  0.05000
 C3_6_13  C 1.0  0.89282  0.91789  0.19785  0.05000
 C3_6_14  C 1.0  0.19785  0.89282  0.91789  0.05000
 C3_6_15  C 1.0  0.91789  0.19785  0.89282  0.05000
 C3_6_16  C 1.0  0.39282  0.91789  0.30215  0.05000
 C3_6_17  C 1.0  0.69785  0.89282  0.58211  0.05000
 C3_6_18  C 1.0  0.41789  0.19785  0.60718  0.05000
 C3_6_19  C 1.0  0.60718  0.41789  0.19785  0.05000
 C3_6_20  C 1.0  0.30215  0.39282  0.91789  0.05000
 C3_6_21  C 1.0  0.58211  0.69785  0.89282  0.05000
 C3_6_22  C 1.0  0.10718  0.41789  0.30215  0.05000
 C3_6_23  C 1.0  0.80215  0.39282  0.58211  0.05000
 C3_6_24  C 1.0  0.08211  0.69785  0.60718  0.05000
 C3_13  C 1.0  0.10718  0.19785  0.08211  0.05000
 C3_13_2  C 1.0  0.08211  0.10718  0.19785  0.05000
 C3_13_3  C 1.0  0.19785  0.08211  0.10718  0.05000
 C3_13_4  C 1.0  0.60718  0.19785  0.41789  0.05000
 C3_13_5  C 1.0  0.58211  0.10718  0.30215  0.05000
 C3_13_6  C 1.0  0.69785  0.08211  0.39282  0.05000
 C3_13_7  C 1.0  0.39282  0.69785  0.08211  0.05000
 C3_13_8  C 1.0  0.41789  0.60718  0.19785  0.05000
 C3_13_9  C 1.0  0.30215  0.58211  0.10718  0.05000
 C3_13_10  C 1.0  0.89282  0.69785  0.41789  0.05000
 C3_13_11  C 1.0  0.91789  0.60718  0.30215  0.05000
 C3_13_12  C 1.0  0.80215  0.58211  0.39282  0.05000
 C3_13_13  C 1.0  0.89282  0.80215  0.91789  0.05000
 C3_13_14  C 1.0  0.91789  0.89282  0.80215  0.05000
 C3_13_15  C 1.0  0.80215  0.91789  0.89282  0.05000
 C3_13_16  C 1.0  0.39282  0.80215  0.58211  0.05000
 C3_13_17  C 1.0  0.41789  0.89282  0.69785  0.05000
 C3_13_18  C 1.0  0.30215  0.91789  0.60718  0.05000
 C3_13_19  C 1.0  0.60718  0.30215  0.91789  0.05000
 C3_13_20  C 1.0  0.58211  0.39282  0.80215  0.05000
 C3_13_21  C 1.0  0.69785  0.41789  0.89282  0.05000
 C3_13_22  C 1.0  0.10718  0.30215  0.58211  0.05000
 C3_13_23  C 1.0  0.08211  0.39282  0.69785  0.05000
 C3_13_24  C 1.0  0.19785  0.41789  0.60718  0.05000
 C3_16  C 1.0  0.10718  0.19785  0.91789  0.05000
 C3_16_2  C 1.0  0.91789  0.10718  0.19785  0.05000
 C3_16_3  C 1.0  0.19785  0.91789  0.10718  0.05000
 C3_16_4  C 1.0  0.60718  0.19785  0.58211  0.05000
 C3_16_5  C 1.0  0.41789  0.10718  0.30215  0.05000
 C3_16_6  C 1.0  0.69785  0.91789  0.39282  0.05000
 C3_16_7  C 1.0  0.39282  0.69785  0.91789  0.05000
 C3_16_8  C 1.0  0.58211  0.60718  0.19785  0.05000
 C3_16_9  C 1.0  0.30215  0.41789  0.10718  0.05000
 C3_16_10  C 1.0  0.89282  0.69785  0.58211  0.05000
 C3_16_11  C 1.0  0.08211  0.60718  0.30215  0.05000
 C3_16_12  C 1.0  0.80215  0.41789  0.39282  0.05000
 C3_16_13  C 1.0  0.89282  0.80215  0.08211  0.05000
 C3_16_14  C 1.0  0.08211  0.89282  0.80215  0.05000
 C3_16_15  C 1.0  0.80215  0.08211  0.89282  0.05000
 C3_16_16  C 1.0  0.39282  0.80215  0.41789  0.05000
 C3_16_17  C 1.0  0.58211  0.89282  0.69785  0.05000
 C3_16_18  C 1.0  0.30215  0.08211  0.60718  0.05000
 C3_16_19  C 1.0  0.60718  0.30215  0.08211  0.05000
 C3_16_20  C 1.0  0.41789  0.39282  0.80215  0.05000
 C3_16_21  C 1.0  0.69785  0.58211  0.89282  0.05000
 C3_16_22  C 1.0  0.10718  0.30215  0.41789  0.05000
 C3_16_23  C 1.0  0.91789  0.39282  0.69785  0.05000
 C3_16_24  C 1.0  0.19785  0.58211  0.60718  0.05000
 C3_17  C 1.0  0.19785  0.08211  0.89282  0.05000
 C3_17_2  C 1.0  0.89282  0.19785  0.08211  0.05000
 C3_17_3  C 1.0  0.08211  0.89282  0.19785  0.05000
 C3_17_4  C 1.0  0.69785  0.08211  0.60718  0.05000
 C3_17_5  C 1.0  0.39282  0.19785  0.41789  0.05000
 C3_17_6  C 1.0  0.58211  0.89282  0.30215  0.05000
 C3_17_7  C 1.0  0.30215  0.58211  0.89282  0.05000
 C3_17_8  C 1.0  0.60718  0.69785  0.08211  0.05000
 C3_17_9  C 1.0  0.41789  0.39282  0.19785  0.05000
 C3_17_10  C 1.0  0.80215  0.58211  0.60718  0.05000
 C3_17_11  C 1.0  0.10718  0.69785  0.41789  0.05000
 C3_17_12  C 1.0  0.91789  0.39282  0.30215  0.05000
 C3_17_13  C 1.0  0.80215  0.91789  0.10718  0.05000
 C3_17_14  C 1.0  0.10718  0.80215  0.91789  0.05000
 C3_17_15  C 1.0  0.91789  0.10718  0.80215  0.05000
 C3_17_16  C 1.0  0.30215  0.91789  0.39282  0.05000
 C3_17_17  C 1.0  0.60718  0.80215  0.58211  0.05000
 C3_17_18  C 1.0  0.41789  0.10718  0.69785  0.05000
 C3_17_19  C 1.0  0.69785  0.41789  0.10718  0.05000
 C3_17_20  C 1.0  0.39282  0.30215  0.91789  0.05000
 C3_17_21  C 1.0  0.58211  0.60718  0.80215  0.05000
 C3_17_22  C 1.0  0.19785  0.41789  0.39282  0.05000
 C3_17_23  C 1.0  0.89282  0.30215  0.58211  0.05000
 C3_17_24  C 1.0  0.08211  0.60718  0.69785  0.05000
 C3_18  C 1.0  0.08211  0.10718  0.80215  0.05000
 C3_18_2  C 1.0  0.80215  0.08211  0.10718  0.05000
 C3_18_3  C 1.0  0.10718  0.80215  0.08211  0.05000
 C3_18_4  C 1.0  0.58211  0.10718  0.69785  0.05000
 C3_18_5  C 1.0  0.30215  0.08211  0.39282  0.05000
 C3_18_6  C 1.0  0.60718  0.80215  0.41789  0.05000
 C3_18_7  C 1.0  0.41789  0.60718  0.80215  0.05000
 C3_18_8  C 1.0  0.69785  0.58211  0.10718  0.05000
 C3_18_9  C 1.0  0.39282  0.30215  0.08211  0.05000
 C3_18_10  C 1.0  0.91789  0.60718  0.69785  0.05000
 C3_18_11  C 1.0  0.19785  0.58211  0.39282  0.05000
 C3_18_12  C 1.0  0.89282  0.30215  0.41789  0.05000
 C3_18_13  C 1.0  0.91789  0.89282  0.19785  0.05000
 C3_18_14  C 1.0  0.19785  0.91789  0.89282  0.05000
 C3_18_15  C 1.0  0.89282  0.19785  0.91789  0.05000
 C3_18_16  C 1.0  0.41789  0.89282  0.30215  0.05000
 C3_18_17  C 1.0  0.69785  0.91789  0.60718  0.05000
 C3_18_18  C 1.0  0.39282  0.19785  0.58211  0.05000
 C3_18_19  C 1.0  0.58211  0.39282  0.19785  0.05000
 C3_18_20  C 1.0  0.30215  0.41789  0.89282  0.05000
 C3_18_21  C 1.0  0.60718  0.69785  0.91789  0.05000
 C3_18_22  C 1.0  0.08211  0.39282  0.30215  0.05000
 C3_18_23  C 1.0  0.80215  0.41789  0.60718  0.05000
 C3_18_24  C 1.0  0.10718  0.69785  0.58211  0.05000
 C4_4  C 1.0  0.32867  0.5  0.67133  0.05000
 C4_4_2  C 1.0  0.67133  0.32867  0.5  0.05000
 C4_4_3  C 1.0  0.5  0.67133  0.32867  0.05000
 C4_4_4  C 1.0  0.82867  0.5  0.82867  0.05000
 C4_4_5  C 1.0  0.17133  0.32867  0.0  0.05000
 C4_4_6  C 1.0  0.0  0.67133  0.17133  0.05000
 C4_4_7  C 1.0  0.17133  0.0  0.67133  0.05000
 C4_4_8  C 1.0  0.82867  0.82867  0.5  0.05000
 C4_4_9  C 1.0  0.0  0.17133  0.32867  0.05000
 C4_4_10  C 1.0  0.67133  0.0  0.82867  0.05000
 C4_4_11  C 1.0  0.32867  0.82867  0.0  0.05000
 C4_4_12  C 1.0  0.5  0.17133  0.17133  0.05000
 C4_4_13  C 1.0  0.67133  0.5  0.32867  0.05000
 C4_4_14  C 1.0  0.32867  0.67133  0.5  0.05000
 C4_4_15  C 1.0  0.5  0.32867  0.67133  0.05000
 C4_4_16  C 1.0  0.17133  0.5  0.17133  0.05000
 C4_4_17  C 1.0  0.82867  0.67133  0.0  0.05000
 C4_4_18  C 1.0  0.0  0.32867  0.82867  0.05000
 C4_4_19  C 1.0  0.82867  0.0  0.32867  0.05000
 C4_4_20  C 1.0  0.17133  0.17133  0.5  0.05000
 C4_4_21  C 1.0  0.0  0.82867  0.67133  0.05000
 C4_4_22  C 1.0  0.32867  0.0  0.17133  0.05000
 C4_4_23  C 1.0  0.67133  0.17133  0.0  0.05000
 C4_4_24  C 1.0  0.5  0.82867  0.82867  0.05000
 C5_4  C 1.0  0.14433  0.5  0.85567  0.05000
 C5_4_2  C 1.0  0.85567  0.14433  0.5  0.05000
 C5_4_3  C 1.0  0.5  0.85567  0.14433  0.05000
 C5_4_4  C 1.0  0.64433  0.5  0.64433  0.05000
 C5_4_5  C 1.0  0.35567  0.14433  0.0  0.05000
 C5_4_6  C 1.0  0.0  0.85567  0.35567  0.05000
 C5_4_7  C 1.0  0.35567  0.0  0.85567  0.05000
 C5_4_8  C 1.0  0.64433  0.64433  0.5  0.05000
 C5_4_9  C 1.0  0.0  0.35567  0.14433  0.05000
 C5_4_10  C 1.0  0.85567  0.0  0.64433  0.05000
 C5_4_11  C 1.0  0.14433  0.64433  0.0  0.05000
 C5_4_12  C 1.0  0.5  0.35567  0.35567  0.05000
 C5_4_13  C 1.0  0.85567  0.5  0.14433  0.05000
 C5_4_14  C 1.0  0.14433  0.85567  0.5  0.05000
 C5_4_15  C 1.0  0.5  0.14433  0.85567  0.05000
 C5_4_16  C 1.0  0.35567  0.5  0.35567  0.05000
 C5_4_17  C 1.0  0.64433  0.85567  0.0  0.05000
 C5_4_18  C 1.0  0.0  0.14433  0.64433  0.05000
 C5_4_19  C 1.0  0.64433  0.0  0.14433  0.05000
 C5_4_20  C 1.0  0.35567  0.35567  0.5  0.05000
 C5_4_21  C 1.0  0.0  0.64433  0.85567  0.05000
 C5_4_22  C 1.0  0.14433  0.0  0.35567  0.05000
 C5_4_23  C 1.0  0.85567  0.35567  0.0  0.05000
 C5_4_24  C 1.0  0.5  0.64433  0.64433  0.05000
 C6_4  C 1.0  0.25  0.61479  0.75  0.05000
 C6_4_2  C 1.0  0.75  0.25  0.61479  0.05000
 C6_4_3  C 1.0  0.61479  0.75  0.25  0.05000
 C6_4_4  C 1.0  0.75  0.61479  0.75  0.05000
 C6_4_5  C 1.0  0.25  0.25  0.88521  0.05000
 C6_4_6  C 1.0  0.11479  0.75  0.25  0.05000
 C6_4_7  C 1.0  0.25  0.11479  0.75  0.05000
 C6_4_8  C 1.0  0.75  0.75  0.61479  0.05000
 C6_4_9  C 1.0  0.88521  0.25  0.25  0.05000
 C6_4_10  C 1.0  0.75  0.11479  0.75  0.05000
 C6_4_11  C 1.0  0.25  0.75  0.88521  0.05000
 C6_4_12  C 1.0  0.38521  0.25  0.25  0.05000
 C6_4_13  C 1.0  0.75  0.38521  0.25  0.05000
 C6_4_14  C 1.0  0.25  0.75  0.38521  0.05000
 C6_4_15  C 1.0  0.38521  0.25  0.75  0.05000
 C6_4_16  C 1.0  0.25  0.38521  0.25  0.05000
 C6_4_17  C 1.0  0.75  0.75  0.11479  0.05000
 C6_4_18  C 1.0  0.88521  0.25  0.75  0.05000
 C6_4_19  C 1.0  0.75  0.88521  0.25  0.05000
 C6_4_20  C 1.0  0.25  0.25  0.38521  0.05000
 C6_4_21  C 1.0  0.11479  0.75  0.75  0.05000
 C6_4_22  C 1.0  0.25  0.88521  0.25  0.05000
 C6_4_23  C 1.0  0.75  0.25  0.11479  0.05000
 C6_4_24  C 1.0  0.61479  0.75  0.75  0.05000
 C7_4  C 1.0  0.25  0.65297  0.75  0.05000
 C7_4_2  C 1.0  0.75  0.25  0.65297  0.05000
 C7_4_3  C 1.0  0.65297  0.75  0.25  0.05000
 C7_4_4  C 1.0  0.75  0.65297  0.75  0.05000
 C7_4_5  C 1.0  0.25  0.25  0.84703  0.05000
 C7_4_6  C 1.0  0.15297  0.75  0.25  0.05000
 C7_4_7  C 1.0  0.25  0.15297  0.75  0.05000
 C7_4_8  C 1.0  0.75  0.75  0.65297  0.05000
 C7_4_9  C 1.0  0.84703  0.25  0.25  0.05000
 C7_4_10  C 1.0  0.75  0.15297  0.75  0.05000
 C7_4_11  C 1.0  0.25  0.75  0.84703  0.05000
 C7_4_12  C 1.0  0.34703  0.25  0.25  0.05000
 C7_4_13  C 1.0  0.75  0.34703  0.25  0.05000
 C7_4_14  C 1.0  0.25  0.75  0.34703  0.05000
 C7_4_15  C 1.0  0.34703  0.25  0.75  0.05000
 C7_4_16  C 1.0  0.25  0.34703  0.25  0.05000
 C7_4_17  C 1.0  0.75  0.75  0.15297  0.05000
 C7_4_18  C 1.0  0.84703  0.25  0.75  0.05000
 C7_4_19  C 1.0  0.75  0.84703  0.25  0.05000
 C7_4_20  C 1.0  0.25  0.25  0.34703  0.05000
 C7_4_21  C 1.0  0.15297  0.75  0.75  0.05000
 C7_4_22  C 1.0  0.25  0.84703  0.25  0.05000
 C7_4_23  C 1.0  0.75  0.25  0.15297  0.05000
 C7_4_24  C 1.0  0.65297  0.75  0.75  0.05000
 H3  H 1.0  0.17761  0.10996  0.06346  0.05000
 H3_2  H 1.0  0.06346  0.17761  0.10996  0.05000
 H3_3  H 1.0  0.10996  0.06346  0.17761  0.05000
 H3_4  H 1.0  0.67761  0.10996  0.43654  0.05000
 H3_5  H 1.0  0.56346  0.17761  0.39004  0.05000
 H3_6  H 1.0  0.60996  0.06346  0.32239  0.05000
 H3_7  H 1.0  0.32239  0.60996  0.06346  0.05000
 H3_8  H 1.0  0.43654  0.67761  0.10996  0.05000
 H3_9  H 1.0  0.39004  0.56346  0.17761  0.05000
 H3_10  H 1.0  0.82239  0.60996  0.43654  0.05000
 H3_11  H 1.0  0.93654  0.67761  0.39004  0.05000
 H3_12  H 1.0  0.89004  0.56346  0.32239  0.05000
 H3_13  H 1.0  0.82239  0.89004  0.93654  0.05000
 H3_14  H 1.0  0.93654  0.82239  0.89004  0.05000
 H3_15  H 1.0  0.89004  0.93654  0.82239  0.05000
 H3_16  H 1.0  0.32239  0.89004  0.56346  0.05000
 H3_17  H 1.0  0.43654  0.82239  0.60996  0.05000
 H3_18  H 1.0  0.39004  0.93654  0.67761  0.05000
 H3_19  H 1.0  0.67761  0.39004  0.93654  0.05000
 H3_20  H 1.0  0.56346  0.32239  0.89004  0.05000
 H3_21  H 1.0  0.60996  0.43654  0.82239  0.05000
 H3_22  H 1.0  0.17761  0.39004  0.56346  0.05000
 H3_23  H 1.0  0.06346  0.32239  0.60996  0.05000
 H3_24  H 1.0  0.10996  0.43654  0.67761  0.05000
 H5  H 1.0  0.15093  0.51878  0.1241  0.05000
 H5_2  H 1.0  0.1241  0.15093  0.51878  0.05000
 H5_3  H 1.0  0.51878  0.1241  0.15093  0.05000
 H5_4  H 1.0  0.65093  0.51878  0.3759  0.05000
 H5_5  H 1.0  0.6241  0.15093  0.98122  0.05000
 H5_6  H 1.0  0.01878  0.1241  0.34907  0.05000
 H5_7  H 1.0  0.34907  0.01878  0.1241  0.05000
 H5_8  H 1.0  0.3759  0.65093  0.51878  0.05000
 H5_9  H 1.0  0.98122  0.6241  0.15093  0.05000
 H5_10  H 1.0  0.84907  0.01878  0.3759  0.05000
 H5_11  H 1.0  0.8759  0.65093  0.98122  0.05000
 H5_12  H 1.0  0.48122  0.6241  0.34907  0.05000
 H5_13  H 1.0  0.84907  0.48122  0.8759  0.05000
 H5_14  H 1.0  0.8759  0.84907  0.48122  0.05000
 H5_15  H 1.0  0.48122  0.8759  0.84907  0.05000
 H5_16  H 1.0  0.34907  0.48122  0.6241  0.05000
 H5_17  H 1.0  0.3759  0.84907  0.01878  0.05000
 H5_18  H 1.0  0.98122  0.8759  0.65093  0.05000
 H5_19  H 1.0  0.65093  0.98122  0.8759  0.05000
 H5_20  H 1.0  0.6241  0.34907  0.48122  0.05000
 H5_21  H 1.0  0.01878  0.3759  0.84907  0.05000
 H5_22  H 1.0  0.15093  0.98122  0.6241  0.05000
 H5_23  H 1.0  0.1241  0.34907  0.01878  0.05000
 H5_24  H 1.0  0.51878  0.3759  0.65093  0.05000
 H7  H 1.0  0.2233  0.33738  0.25013  0.05000
 H7_2  H 1.0  0.25013  0.2233  0.33738  0.05000
 H7_3  H 1.0  0.33738  0.25013  0.2233  0.05000
 H7_4  H 1.0  0.7233  0.33738  0.24987  0.05000
 H7_5  H 1.0  0.75013  0.2233  0.16262  0.05000
 H7_6  H 1.0  0.83738  0.25013  0.2767  0.05000
 H7_7  H 1.0  0.2767  0.83738  0.25013  0.05000
 H7_8  H 1.0  0.24987  0.7233  0.33738  0.05000
 H7_9  H 1.0  0.16262  0.75013  0.2233  0.05000
 H7_10  H 1.0  0.7767  0.83738  0.24987  0.05000
 H7_11  H 1.0  0.74987  0.7233  0.16262  0.05000
 H7_12  H 1.0  0.66262  0.75013  0.2767  0.05000
 H7_13  H 1.0  0.7767  0.66262  0.74987  0.05000
 H7_14  H 1.0  0.74987  0.7767  0.66262  0.05000
 H7_15  H 1.0  0.66262  0.74987  0.7767  0.05000
 H7_16  H 1.0  0.2767  0.66262  0.75013  0.05000
 H7_17  H 1.0  0.24987  0.7767  0.83738  0.05000
 H7_18  H 1.0  0.16262  0.74987  0.7233  0.05000
 H7_19  H 1.0  0.7233  0.16262  0.74987  0.05000
 H7_20  H 1.0  0.75013  0.2767  0.66262  0.05000
 H7_21  H 1.0  0.83738  0.24987  0.7767  0.05000
 H7_22  H 1.0  0.2233  0.16262  0.75013  0.05000
 H7_23  H 1.0  0.25013  0.2767  0.83738  0.05000
 H7_24  H 1.0  0.33738  0.24987  0.7233  0.05000
 H1_4  H 1.0  0.17181  0.5  0.76349  0.05000
 H1_4_2  H 1.0  0.76349  0.17181  0.5  0.05000
 H1_4_3  H 1.0  0.5  0.76349  0.17181  0.05000
 H1_4_4  H 1.0  0.67181  0.5  0.73651  0.05000
 H1_4_5  H 1.0  0.26349  0.17181  0.0  0.05000
 H1_4_6  H 1.0  0.0  0.76349  0.32819  0.05000
 H1_4_7  H 1.0  0.32819  0.0  0.76349  0.05000
 H1_4_8  H 1.0  0.73651  0.67181  0.5  0.05000
 H1_4_9  H 1.0  0.0  0.26349  0.17181  0.05000
 H1_4_10  H 1.0  0.82819  0.0  0.73651  0.05000
 H1_4_11  H 1.0  0.23651  0.67181  0.0  0.05000
 H1_4_12  H 1.0  0.5  0.26349  0.32819  0.05000
 H1_4_13  H 1.0  0.82819  0.5  0.23651  0.05000
 H1_4_14  H 1.0  0.23651  0.82819  0.5  0.05000
 H1_4_15  H 1.0  0.5  0.23651  0.82819  0.05000
 H1_4_16  H 1.0  0.32819  0.5  0.26349  0.05000
 H1_4_17  H 1.0  0.73651  0.82819  0.0  0.05000
 H1_4_18  H 1.0  0.0  0.23651  0.67181  0.05000
 H1_4_19  H 1.0  0.67181  0.0  0.23651  0.05000
 H1_4_20  H 1.0  0.26349  0.32819  0.5  0.05000
 H1_4_21  H 1.0  0.0  0.73651  0.82819  0.05000
 H1_4_22  H 1.0  0.17181  0.0  0.26349  0.05000
 H1_4_23  H 1.0  0.76349  0.32819  0.0  0.05000
 H1_4_24  H 1.0  0.5  0.73651  0.67181  0.05000
 H1_9  H 1.0  0.5  0.17181  0.23651  0.05000
 H1_9_2  H 1.0  0.23651  0.5  0.17181  0.05000
 H1_9_3  H 1.0  0.17181  0.23651  0.5  0.05000
 H1_9_4  H 1.0  0.0  0.17181  0.26349  0.05000
 H1_9_5  H 1.0  0.73651  0.5  0.32819  0.05000
 H1_9_6  H 1.0  0.67181  0.23651  0.0  0.05000
 H1_9_7  H 1.0  0.0  0.67181  0.23651  0.05000
 H1_9_8  H 1.0  0.26349  0.0  0.17181  0.05000
 H1_9_9  H 1.0  0.32819  0.73651  0.5  0.05000
 H1_9_10  H 1.0  0.5  0.67181  0.26349  0.05000
 H1_9_11  H 1.0  0.76349  0.0  0.32819  0.05000
 H1_9_12  H 1.0  0.82819  0.73651  0.0  0.05000
 H1_9_13  H 1.0  0.5  0.82819  0.76349  0.05000
 H1_9_14  H 1.0  0.76349  0.5  0.82819  0.05000
 H1_9_15  H 1.0  0.82819  0.76349  0.5  0.05000
 H1_9_16  H 1.0  0.0  0.82819  0.73651  0.05000
 H1_9_17  H 1.0  0.26349  0.5  0.67181  0.05000
 H1_9_18  H 1.0  0.32819  0.76349  0.0  0.05000
 H1_9_19  H 1.0  0.0  0.32819  0.76349  0.05000
 H1_9_20  H 1.0  0.73651  0.0  0.82819  0.05000
 H1_9_21  H 1.0  0.67181  0.26349  0.5  0.05000
 H1_9_22  H 1.0  0.5  0.32819  0.73651  0.05000
 H1_9_23  H 1.0  0.23651  0.0  0.67181  0.05000
 H1_9_24  H 1.0  0.17181  0.26349  0.0  0.05000
 H2_4  H 1.0  0.28159  0.56475  0.78159  0.05000
 H2_4_2  H 1.0  0.78159  0.28159  0.56475  0.05000
 H2_4_3  H 1.0  0.56475  0.78159  0.28159  0.05000
 H2_4_4  H 1.0  0.78159  0.56475  0.71841  0.05000
 H2_4_5  H 1.0  0.28159  0.28159  0.93525  0.05000
 H2_4_6  H 1.0  0.06475  0.78159  0.21841  0.05000
 H2_4_7  H 1.0  0.21841  0.06475  0.78159  0.05000
 H2_4_8  H 1.0  0.71841  0.78159  0.56475  0.05000
 H2_4_9  H 1.0  0.93525  0.28159  0.28159  0.05000
 H2_4_10  H 1.0  0.71841  0.06475  0.71841  0.05000
 H2_4_11  H 1.0  0.21841  0.78159  0.93525  0.05000
 H2_4_12  H 1.0  0.43525  0.28159  0.21841  0.05000
 H2_4_13  H 1.0  0.71841  0.43525  0.21841  0.05000
 H2_4_14  H 1.0  0.21841  0.71841  0.43525  0.05000
 H2_4_15  H 1.0  0.43525  0.21841  0.71841  0.05000
 H2_4_16  H 1.0  0.21841  0.43525  0.28159  0.05000
 H2_4_17  H 1.0  0.71841  0.71841  0.06475  0.05000
 H2_4_18  H 1.0  0.93525  0.21841  0.78159  0.05000
 H2_4_19  H 1.0  0.78159  0.93525  0.21841  0.05000
 H2_4_20  H 1.0  0.28159  0.21841  0.43525  0.05000
 H2_4_21  H 1.0  0.06475  0.71841  0.71841  0.05000
 H2_4_22  H 1.0  0.28159  0.93525  0.28159  0.05000
 H2_4_23  H 1.0  0.78159  0.21841  0.06475  0.05000
 H2_4_24  H 1.0  0.56475  0.71841  0.78159  0.05000
 H2_6  H 1.0  0.56475  0.21841  0.71841  0.05000
 H2_6_2  H 1.0  0.71841  0.56475  0.21841  0.05000
 H2_6_3  H 1.0  0.21841  0.71841  0.56475  0.05000
 H2_6_4  H 1.0  0.06475  0.21841  0.78159  0.05000
 H2_6_5  H 1.0  0.21841  0.56475  0.28159  0.05000
 H2_6_6  H 1.0  0.71841  0.71841  0.93525  0.05000
 H2_6_7  H 1.0  0.93525  0.71841  0.71841  0.05000
 H2_6_8  H 1.0  0.78159  0.06475  0.21841  0.05000
 H2_6_9  H 1.0  0.28159  0.21841  0.56475  0.05000
 H2_6_10  H 1.0  0.43525  0.71841  0.78159  0.05000
 H2_6_11  H 1.0  0.28159  0.06475  0.28159  0.05000
 H2_6_12  H 1.0  0.78159  0.21841  0.93525  0.05000
 H2_6_13  H 1.0  0.43525  0.78159  0.28159  0.05000
 H2_6_14  H 1.0  0.28159  0.43525  0.78159  0.05000
 H2_6_15  H 1.0  0.78159  0.28159  0.43525  0.05000
 H2_6_16  H 1.0  0.93525  0.78159  0.21841  0.05000
 H2_6_17  H 1.0  0.78159  0.43525  0.71841  0.05000
 H2_6_18  H 1.0  0.28159  0.28159  0.06475  0.05000
 H2_6_19  H 1.0  0.06475  0.28159  0.28159  0.05000
 H2_6_20  H 1.0  0.21841  0.93525  0.78159  0.05000
 H2_6_21  H 1.0  0.71841  0.78159  0.43525  0.05000
 H2_6_22  H 1.0  0.56475  0.28159  0.21841  0.05000
 H2_6_23  H 1.0  0.71841  0.93525  0.71841  0.05000
 H2_6_24  H 1.0  0.21841  0.78159  0.06475  0.05000
 H3_4  H 1.0  0.17761  0.10996  0.93654  0.05000
 H3_4_2  H 1.0  0.93654  0.17761  0.10996  0.05000
 H3_4_3  H 1.0  0.10996  0.93654  0.17761  0.05000
 H3_4_4  H 1.0  0.67761  0.10996  0.56346  0.05000
 H3_4_5  H 1.0  0.43654  0.17761  0.39004  0.05000
 H3_4_6  H 1.0  0.60996  0.93654  0.32239  0.05000
 H3_4_7  H 1.0  0.32239  0.60996  0.93654  0.05000
 H3_4_8  H 1.0  0.56346  0.67761  0.10996  0.05000
 H3_4_9  H 1.0  0.39004  0.43654  0.17761  0.05000
 H3_4_10  H 1.0  0.82239  0.60996  0.56346  0.05000
 H3_4_11  H 1.0  0.06346  0.67761  0.39004  0.05000
 H3_4_12  H 1.0  0.89004  0.43654  0.32239  0.05000
 H3_4_13  H 1.0  0.82239  0.89004  0.06346  0.05000
 H3_4_14  H 1.0  0.06346  0.82239  0.89004  0.05000
 H3_4_15  H 1.0  0.89004  0.06346  0.82239  0.05000
 H3_4_16  H 1.0  0.32239  0.89004  0.43654  0.05000
 H3_4_17  H 1.0  0.56346  0.82239  0.60996  0.05000
 H3_4_18  H 1.0  0.39004  0.06346  0.67761  0.05000
 H3_4_19  H 1.0  0.67761  0.39004  0.06346  0.05000
 H3_4_20  H 1.0  0.43654  0.32239  0.89004  0.05000
 H3_4_21  H 1.0  0.60996  0.56346  0.82239  0.05000
 H3_4_22  H 1.0  0.17761  0.39004  0.43654  0.05000
 H3_4_23  H 1.0  0.93654  0.32239  0.60996  0.05000
 H3_4_24  H 1.0  0.10996  0.56346  0.67761  0.05000
 H3_5  H 1.0  0.06346  0.17761  0.89004  0.05000
 H3_5_2  H 1.0  0.89004  0.06346  0.17761  0.05000
 H3_5_3  H 1.0  0.17761  0.89004  0.06346  0.05000
 H3_5_4  H 1.0  0.56346  0.17761  0.60996  0.05000
 H3_5_5  H 1.0  0.39004  0.06346  0.32239  0.05000
 H3_5_6  H 1.0  0.67761  0.89004  0.43654  0.05000
 H3_5_7  H 1.0  0.43654  0.67761  0.89004  0.05000
 H3_5_8  H 1.0  0.60996  0.56346  0.17761  0.05000
 H3_5_9  H 1.0  0.32239  0.39004  0.06346  0.05000
 H3_5_10  H 1.0  0.93654  0.67761  0.60996  0.05000
 H3_5_11  H 1.0  0.10996  0.56346  0.32239  0.05000
 H3_5_12  H 1.0  0.82239  0.39004  0.43654  0.05000
 H3_5_13  H 1.0  0.93654  0.82239  0.10996  0.05000
 H3_5_14  H 1.0  0.10996  0.93654  0.82239  0.05000
 H3_5_15  H 1.0  0.82239  0.10996  0.93654  0.05000
 H3_5_16  H 1.0  0.43654  0.82239  0.39004  0.05000
 H3_5_17  H 1.0  0.60996  0.93654  0.67761  0.05000
 H3_5_18  H 1.0  0.32239  0.10996  0.56346  0.05000
 H3_5_19  H 1.0  0.56346  0.32239  0.10996  0.05000
 H3_5_20  H 1.0  0.39004  0.43654  0.82239  0.05000
 H3_5_21  H 1.0  0.67761  0.60996  0.93654  0.05000
 H3_5_22  H 1.0  0.06346  0.32239  0.39004  0.05000
 H3_5_23  H 1.0  0.89004  0.43654  0.67761  0.05000
 H3_5_24  H 1.0  0.17761  0.60996  0.56346  0.05000
 H3_6  H 1.0  0.10996  0.06346  0.82239  0.05000
 H3_6_2  H 1.0  0.82239  0.10996  0.06346  0.05000
 H3_6_3  H 1.0  0.06346  0.82239  0.10996  0.05000
 H3_6_4  H 1.0  0.60996  0.06346  0.67761  0.05000
 H3_6_5  H 1.0  0.32239  0.10996  0.43654  0.05000
 H3_6_6  H 1.0  0.56346  0.82239  0.39004  0.05000
 H3_6_7  H 1.0  0.39004  0.56346  0.82239  0.05000
 H3_6_8  H 1.0  0.67761  0.60996  0.06346  0.05000
 H3_6_9  H 1.0  0.43654  0.32239  0.10996  0.05000
 H3_6_10  H 1.0  0.89004  0.56346  0.67761  0.05000
 H3_6_11  H 1.0  0.17761  0.60996  0.43654  0.05000
 H3_6_12  H 1.0  0.93654  0.32239  0.39004  0.05000
 H3_6_13  H 1.0  0.89004  0.93654  0.17761  0.05000
 H3_6_14  H 1.0  0.17761  0.89004  0.93654  0.05000
 H3_6_15  H 1.0  0.93654  0.17761  0.89004  0.05000
 H3_6_16  H 1.0  0.39004  0.93654  0.32239  0.05000
 H3_6_17  H 1.0  0.67761  0.89004  0.56346  0.05000
 H3_6_18  H 1.0  0.43654  0.17761  0.60996  0.05000
 H3_6_19  H 1.0  0.60996  0.43654  0.17761  0.05000
 H3_6_20  H 1.0  0.32239  0.39004  0.93654  0.05000
 H3_6_21  H 1.0  0.56346  0.67761  0.89004  0.05000
 H3_6_22  H 1.0  0.10996  0.43654  0.32239  0.05000
 H3_6_23  H 1.0  0.82239  0.39004  0.56346  0.05000
 H3_6_24  H 1.0  0.06346  0.67761  0.60996  0.05000
 H3_13  H 1.0  0.10996  0.17761  0.06346  0.05000
 H3_13_2  H 1.0  0.06346  0.10996  0.17761  0.05000
 H3_13_3  H 1.0  0.17761  0.06346  0.10996  0.05000
 H3_13_4  H 1.0  0.60996  0.17761  0.43654  0.05000
 H3_13_5  H 1.0  0.56346  0.10996  0.32239  0.05000
 H3_13_6  H 1.0  0.67761  0.06346  0.39004  0.05000
 H3_13_7  H 1.0  0.39004  0.67761  0.06346  0.05000
 H3_13_8  H 1.0  0.43654  0.60996  0.17761  0.05000
 H3_13_9  H 1.0  0.32239  0.56346  0.10996  0.05000
 H3_13_10  H 1.0  0.89004  0.67761  0.43654  0.05000
 H3_13_11  H 1.0  0.93654  0.60996  0.32239  0.05000
 H3_13_12  H 1.0  0.82239  0.56346  0.39004  0.05000
 H3_13_13  H 1.0  0.89004  0.82239  0.93654  0.05000
 H3_13_14  H 1.0  0.93654  0.89004  0.82239  0.05000
 H3_13_15  H 1.0  0.82239  0.93654  0.89004  0.05000
 H3_13_16  H 1.0  0.39004  0.82239  0.56346  0.05000
 H3_13_17  H 1.0  0.43654  0.89004  0.67761  0.05000
 H3_13_18  H 1.0  0.32239  0.93654  0.60996  0.05000
 H3_13_19  H 1.0  0.60996  0.32239  0.93654  0.05000
 H3_13_20  H 1.0  0.56346  0.39004  0.82239  0.05000
 H3_13_21  H 1.0  0.67761  0.43654  0.89004  0.05000
 H3_13_22  H 1.0  0.10996  0.32239  0.56346  0.05000
 H3_13_23  H 1.0  0.06346  0.39004  0.67761  0.05000
 H3_13_24  H 1.0  0.17761  0.43654  0.60996  0.05000
 H3_16  H 1.0  0.10996  0.17761  0.93654  0.05000
 H3_16_2  H 1.0  0.93654  0.10996  0.17761  0.05000
 H3_16_3  H 1.0  0.17761  0.93654  0.10996  0.05000
 H3_16_4  H 1.0  0.60996  0.17761  0.56346  0.05000
 H3_16_5  H 1.0  0.43654  0.10996  0.32239  0.05000
 H3_16_6  H 1.0  0.67761  0.93654  0.39004  0.05000
 H3_16_7  H 1.0  0.39004  0.67761  0.93654  0.05000
 H3_16_8  H 1.0  0.56346  0.60996  0.17761  0.05000
 H3_16_9  H 1.0  0.32239  0.43654  0.10996  0.05000
 H3_16_10  H 1.0  0.89004  0.67761  0.56346  0.05000
 H3_16_11  H 1.0  0.06346  0.60996  0.32239  0.05000
 H3_16_12  H 1.0  0.82239  0.43654  0.39004  0.05000
 H3_16_13  H 1.0  0.89004  0.82239  0.06346  0.05000
 H3_16_14  H 1.0  0.06346  0.89004  0.82239  0.05000
 H3_16_15  H 1.0  0.82239  0.06346  0.89004  0.05000
 H3_16_16  H 1.0  0.39004  0.82239  0.43654  0.05000
 H3_16_17  H 1.0  0.56346  0.89004  0.67761  0.05000
 H3_16_18  H 1.0  0.32239  0.06346  0.60996  0.05000
 H3_16_19  H 1.0  0.60996  0.32239  0.06346  0.05000
 H3_16_20  H 1.0  0.43654  0.39004  0.82239  0.05000
 H3_16_21  H 1.0  0.67761  0.56346  0.89004  0.05000
 H3_16_22  H 1.0  0.10996  0.32239  0.43654  0.05000
 H3_16_23  H 1.0  0.93654  0.39004  0.67761  0.05000
 H3_16_24  H 1.0  0.17761  0.56346  0.60996  0.05000
 H3_17  H 1.0  0.17761  0.06346  0.89004  0.05000
 H3_17_2  H 1.0  0.89004  0.17761  0.06346  0.05000
 H3_17_3  H 1.0  0.06346  0.89004  0.17761  0.05000
 H3_17_4  H 1.0  0.67761  0.06346  0.60996  0.05000
 H3_17_5  H 1.0  0.39004  0.17761  0.43654  0.05000
 H3_17_6  H 1.0  0.56346  0.89004  0.32239  0.05000
 H3_17_7  H 1.0  0.32239  0.56346  0.89004  0.05000
 H3_17_8  H 1.0  0.60996  0.67761  0.06346  0.05000
 H3_17_9  H 1.0  0.43654  0.39004  0.17761  0.05000
 H3_17_10  H 1.0  0.82239  0.56346  0.60996  0.05000
 H3_17_11  H 1.0  0.10996  0.67761  0.43654  0.05000
 H3_17_12  H 1.0  0.93654  0.39004  0.32239  0.05000
 H3_17_13  H 1.0  0.82239  0.93654  0.10996  0.05000
 H3_17_14  H 1.0  0.10996  0.82239  0.93654  0.05000
 H3_17_15  H 1.0  0.93654  0.10996  0.82239  0.05000
 H3_17_16  H 1.0  0.32239  0.93654  0.39004  0.05000
 H3_17_17  H 1.0  0.60996  0.82239  0.56346  0.05000
 H3_17_18  H 1.0  0.43654  0.10996  0.67761  0.05000
 H3_17_19  H 1.0  0.67761  0.43654  0.10996  0.05000
 H3_17_20  H 1.0  0.39004  0.32239  0.93654  0.05000
 H3_17_21  H 1.0  0.56346  0.60996  0.82239  0.05000
 H3_17_22  H 1.0  0.17761  0.43654  0.39004  0.05000
 H3_17_23  H 1.0  0.89004  0.32239  0.56346  0.05000
 H3_17_24  H 1.0  0.06346  0.60996  0.67761  0.05000
 H3_18  H 1.0  0.06346  0.10996  0.82239  0.05000
 H3_18_2  H 1.0  0.82239  0.06346  0.10996  0.05000
 H3_18_3  H 1.0  0.10996  0.82239  0.06346  0.05000
 H3_18_4  H 1.0  0.56346  0.10996  0.67761  0.05000
 H3_18_5  H 1.0  0.32239  0.06346  0.39004  0.05000
 H3_18_6  H 1.0  0.60996  0.82239  0.43654  0.05000
 H3_18_7  H 1.0  0.43654  0.60996  0.82239  0.05000
 H3_18_8  H 1.0  0.67761  0.56346  0.10996  0.05000
 H3_18_9  H 1.0  0.39004  0.32239  0.06346  0.05000
 H3_18_10  H 1.0  0.93654  0.60996  0.67761  0.05000
 H3_18_11  H 1.0  0.17761  0.56346  0.39004  0.05000
 H3_18_12  H 1.0  0.89004  0.32239  0.43654  0.05000
 H3_18_13  H 1.0  0.93654  0.89004  0.17761  0.05000
 H3_18_14  H 1.0  0.17761  0.93654  0.89004  0.05000
 H3_18_15  H 1.0  0.89004  0.17761  0.93654  0.05000
 H3_18_16  H 1.0  0.43654  0.89004  0.32239  0.05000
 H3_18_17  H 1.0  0.67761  0.93654  0.60996  0.05000
 H3_18_18  H 1.0  0.39004  0.17761  0.56346  0.05000
 H3_18_19  H 1.0  0.56346  0.39004  0.17761  0.05000
 H3_18_20  H 1.0  0.32239  0.43654  0.89004  0.05000
 H3_18_21  H 1.0  0.60996  0.67761  0.93654  0.05000
 H3_18_22  H 1.0  0.06346  0.39004  0.32239  0.05000
 H3_18_23  H 1.0  0.82239  0.43654  0.60996  0.05000
 H3_18_24  H 1.0  0.10996  0.67761  0.56346  0.05000
 H5_4  H 1.0  0.15093  0.51878  0.8759  0.05000
 H5_4_2  H 1.0  0.8759  0.15093  0.51878  0.05000
 H5_4_3  H 1.0  0.51878  0.8759  0.15093  0.05000
 H5_4_4  H 1.0  0.65093  0.51878  0.6241  0.05000
 H5_4_5  H 1.0  0.3759  0.15093  0.98122  0.05000
 H5_4_6  H 1.0  0.01878  0.8759  0.34907  0.05000
 H5_4_7  H 1.0  0.34907  0.01878  0.8759  0.05000
 H5_4_8  H 1.0  0.6241  0.65093  0.51878  0.05000
 H5_4_9  H 1.0  0.98122  0.3759  0.15093  0.05000
 H5_4_10  H 1.0  0.84907  0.01878  0.6241  0.05000
 H5_4_11  H 1.0  0.1241  0.65093  0.98122  0.05000
 H5_4_12  H 1.0  0.48122  0.3759  0.34907  0.05000
 H5_4_13  H 1.0  0.84907  0.48122  0.1241  0.05000
 H5_4_14  H 1.0  0.1241  0.84907  0.48122  0.05000
 H5_4_15  H 1.0  0.48122  0.1241  0.84907  0.05000
 H5_4_16  H 1.0  0.34907  0.48122  0.3759  0.05000
 H5_4_17  H 1.0  0.6241  0.84907  0.01878  0.05000
 H5_4_18  H 1.0  0.98122  0.1241  0.65093  0.05000
 H5_4_19  H 1.0  0.65093  0.98122  0.1241  0.05000
 H5_4_20  H 1.0  0.3759  0.34907  0.48122  0.05000
 H5_4_21  H 1.0  0.01878  0.6241  0.84907  0.05000
 H5_4_22  H 1.0  0.15093  0.98122  0.3759  0.05000
 H5_4_23  H 1.0  0.8759  0.34907  0.01878  0.05000
 H5_4_24  H 1.0  0.51878  0.6241  0.65093  0.05000
 H5_13  H 1.0  0.51878  0.15093  0.1241  0.05000
 H5_13_2  H 1.0  0.1241  0.51878  0.15093  0.05000
 H5_13_3  H 1.0  0.15093  0.1241  0.51878  0.05000
 H5_13_4  H 1.0  0.01878  0.15093  0.3759  0.05000
 H5_13_5  H 1.0  0.6241  0.51878  0.34907  0.05000
 H5_13_6  H 1.0  0.65093  0.1241  0.98122  0.05000
 H5_13_7  H 1.0  0.98122  0.65093  0.1241  0.05000
 H5_13_8  H 1.0  0.3759  0.01878  0.15093  0.05000
 H5_13_9  H 1.0  0.34907  0.6241  0.51878  0.05000
 H5_13_10  H 1.0  0.48122  0.65093  0.3759  0.05000
 H5_13_11  H 1.0  0.8759  0.01878  0.34907  0.05000
 H5_13_12  H 1.0  0.84907  0.6241  0.98122  0.05000
 H5_13_13  H 1.0  0.48122  0.84907  0.8759  0.05000
 H5_13_14  H 1.0  0.8759  0.48122  0.84907  0.05000
 H5_13_15  H 1.0  0.84907  0.8759  0.48122  0.05000
 H5_13_16  H 1.0  0.98122  0.84907  0.6241  0.05000
 H5_13_17  H 1.0  0.3759  0.48122  0.65093  0.05000
 H5_13_18  H 1.0  0.34907  0.8759  0.01878  0.05000
 H5_13_19  H 1.0  0.01878  0.34907  0.8759  0.05000
 H5_13_20  H 1.0  0.6241  0.98122  0.84907  0.05000
 H5_13_21  H 1.0  0.65093  0.3759  0.48122  0.05000
 H5_13_22  H 1.0  0.51878  0.34907  0.6241  0.05000
 H5_13_23  H 1.0  0.1241  0.98122  0.65093  0.05000
 H5_13_24  H 1.0  0.15093  0.3759  0.01878  0.05000
 H5_16  H 1.0  0.51878  0.15093  0.8759  0.05000
 H5_16_2  H 1.0  0.8759  0.51878  0.15093  0.05000
 H5_16_3  H 1.0  0.15093  0.8759  0.51878  0.05000
 H5_16_4  H 1.0  0.01878  0.15093  0.6241  0.05000
 H5_16_5  H 1.0  0.3759  0.51878  0.34907  0.05000
 H5_16_6  H 1.0  0.65093  0.8759  0.98122  0.05000
 H5_16_7  H 1.0  0.98122  0.65093  0.8759  0.05000
 H5_16_8  H 1.0  0.6241  0.01878  0.15093  0.05000
 H5_16_9  H 1.0  0.34907  0.3759  0.51878  0.05000
 H5_16_10  H 1.0  0.48122  0.65093  0.6241  0.05000
 H5_16_11  H 1.0  0.1241  0.01878  0.34907  0.05000
 H5_16_12  H 1.0  0.84907  0.3759  0.98122  0.05000
 H5_16_13  H 1.0  0.48122  0.84907  0.1241  0.05000
 H5_16_14  H 1.0  0.1241  0.48122  0.84907  0.05000
 H5_16_15  H 1.0  0.84907  0.1241  0.48122  0.05000
 H5_16_16  H 1.0  0.98122  0.84907  0.3759  0.05000
 H5_16_17  H 1.0  0.6241  0.48122  0.65093  0.05000
 H5_16_18  H 1.0  0.34907  0.1241  0.01878  0.05000
 H5_16_19  H 1.0  0.01878  0.34907  0.1241  0.05000
 H5_16_20  H 1.0  0.3759  0.98122  0.84907  0.05000
 H5_16_21  H 1.0  0.65093  0.6241  0.48122  0.05000
 H5_16_22  H 1.0  0.51878  0.34907  0.3759  0.05000
 H5_16_23  H 1.0  0.8759  0.98122  0.65093  0.05000
 H5_16_24  H 1.0  0.15093  0.6241  0.01878  0.05000
 H5_17  H 1.0  0.15093  0.1241  0.48122  0.05000
 H5_17_2  H 1.0  0.48122  0.15093  0.1241  0.05000
 H5_17_3  H 1.0  0.1241  0.48122  0.15093  0.05000
 H5_17_4  H 1.0  0.65093  0.1241  0.01878  0.05000
 H5_17_5  H 1.0  0.98122  0.15093  0.3759  0.05000
 H5_17_6  H 1.0  0.6241  0.48122  0.34907  0.05000
 H5_17_7  H 1.0  0.34907  0.6241  0.48122  0.05000
 H5_17_8  H 1.0  0.01878  0.65093  0.1241  0.05000
 H5_17_9  H 1.0  0.3759  0.98122  0.15093  0.05000
 H5_17_10  H 1.0  0.84907  0.6241  0.01878  0.05000
 H5_17_11  H 1.0  0.51878  0.65093  0.3759  0.05000
 H5_17_12  H 1.0  0.8759  0.98122  0.34907  0.05000
 H5_17_13  H 1.0  0.84907  0.8759  0.51878  0.05000
 H5_17_14  H 1.0  0.51878  0.84907  0.8759  0.05000
 H5_17_15  H 1.0  0.8759  0.51878  0.84907  0.05000
 H5_17_16  H 1.0  0.34907  0.8759  0.98122  0.05000
 H5_17_17  H 1.0  0.01878  0.84907  0.6241  0.05000
 H5_17_18  H 1.0  0.3759  0.51878  0.65093  0.05000
 H5_17_19  H 1.0  0.65093  0.3759  0.51878  0.05000
 H5_17_20  H 1.0  0.98122  0.34907  0.8759  0.05000
 H5_17_21  H 1.0  0.6241  0.01878  0.84907  0.05000
 H5_17_22  H 1.0  0.15093  0.3759  0.98122  0.05000
 H5_17_23  H 1.0  0.48122  0.34907  0.6241  0.05000
 H5_17_24  H 1.0  0.1241  0.01878  0.65093  0.05000
 H5_18  H 1.0  0.1241  0.51878  0.84907  0.05000
 H5_18_2  H 1.0  0.84907  0.1241  0.51878  0.05000
 H5_18_3  H 1.0  0.51878  0.84907  0.1241  0.05000
 H5_18_4  H 1.0  0.6241  0.51878  0.65093  0.05000
 H5_18_5  H 1.0  0.34907  0.1241  0.98122  0.05000
 H5_18_6  H 1.0  0.01878  0.84907  0.3759  0.05000
 H5_18_7  H 1.0  0.3759  0.01878  0.84907  0.05000
 H5_18_8  H 1.0  0.65093  0.6241  0.51878  0.05000
 H5_18_9  H 1.0  0.98122  0.34907  0.1241  0.05000
 H5_18_10  H 1.0  0.8759  0.01878  0.65093  0.05000
 H5_18_11  H 1.0  0.15093  0.6241  0.98122  0.05000
 H5_18_12  H 1.0  0.48122  0.34907  0.3759  0.05000
 H5_18_13  H 1.0  0.8759  0.48122  0.15093  0.05000
 H5_18_14  H 1.0  0.15093  0.8759  0.48122  0.05000
 H5_18_15  H 1.0  0.48122  0.15093  0.8759  0.05000
 H5_18_16  H 1.0  0.3759  0.48122  0.34907  0.05000
 H5_18_17  H 1.0  0.65093  0.8759  0.01878  0.05000
 H5_18_18  H 1.0  0.98122  0.15093  0.6241  0.05000
 H5_18_19  H 1.0  0.6241  0.98122  0.15093  0.05000
 H5_18_20  H 1.0  0.34907  0.3759  0.48122  0.05000
 H5_18_21  H 1.0  0.01878  0.65093  0.8759  0.05000
 H5_18_22  H 1.0  0.1241  0.98122  0.34907  0.05000
 H5_18_23  H 1.0  0.84907  0.3759  0.01878  0.05000
 H5_18_24  H 1.0  0.51878  0.65093  0.6241  0.05000
 H7_4  H 1.0  0.2233  0.33738  0.74987  0.05000
 H7_4_2  H 1.0  0.74987  0.2233  0.33738  0.05000
 H7_4_3  H 1.0  0.33738  0.74987  0.2233  0.05000
 H7_4_4  H 1.0  0.7233  0.33738  0.75013  0.05000
 H7_4_5  H 1.0  0.24987  0.2233  0.16262  0.05000
 H7_4_6  H 1.0  0.83738  0.74987  0.2767  0.05000
 H7_4_7  H 1.0  0.2767  0.83738  0.74987  0.05000
 H7_4_8  H 1.0  0.75013  0.7233  0.33738  0.05000
 H7_4_9  H 1.0  0.16262  0.24987  0.2233  0.05000
 H7_4_10  H 1.0  0.7767  0.83738  0.75013  0.05000
 H7_4_11  H 1.0  0.25013  0.7233  0.16262  0.05000
 H7_4_12  H 1.0  0.66262  0.24987  0.2767  0.05000
 H7_4_13  H 1.0  0.7767  0.66262  0.25013  0.05000
 H7_4_14  H 1.0  0.25013  0.7767  0.66262  0.05000
 H7_4_15  H 1.0  0.66262  0.25013  0.7767  0.05000
 H7_4_16  H 1.0  0.2767  0.66262  0.24987  0.05000
 H7_4_17  H 1.0  0.75013  0.7767  0.83738  0.05000
 H7_4_18  H 1.0  0.16262  0.25013  0.7233  0.05000
 H7_4_19  H 1.0  0.7233  0.16262  0.25013  0.05000
 H7_4_20  H 1.0  0.24987  0.2767  0.66262  0.05000
 H7_4_21  H 1.0  0.83738  0.75013  0.7767  0.05000
 H7_4_22  H 1.0  0.2233  0.16262  0.24987  0.05000
 H7_4_23  H 1.0  0.74987  0.2767  0.83738  0.05000
 H7_4_24  H 1.0  0.33738  0.75013  0.7233  0.05000
 H7_6  H 1.0  0.33738  0.25013  0.7767  0.05000
 H7_6_2  H 1.0  0.7767  0.33738  0.25013  0.05000
 H7_6_3  H 1.0  0.25013  0.7767  0.33738  0.05000
 H7_6_4  H 1.0  0.83738  0.25013  0.7233  0.05000
 H7_6_5  H 1.0  0.2767  0.33738  0.24987  0.05000
 H7_6_6  H 1.0  0.75013  0.7767  0.16262  0.05000
 H7_6_7  H 1.0  0.16262  0.75013  0.7767  0.05000
 H7_6_8  H 1.0  0.7233  0.83738  0.25013  0.05000
 H7_6_9  H 1.0  0.24987  0.2767  0.33738  0.05000
 H7_6_10  H 1.0  0.66262  0.75013  0.7233  0.05000
 H7_6_11  H 1.0  0.2233  0.83738  0.24987  0.05000
 H7_6_12  H 1.0  0.74987  0.2767  0.16262  0.05000
 H7_6_13  H 1.0  0.66262  0.74987  0.2233  0.05000
 H7_6_14  H 1.0  0.2233  0.66262  0.74987  0.05000
 H7_6_15  H 1.0  0.74987  0.2233  0.66262  0.05000
 H7_6_16  H 1.0  0.16262  0.74987  0.2767  0.05000
 H7_6_17  H 1.0  0.7233  0.66262  0.75013  0.05000
 H7_6_18  H 1.0  0.24987  0.2233  0.83738  0.05000
 H7_6_19  H 1.0  0.83738  0.24987  0.2233  0.05000
 H7_6_20  H 1.0  0.2767  0.16262  0.74987  0.05000
 H7_6_21  H 1.0  0.75013  0.7233  0.66262  0.05000
 H7_6_22  H 1.0  0.33738  0.24987  0.2767  0.05000
 H7_6_23  H 1.0  0.7767  0.16262  0.75013  0.05000
 H7_6_24  H 1.0  0.25013  0.7233  0.83738  0.05000
 H7_16  H 1.0  0.33738  0.2233  0.74987  0.05000
 H7_16_2  H 1.0  0.74987  0.33738  0.2233  0.05000
 H7_16_3  H 1.0  0.2233  0.74987  0.33738  0.05000
 H7_16_4  H 1.0  0.83738  0.2233  0.75013  0.05000
 H7_16_5  H 1.0  0.24987  0.33738  0.2767  0.05000
 H7_16_6  H 1.0  0.7233  0.74987  0.16262  0.05000
 H7_16_7  H 1.0  0.16262  0.7233  0.74987  0.05000
 H7_16_8  H 1.0  0.75013  0.83738  0.2233  0.05000
 H7_16_9  H 1.0  0.2767  0.24987  0.33738  0.05000
 H7_16_10  H 1.0  0.66262  0.7233  0.75013  0.05000
 H7_16_11  H 1.0  0.25013  0.83738  0.2767  0.05000
 H7_16_12  H 1.0  0.7767  0.24987  0.16262  0.05000
 H7_16_13  H 1.0  0.66262  0.7767  0.25013  0.05000
 H7_16_14  H 1.0  0.25013  0.66262  0.7767  0.05000
 H7_16_15  H 1.0  0.7767  0.25013  0.66262  0.05000
 H7_16_16  H 1.0  0.16262  0.7767  0.24987  0.05000
 H7_16_17  H 1.0  0.75013  0.66262  0.7233  0.05000
 H7_16_18  H 1.0  0.2767  0.25013  0.83738  0.05000
 H7_16_19  H 1.0  0.83738  0.2767  0.25013  0.05000
 H7_16_20  H 1.0  0.24987  0.16262  0.7767  0.05000
 H7_16_21  H 1.0  0.7233  0.75013  0.66262  0.05000
 H7_16_22  H 1.0  0.33738  0.2767  0.24987  0.05000
 H7_16_23  H 1.0  0.74987  0.16262  0.7233  0.05000
 H7_16_24  H 1.0  0.2233  0.75013  0.83738  0.05000
 H7_17  H 1.0  0.2233  0.25013  0.66262  0.05000
 H7_17_2  H 1.0  0.66262  0.2233  0.25013  0.05000
 H7_17_3  H 1.0  0.25013  0.66262  0.2233  0.05000
 H7_17_4  H 1.0  0.7233  0.25013  0.83738  0.05000
 H7_17_5  H 1.0  0.16262  0.2233  0.24987  0.05000
 H7_17_6  H 1.0  0.75013  0.66262  0.2767  0.05000
 H7_17_7  H 1.0  0.2767  0.75013  0.66262  0.05000
 H7_17_8  H 1.0  0.83738  0.7233  0.25013  0.05000
 H7_17_9  H 1.0  0.24987  0.16262  0.2233  0.05000
 H7_17_10  H 1.0  0.7767  0.75013  0.83738  0.05000
 H7_17_11  H 1.0  0.33738  0.7233  0.24987  0.05000
 H7_17_12  H 1.0  0.74987  0.16262  0.2767  0.05000
 H7_17_13  H 1.0  0.7767  0.74987  0.33738  0.05000
 H7_17_14  H 1.0  0.33738  0.7767  0.74987  0.05000
 H7_17_15  H 1.0  0.74987  0.33738  0.7767  0.05000
 H7_17_16  H 1.0  0.2767  0.74987  0.16262  0.05000
 H7_17_17  H 1.0  0.83738  0.7767  0.75013  0.05000
 H7_17_18  H 1.0  0.24987  0.33738  0.7233  0.05000
 H7_17_19  H 1.0  0.7233  0.24987  0.33738  0.05000
 H7_17_20  H 1.0  0.16262  0.2767  0.74987  0.05000
 H7_17_21  H 1.0  0.75013  0.83738  0.7767  0.05000
 H7_17_22  H 1.0  0.2233  0.24987  0.16262  0.05000
 H7_17_23  H 1.0  0.66262  0.2767  0.75013  0.05000
 H7_17_24  H 1.0  0.25013  0.83738  0.7233  0.05000
 H7_18  H 1.0  0.25013  0.33738  0.7767  0.05000
 H7_18_2  H 1.0  0.7767  0.25013  0.33738  0.05000
 H7_18_3  H 1.0  0.33738  0.7767  0.25013  0.05000
 H7_18_4  H 1.0  0.75013  0.33738  0.7233  0.05000
 H7_18_5  H 1.0  0.2767  0.25013  0.16262  0.05000
 H7_18_6  H 1.0  0.83738  0.7767  0.24987  0.05000
 H7_18_7  H 1.0  0.24987  0.83738  0.7767  0.05000
 H7_18_8  H 1.0  0.7233  0.75013  0.33738  0.05000
 H7_18_9  H 1.0  0.16262  0.2767  0.25013  0.05000
 H7_18_10  H 1.0  0.74987  0.83738  0.7233  0.05000
 H7_18_11  H 1.0  0.2233  0.75013  0.16262  0.05000
 H7_18_12  H 1.0  0.66262  0.2767  0.24987  0.05000
 H7_18_13  H 1.0  0.74987  0.66262  0.2233  0.05000
 H7_18_14  H 1.0  0.2233  0.74987  0.66262  0.05000
 H7_18_15  H 1.0  0.66262  0.2233  0.74987  0.05000
 H7_18_16  H 1.0  0.24987  0.66262  0.2767  0.05000
 H7_18_17  H 1.0  0.7233  0.74987  0.83738  0.05000
 H7_18_18  H 1.0  0.16262  0.2233  0.75013  0.05000
 H7_18_19  H 1.0  0.75013  0.16262  0.2233  0.05000
 H7_18_20  H 1.0  0.2767  0.24987  0.66262  0.05000
 H7_18_21  H 1.0  0.83738  0.7233  0.74987  0.05000
 H7_18_22  H 1.0  0.25013  0.16262  0.2767  0.05000
 H7_18_23  H 1.0  0.7767  0.24987  0.83738  0.05000
 H7_18_24  H 1.0  0.33738  0.7233  0.75013  0.05000
 O1  O 1.0  0.2406  0.30326  0.0  0.05000
 O1_2  O 1.0  0.0  0.2406  0.30326  0.05000
 O1_3  O 1.0  0.30326  0.0  0.2406  0.05000
 O1_4  O 1.0  0.7406  0.30326  0.5  0.05000
 O1_5  O 1.0  0.5  0.2406  0.19674  0.05000
 O1_6  O 1.0  0.80326  0.0  0.2594  0.05000
 O1_7  O 1.0  0.2594  0.80326  0.0  0.05000
 O1_8  O 1.0  0.5  0.7406  0.30326  0.05000
 O1_9  O 1.0  0.19674  0.5  0.2406  0.05000
 O1_10  O 1.0  0.7594  0.80326  0.5  0.05000
 O1_11  O 1.0  0.0  0.7406  0.19674  0.05000
 O1_12  O 1.0  0.69674  0.5  0.2594  0.05000
 O1_13  O 1.0  0.7594  0.69674  0.0  0.05000
 O1_14  O 1.0  0.0  0.7594  0.69674  0.05000
 O1_15  O 1.0  0.69674  0.0  0.7594  0.05000
 O1_16  O 1.0  0.2594  0.69674  0.5  0.05000
 O1_17  O 1.0  0.5  0.7594  0.80326  0.05000
 O1_18  O 1.0  0.19674  0.0  0.7406  0.05000
 O1_19  O 1.0  0.7406  0.19674  0.0  0.05000
 O1_20  O 1.0  0.5  0.2594  0.69674  0.05000
 O1_21  O 1.0  0.80326  0.5  0.7594  0.05000
 O1_22  O 1.0  0.2406  0.19674  0.5  0.05000
 O1_23  O 1.0  0.0  0.2594  0.80326  0.05000
 O1_24  O 1.0  0.30326  0.5  0.7406  0.05000
 O2  O 1.0  0.22848  0.22848  0.04396  0.05000
 O2_2  O 1.0  0.04396  0.22848  0.22848  0.05000
 O2_3  O 1.0  0.22848  0.04396  0.22848  0.05000
 O2_4  O 1.0  0.72848  0.22848  0.45604  0.05000
 O2_5  O 1.0  0.54396  0.22848  0.27152  0.05000
 O2_6  O 1.0  0.72848  0.04396  0.27152  0.05000
 O2_7  O 1.0  0.27152  0.72848  0.04396  0.05000
 O2_8  O 1.0  0.45604  0.72848  0.22848  0.05000
 O2_9  O 1.0  0.27152  0.54396  0.22848  0.05000
 O2_10  O 1.0  0.77152  0.72848  0.45604  0.05000
 O2_11  O 1.0  0.95604  0.72848  0.27152  0.05000
 O2_12  O 1.0  0.77152  0.54396  0.27152  0.05000
 O2_13  O 1.0  0.77152  0.77152  0.95604  0.05000
 O2_14  O 1.0  0.95604  0.77152  0.77152  0.05000
 O2_15  O 1.0  0.77152  0.95604  0.77152  0.05000
 O2_16  O 1.0  0.27152  0.77152  0.54396  0.05000
 O2_17  O 1.0  0.45604  0.77152  0.72848  0.05000
 O2_18  O 1.0  0.27152  0.95604  0.72848  0.05000
 O2_19  O 1.0  0.72848  0.27152  0.95604  0.05000
 O2_20  O 1.0  0.54396  0.27152  0.77152  0.05000
 O2_21  O 1.0  0.72848  0.45604  0.77152  0.05000
 O2_22  O 1.0  0.22848  0.27152  0.54396  0.05000
 O2_23  O 1.0  0.04396  0.27152  0.72848  0.05000
 O2_24  O 1.0  0.22848  0.45604  0.72848  0.05000
 O3  O 1.0  0.17414  0.26146  0.06714  0.05000
 O3_2  O 1.0  0.06714  0.17414  0.26146  0.05000
 O3_3  O 1.0  0.26146  0.06714  0.17414  0.05000
 O3_4  O 1.0  0.67414  0.26146  0.43286  0.05000
 O3_5  O 1.0  0.56714  0.17414  0.23854  0.05000
 O3_6  O 1.0  0.76146  0.06714  0.32586  0.05000
 O3_7  O 1.0  0.32586  0.76146  0.06714  0.05000
 O3_8  O 1.0  0.43286  0.67414  0.26146  0.05000
 O3_9  O 1.0  0.23854  0.56714  0.17414  0.05000
 O3_10  O 1.0  0.82586  0.76146  0.43286  0.05000
 O3_11  O 1.0  0.93286  0.67414  0.23854  0.05000
 O3_12  O 1.0  0.73854  0.56714  0.32586  0.05000
 O3_13  O 1.0  0.82586  0.73854  0.93286  0.05000
 O3_14  O 1.0  0.93286  0.82586  0.73854  0.05000
 O3_15  O 1.0  0.73854  0.93286  0.82586  0.05000
 O3_16  O 1.0  0.32586  0.73854  0.56714  0.05000
 O3_17  O 1.0  0.43286  0.82586  0.76146  0.05000
 O3_18  O 1.0  0.23854  0.93286  0.67414  0.05000
 O3_19  O 1.0  0.67414  0.23854  0.93286  0.05000
 O3_20  O 1.0  0.56714  0.32586  0.73854  0.05000
 O3_21  O 1.0  0.76146  0.43286  0.82586  0.05000
 O3_22  O 1.0  0.17414  0.23854  0.56714  0.05000
 O3_23  O 1.0  0.06714  0.32586  0.76146  0.05000
 O3_24  O 1.0  0.26146  0.43286  0.67414  0.05000
 O4  O 1.0  0.21179  0.16455  0.0364  0.05000
 O4_2  O 1.0  0.0364  0.21179  0.16455  0.05000
 O4_3  O 1.0  0.16455  0.0364  0.21179  0.05000
 O4_4  O 1.0  0.71179  0.16455  0.4636  0.05000
 O4_5  O 1.0  0.5364  0.21179  0.33545  0.05000
 O4_6  O 1.0  0.66455  0.0364  0.28821  0.05000
 O4_7  O 1.0  0.28821  0.66455  0.0364  0.05000
 O4_8  O 1.0  0.4636  0.71179  0.16455  0.05000
 O4_9  O 1.0  0.33545  0.5364  0.21179  0.05000
 O4_10  O 1.0  0.78821  0.66455  0.4636  0.05000
 O4_11  O 1.0  0.9636  0.71179  0.33545  0.05000
 O4_12  O 1.0  0.83545  0.5364  0.28821  0.05000
 O4_13  O 1.0  0.78821  0.83545  0.9636  0.05000
 O4_14  O 1.0  0.9636  0.78821  0.83545  0.05000
 O4_15  O 1.0  0.83545  0.9636  0.78821  0.05000
 O4_16  O 1.0  0.28821  0.83545  0.5364  0.05000
 O4_17  O 1.0  0.4636  0.78821  0.66455  0.05000
 O4_18  O 1.0  0.33545  0.9636  0.71179  0.05000
 O4_19  O 1.0  0.71179  0.33545  0.9636  0.05000
 O4_20  O 1.0  0.5364  0.28821  0.83545  0.05000
 O4_21  O 1.0  0.66455  0.4636  0.78821  0.05000
 O4_22  O 1.0  0.21179  0.33545  0.5364  0.05000
 O4_23  O 1.0  0.0364  0.28821  0.66455  0.05000
 O4_24  O 1.0  0.16455  0.4636  0.71179  0.05000
 O5  O 1.0  0.18204  0.31796  0.02953  0.05000
 O5_2  O 1.0  0.02953  0.18204  0.31796  0.05000
 O5_3  O 1.0  0.31796  0.02953  0.18204  0.05000
 O5_4  O 1.0  0.68204  0.31796  0.47047  0.05000
 O5_5  O 1.0  0.52953  0.18204  0.18204  0.05000
 O5_6  O 1.0  0.81796  0.02953  0.31796  0.05000
 O5_7  O 1.0  0.31796  0.81796  0.02953  0.05000
 O5_8  O 1.0  0.47047  0.68204  0.31796  0.05000
 O5_9  O 1.0  0.18204  0.52953  0.18204  0.05000
 O5_10  O 1.0  0.81796  0.81796  0.47047  0.05000
 O5_11  O 1.0  0.97047  0.68204  0.18204  0.05000
 O5_12  O 1.0  0.68204  0.52953  0.31796  0.05000
 O5_13  O 1.0  0.81796  0.68204  0.97047  0.05000
 O5_14  O 1.0  0.97047  0.81796  0.68204  0.05000
 O5_15  O 1.0  0.68204  0.97047  0.81796  0.05000
 O5_16  O 1.0  0.31796  0.68204  0.52953  0.05000
 O5_17  O 1.0  0.47047  0.81796  0.81796  0.05000
 O5_18  O 1.0  0.18204  0.97047  0.68204  0.05000
 O5_19  O 1.0  0.68204  0.18204  0.97047  0.05000
 O5_20  O 1.0  0.52953  0.31796  0.68204  0.05000
 O5_21  O 1.0  0.81796  0.47047  0.81796  0.05000
 O5_22  O 1.0  0.18204  0.18204  0.52953  0.05000
 O5_23  O 1.0  0.02953  0.31796  0.81796  0.05000
 O5_24  O 1.0  0.31796  0.47047  0.68204  0.05000
 O6  O 1.0  0.22909  0.27091  0.09962  0.05000
 O6_2  O 1.0  0.09962  0.22909  0.27091  0.05000
 O6_3  O 1.0  0.27091  0.09962  0.22909  0.05000
 O6_4  O 1.0  0.72909  0.27091  0.40038  0.05000
 O6_5  O 1.0  0.59962  0.22909  0.22909  0.05000
 O6_6  O 1.0  0.77091  0.09962  0.27091  0.05000
 O6_7  O 1.0  0.27091  0.77091  0.09962  0.05000
 O6_8  O 1.0  0.40038  0.72909  0.27091  0.05000
 O6_9  O 1.0  0.22909  0.59962  0.22909  0.05000
 O6_10  O 1.0  0.77091  0.77091  0.40038  0.05000
 O6_11  O 1.0  0.90038  0.72909  0.22909  0.05000
 O6_12  O 1.0  0.72909  0.59962  0.27091  0.05000
 O6_13  O 1.0  0.77091  0.72909  0.90038  0.05000
 O6_14  O 1.0  0.90038  0.77091  0.72909  0.05000
 O6_15  O 1.0  0.72909  0.90038  0.77091  0.05000
 O6_16  O 1.0  0.27091  0.72909  0.59962  0.05000
 O6_17  O 1.0  0.40038  0.77091  0.77091  0.05000
 O6_18  O 1.0  0.22909  0.90038  0.72909  0.05000
 O6_19  O 1.0  0.72909  0.22909  0.90038  0.05000
 O6_20  O 1.0  0.59962  0.27091  0.72909  0.05000
 O6_21  O 1.0  0.77091  0.40038  0.77091  0.05000
 O6_22  O 1.0  0.22909  0.22909  0.59962  0.05000
 O6_23  O 1.0  0.09962  0.27091  0.77091  0.05000
 O6_24  O 1.0  0.27091  0.40038  0.72909  0.05000
 O1_4  O 1.0  0.0  0.2406  0.69674  0.05000
 O1_4_2  O 1.0  0.69674  0.0  0.2406  0.05000
 O1_4_3  O 1.0  0.2406  0.69674  0.0  0.05000
 O1_4_4  O 1.0  0.5  0.2406  0.80326  0.05000
 O1_4_5  O 1.0  0.19674  0.0  0.2594  0.05000
 O1_4_6  O 1.0  0.7406  0.69674  0.5  0.05000
 O1_4_7  O 1.0  0.5  0.7406  0.69674  0.05000
 O1_4_8  O 1.0  0.80326  0.5  0.2406  0.05000
 O1_4_9  O 1.0  0.2594  0.19674  0.0  0.05000
 O1_4_10  O 1.0  0.0  0.7406  0.80326  0.05000
 O1_4_11  O 1.0  0.30326  0.5  0.2594  0.05000
 O1_4_12  O 1.0  0.7594  0.19674  0.5  0.05000
 O1_4_13  O 1.0  0.0  0.7594  0.30326  0.05000
 O1_4_14  O 1.0  0.30326  0.0  0.7594  0.05000
 O1_4_15  O 1.0  0.7594  0.30326  0.0  0.05000
 O1_4_16  O 1.0  0.5  0.7594  0.19674  0.05000
 O1_4_17  O 1.0  0.80326  0.0  0.7406  0.05000
 O1_4_18  O 1.0  0.2594  0.30326  0.5  0.05000
 O1_4_19  O 1.0  0.5  0.2594  0.30326  0.05000
 O1_4_20  O 1.0  0.19674  0.5  0.7594  0.05000
 O1_4_21  O 1.0  0.7406  0.80326  0.0  0.05000
 O1_4_22  O 1.0  0.0  0.2594  0.19674  0.05000
 O1_4_23  O 1.0  0.69674  0.5  0.7406  0.05000
 O1_4_24  O 1.0  0.2406  0.80326  0.5  0.05000
 O1_9  O 1.0  0.30326  0.2406  0.0  0.05000
 O1_9_2  O 1.0  0.0  0.30326  0.2406  0.05000
 O1_9_3  O 1.0  0.2406  0.0  0.30326  0.05000
 O1_9_4  O 1.0  0.80326  0.2406  0.5  0.05000
 O1_9_5  O 1.0  0.5  0.30326  0.2594  0.05000
 O1_9_6  O 1.0  0.7406  0.0  0.19674  0.05000
 O1_9_7  O 1.0  0.19674  0.7406  0.0  0.05000
 O1_9_8  O 1.0  0.5  0.80326  0.2406  0.05000
 O1_9_9  O 1.0  0.2594  0.5  0.30326  0.05000
 O1_9_10  O 1.0  0.69674  0.7406  0.5  0.05000
 O1_9_11  O 1.0  0.0  0.80326  0.2594  0.05000
 O1_9_12  O 1.0  0.7594  0.5  0.19674  0.05000
 O1_9_13  O 1.0  0.69674  0.7594  0.0  0.05000
 O1_9_14  O 1.0  0.0  0.69674  0.7594  0.05000
 O1_9_15  O 1.0  0.7594  0.0  0.69674  0.05000
 O1_9_16  O 1.0  0.19674  0.7594  0.5  0.05000
 O1_9_17  O 1.0  0.5  0.69674  0.7406  0.05000
 O1_9_18  O 1.0  0.2594  0.0  0.80326  0.05000
 O1_9_19  O 1.0  0.80326  0.2594  0.0  0.05000
 O1_9_20  O 1.0  0.5  0.19674  0.7594  0.05000
 O1_9_21  O 1.0  0.7406  0.5  0.69674  0.05000
 O1_9_22  O 1.0  0.30326  0.2594  0.5  0.05000
 O1_9_23  O 1.0  0.0  0.19674  0.7406  0.05000
 O1_9_24  O 1.0  0.2406  0.5  0.80326  0.05000
 O1_12  O 1.0  0.2406  0.0  0.69674  0.05000
 O1_12_2  O 1.0  0.69674  0.2406  0.0  0.05000
 O1_12_3  O 1.0  0.0  0.69674  0.2406  0.05000
 O1_12_4  O 1.0  0.7406  0.0  0.80326  0.05000
 O1_12_5  O 1.0  0.19674  0.2406  0.5  0.05000
 O1_12_6  O 1.0  0.5  0.69674  0.2594  0.05000
 O1_12_7  O 1.0  0.2594  0.5  0.69674  0.05000
 O1_12_8  O 1.0  0.80326  0.7406  0.0  0.05000
 O1_12_9  O 1.0  0.5  0.19674  0.2406  0.05000
 O1_12_10  O 1.0  0.7594  0.5  0.80326  0.05000
 O1_12_11  O 1.0  0.30326  0.7406  0.5  0.05000
 O1_12_12  O 1.0  0.0  0.19674  0.2594  0.05000
 O1_12_13  O 1.0  0.7594  0.0  0.30326  0.05000
 O1_12_14  O 1.0  0.30326  0.7594  0.0  0.05000
 O1_12_15  O 1.0  0.0  0.30326  0.7594  0.05000
 O1_12_16  O 1.0  0.2594  0.0  0.19674  0.05000
 O1_12_17  O 1.0  0.80326  0.7594  0.5  0.05000
 O1_12_18  O 1.0  0.5  0.30326  0.7406  0.05000
 O1_12_19  O 1.0  0.7406  0.5  0.30326  0.05000
 O1_12_20  O 1.0  0.19674  0.2594  0.0  0.05000
 O1_12_21  O 1.0  0.5  0.80326  0.7594  0.05000
 O1_12_22  O 1.0  0.2406  0.5  0.19674  0.05000
 O1_12_23  O 1.0  0.69674  0.2594  0.5  0.05000
 O1_12_24  O 1.0  0.0  0.80326  0.7406  0.05000
 O2_4  O 1.0  0.22848  0.22848  0.95604  0.05000
 O2_4_2  O 1.0  0.95604  0.22848  0.22848  0.05000
 O2_4_3  O 1.0  0.22848  0.95604  0.22848  0.05000
 O2_4_4  O 1.0  0.72848  0.22848  0.54396  0.05000
 O2_4_5  O 1.0  0.45604  0.22848  0.27152  0.05000
 O2_4_6  O 1.0  0.72848  0.95604  0.27152  0.05000
 O2_4_7  O 1.0  0.27152  0.72848  0.95604  0.05000
 O2_4_8  O 1.0  0.54396  0.72848  0.22848  0.05000
 O2_4_9  O 1.0  0.27152  0.45604  0.22848  0.05000
 O2_4_10  O 1.0  0.77152  0.72848  0.54396  0.05000
 O2_4_11  O 1.0  0.04396  0.72848  0.27152  0.05000
 O2_4_12  O 1.0  0.77152  0.45604  0.27152  0.05000
 O2_4_13  O 1.0  0.77152  0.77152  0.04396  0.05000
 O2_4_14  O 1.0  0.04396  0.77152  0.77152  0.05000
 O2_4_15  O 1.0  0.77152  0.04396  0.77152  0.05000
 O2_4_16  O 1.0  0.27152  0.77152  0.45604  0.05000
 O2_4_17  O 1.0  0.54396  0.77152  0.72848  0.05000
 O2_4_18  O 1.0  0.27152  0.04396  0.72848  0.05000
 O2_4_19  O 1.0  0.72848  0.27152  0.04396  0.05000
 O2_4_20  O 1.0  0.45604  0.27152  0.77152  0.05000
 O2_4_21  O 1.0  0.72848  0.54396  0.77152  0.05000
 O2_4_22  O 1.0  0.22848  0.27152  0.45604  0.05000
 O2_4_23  O 1.0  0.95604  0.27152  0.72848  0.05000
 O2_4_24  O 1.0  0.22848  0.54396  0.72848  0.05000
 O2_5  O 1.0  0.04396  0.22848  0.77152  0.05000
 O2_5_2  O 1.0  0.77152  0.04396  0.22848  0.05000
 O2_5_3  O 1.0  0.22848  0.77152  0.04396  0.05000
 O2_5_4  O 1.0  0.54396  0.22848  0.72848  0.05000
 O2_5_5  O 1.0  0.27152  0.04396  0.27152  0.05000
 O2_5_6  O 1.0  0.72848  0.77152  0.45604  0.05000
 O2_5_7  O 1.0  0.45604  0.72848  0.77152  0.05000
 O2_5_8  O 1.0  0.72848  0.54396  0.22848  0.05000
 O2_5_9  O 1.0  0.27152  0.27152  0.04396  0.05000
 O2_5_10  O 1.0  0.95604  0.72848  0.72848  0.05000
 O2_5_11  O 1.0  0.22848  0.54396  0.27152  0.05000
 O2_5_12  O 1.0  0.77152  0.27152  0.45604  0.05000
 O2_5_13  O 1.0  0.95604  0.77152  0.22848  0.05000
 O2_5_14  O 1.0  0.22848  0.95604  0.77152  0.05000
 O2_5_15  O 1.0  0.77152  0.22848  0.95604  0.05000
 O2_5_16  O 1.0  0.45604  0.77152  0.27152  0.05000
 O2_5_17  O 1.0  0.72848  0.95604  0.72848  0.05000
 O2_5_18  O 1.0  0.27152  0.22848  0.54396  0.05000
 O2_5_19  O 1.0  0.54396  0.27152  0.22848  0.05000
 O2_5_20  O 1.0  0.27152  0.45604  0.77152  0.05000
 O2_5_21  O 1.0  0.72848  0.72848  0.95604  0.05000
 O2_5_22  O 1.0  0.04396  0.27152  0.27152  0.05000
 O2_5_23  O 1.0  0.77152  0.45604  0.72848  0.05000
 O2_5_24  O 1.0  0.22848  0.72848  0.54396  0.05000
 O2_6  O 1.0  0.22848  0.04396  0.77152  0.05000
 O2_6_2  O 1.0  0.77152  0.22848  0.04396  0.05000
 O2_6_3  O 1.0  0.04396  0.77152  0.22848  0.05000
 O2_6_4  O 1.0  0.72848  0.04396  0.72848  0.05000
 O2_6_5  O 1.0  0.27152  0.22848  0.45604  0.05000
 O2_6_6  O 1.0  0.54396  0.77152  0.27152  0.05000
 O2_6_7  O 1.0  0.27152  0.54396  0.77152  0.05000
 O2_6_8  O 1.0  0.72848  0.72848  0.04396  0.05000
 O2_6_9  O 1.0  0.45604  0.27152  0.22848  0.05000
 O2_6_10  O 1.0  0.77152  0.54396  0.72848  0.05000
 O2_6_11  O 1.0  0.22848  0.72848  0.45604  0.05000
 O2_6_12  O 1.0  0.95604  0.27152  0.27152  0.05000
 O2_6_13  O 1.0  0.77152  0.95604  0.22848  0.05000
 O2_6_14  O 1.0  0.22848  0.77152  0.95604  0.05000
 O2_6_15  O 1.0  0.95604  0.22848  0.77152  0.05000
 O2_6_16  O 1.0  0.27152  0.95604  0.27152  0.05000
 O2_6_17  O 1.0  0.72848  0.77152  0.54396  0.05000
 O2_6_18  O 1.0  0.45604  0.22848  0.72848  0.05000
 O2_6_19  O 1.0  0.72848  0.45604  0.22848  0.05000
 O2_6_20  O 1.0  0.27152  0.27152  0.95604  0.05000
 O2_6_21  O 1.0  0.54396  0.72848  0.77152  0.05000
 O2_6_22  O 1.0  0.22848  0.45604  0.27152  0.05000
 O2_6_23  O 1.0  0.77152  0.27152  0.54396  0.05000
 O2_6_24  O 1.0  0.04396  0.72848  0.72848  0.05000
 O3_4  O 1.0  0.17414  0.26146  0.93286  0.05000
 O3_4_2  O 1.0  0.93286  0.17414  0.26146  0.05000
 O3_4_3  O 1.0  0.26146  0.93286  0.17414  0.05000
 O3_4_4  O 1.0  0.67414  0.26146  0.56714  0.05000
 O3_4_5  O 1.0  0.43286  0.17414  0.23854  0.05000
 O3_4_6  O 1.0  0.76146  0.93286  0.32586  0.05000
 O3_4_7  O 1.0  0.32586  0.76146  0.93286  0.05000
 O3_4_8  O 1.0  0.56714  0.67414  0.26146  0.05000
 O3_4_9  O 1.0  0.23854  0.43286  0.17414  0.05000
 O3_4_10  O 1.0  0.82586  0.76146  0.56714  0.05000
 O3_4_11  O 1.0  0.06714  0.67414  0.23854  0.05000
 O3_4_12  O 1.0  0.73854  0.43286  0.32586  0.05000
 O3_4_13  O 1.0  0.82586  0.73854  0.06714  0.05000
 O3_4_14  O 1.0  0.06714  0.82586  0.73854  0.05000
 O3_4_15  O 1.0  0.73854  0.06714  0.82586  0.05000
 O3_4_16  O 1.0  0.32586  0.73854  0.43286  0.05000
 O3_4_17  O 1.0  0.56714  0.82586  0.76146  0.05000
 O3_4_18  O 1.0  0.23854  0.06714  0.67414  0.05000
 O3_4_19  O 1.0  0.67414  0.23854  0.06714  0.05000
 O3_4_20  O 1.0  0.43286  0.32586  0.73854  0.05000
 O3_4_21  O 1.0  0.76146  0.56714  0.82586  0.05000
 O3_4_22  O 1.0  0.17414  0.23854  0.43286  0.05000
 O3_4_23  O 1.0  0.93286  0.32586  0.76146  0.05000
 O3_4_24  O 1.0  0.26146  0.56714  0.67414  0.05000
 O3_5  O 1.0  0.06714  0.17414  0.73854  0.05000
 O3_5_2  O 1.0  0.73854  0.06714  0.17414  0.05000
 O3_5_3  O 1.0  0.17414  0.73854  0.06714  0.05000
 O3_5_4  O 1.0  0.56714  0.17414  0.76146  0.05000
 O3_5_5  O 1.0  0.23854  0.06714  0.32586  0.05000
 O3_5_6  O 1.0  0.67414  0.73854  0.43286  0.05000
 O3_5_7  O 1.0  0.43286  0.67414  0.73854  0.05000
 O3_5_8  O 1.0  0.76146  0.56714  0.17414  0.05000
 O3_5_9  O 1.0  0.32586  0.23854  0.06714  0.05000
 O3_5_10  O 1.0  0.93286  0.67414  0.76146  0.05000
 O3_5_11  O 1.0  0.26146  0.56714  0.32586  0.05000
 O3_5_12  O 1.0  0.82586  0.23854  0.43286  0.05000
 O3_5_13  O 1.0  0.93286  0.82586  0.26146  0.05000
 O3_5_14  O 1.0  0.26146  0.93286  0.82586  0.05000
 O3_5_15  O 1.0  0.82586  0.26146  0.93286  0.05000
 O3_5_16  O 1.0  0.43286  0.82586  0.23854  0.05000
 O3_5_17  O 1.0  0.76146  0.93286  0.67414  0.05000
 O3_5_18  O 1.0  0.32586  0.26146  0.56714  0.05000
 O3_5_19  O 1.0  0.56714  0.32586  0.26146  0.05000
 O3_5_20  O 1.0  0.23854  0.43286  0.82586  0.05000
 O3_5_21  O 1.0  0.67414  0.76146  0.93286  0.05000
 O3_5_22  O 1.0  0.06714  0.32586  0.23854  0.05000
 O3_5_23  O 1.0  0.73854  0.43286  0.67414  0.05000
 O3_5_24  O 1.0  0.17414  0.76146  0.56714  0.05000
 O3_6  O 1.0  0.26146  0.06714  0.82586  0.05000
 O3_6_2  O 1.0  0.82586  0.26146  0.06714  0.05000
 O3_6_3  O 1.0  0.06714  0.82586  0.26146  0.05000
 O3_6_4  O 1.0  0.76146  0.06714  0.67414  0.05000
 O3_6_5  O 1.0  0.32586  0.26146  0.43286  0.05000
 O3_6_6  O 1.0  0.56714  0.82586  0.23854  0.05000
 O3_6_7  O 1.0  0.23854  0.56714  0.82586  0.05000
 O3_6_8  O 1.0  0.67414  0.76146  0.06714  0.05000
 O3_6_9  O 1.0  0.43286  0.32586  0.26146  0.05000
 O3_6_10  O 1.0  0.73854  0.56714  0.67414  0.05000
 O3_6_11  O 1.0  0.17414  0.76146  0.43286  0.05000
 O3_6_12  O 1.0  0.93286  0.32586  0.23854  0.05000
 O3_6_13  O 1.0  0.73854  0.93286  0.17414  0.05000
 O3_6_14  O 1.0  0.17414  0.73854  0.93286  0.05000
 O3_6_15  O 1.0  0.93286  0.17414  0.73854  0.05000
 O3_6_16  O 1.0  0.23854  0.93286  0.32586  0.05000
 O3_6_17  O 1.0  0.67414  0.73854  0.56714  0.05000
 O3_6_18  O 1.0  0.43286  0.17414  0.76146  0.05000
 O3_6_19  O 1.0  0.76146  0.43286  0.17414  0.05000
 O3_6_20  O 1.0  0.32586  0.23854  0.93286  0.05000
 O3_6_21  O 1.0  0.56714  0.67414  0.73854  0.05000
 O3_6_22  O 1.0  0.26146  0.43286  0.32586  0.05000
 O3_6_23  O 1.0  0.82586  0.23854  0.56714  0.05000
 O3_6_24  O 1.0  0.06714  0.67414  0.76146  0.05000
 O3_13  O 1.0  0.26146  0.17414  0.06714  0.05000
 O3_13_2  O 1.0  0.06714  0.26146  0.17414  0.05000
 O3_13_3  O 1.0  0.17414  0.06714  0.26146  0.05000
 O3_13_4  O 1.0  0.76146  0.17414  0.43286  0.05000
 O3_13_5  O 1.0  0.56714  0.26146  0.32586  0.05000
 O3_13_6  O 1.0  0.67414  0.06714  0.23854  0.05000
 O3_13_7  O 1.0  0.23854  0.67414  0.06714  0.05000
 O3_13_8  O 1.0  0.43286  0.76146  0.17414  0.05000
 O3_13_9  O 1.0  0.32586  0.56714  0.26146  0.05000
 O3_13_10  O 1.0  0.73854  0.67414  0.43286  0.05000
 O3_13_11  O 1.0  0.93286  0.76146  0.32586  0.05000
 O3_13_12  O 1.0  0.82586  0.56714  0.23854  0.05000
 O3_13_13  O 1.0  0.73854  0.82586  0.93286  0.05000
 O3_13_14  O 1.0  0.93286  0.73854  0.82586  0.05000
 O3_13_15  O 1.0  0.82586  0.93286  0.73854  0.05000
 O3_13_16  O 1.0  0.23854  0.82586  0.56714  0.05000
 O3_13_17  O 1.0  0.43286  0.73854  0.67414  0.05000
 O3_13_18  O 1.0  0.32586  0.93286  0.76146  0.05000
 O3_13_19  O 1.0  0.76146  0.32586  0.93286  0.05000
 O3_13_20  O 1.0  0.56714  0.23854  0.82586  0.05000
 O3_13_21  O 1.0  0.67414  0.43286  0.73854  0.05000
 O3_13_22  O 1.0  0.26146  0.32586  0.56714  0.05000
 O3_13_23  O 1.0  0.06714  0.23854  0.67414  0.05000
 O3_13_24  O 1.0  0.17414  0.43286  0.76146  0.05000
 O3_16  O 1.0  0.26146  0.17414  0.93286  0.05000
 O3_16_2  O 1.0  0.93286  0.26146  0.17414  0.05000
 O3_16_3  O 1.0  0.17414  0.93286  0.26146  0.05000
 O3_16_4  O 1.0  0.76146  0.17414  0.56714  0.05000
 O3_16_5  O 1.0  0.43286  0.26146  0.32586  0.05000
 O3_16_6  O 1.0  0.67414  0.93286  0.23854  0.05000
 O3_16_7  O 1.0  0.23854  0.67414  0.93286  0.05000
 O3_16_8  O 1.0  0.56714  0.76146  0.17414  0.05000
 O3_16_9  O 1.0  0.32586  0.43286  0.26146  0.05000
 O3_16_10  O 1.0  0.73854  0.67414  0.56714  0.05000
 O3_16_11  O 1.0  0.06714  0.76146  0.32586  0.05000
 O3_16_12  O 1.0  0.82586  0.43286  0.23854  0.05000
 O3_16_13  O 1.0  0.73854  0.82586  0.06714  0.05000
 O3_16_14  O 1.0  0.06714  0.73854  0.82586  0.05000
 O3_16_15  O 1.0  0.82586  0.06714  0.73854  0.05000
 O3_16_16  O 1.0  0.23854  0.82586  0.43286  0.05000
 O3_16_17  O 1.0  0.56714  0.73854  0.67414  0.05000
 O3_16_18  O 1.0  0.32586  0.06714  0.76146  0.05000
 O3_16_19  O 1.0  0.76146  0.32586  0.06714  0.05000
 O3_16_20  O 1.0  0.43286  0.23854  0.82586  0.05000
 O3_16_21  O 1.0  0.67414  0.56714  0.73854  0.05000
 O3_16_22  O 1.0  0.26146  0.32586  0.43286  0.05000
 O3_16_23  O 1.0  0.93286  0.23854  0.67414  0.05000
 O3_16_24  O 1.0  0.17414  0.56714  0.76146  0.05000
 O3_17  O 1.0  0.17414  0.06714  0.73854  0.05000
 O3_17_2  O 1.0  0.73854  0.17414  0.06714  0.05000
 O3_17_3  O 1.0  0.06714  0.73854  0.17414  0.05000
 O3_17_4  O 1.0  0.67414  0.06714  0.76146  0.05000
 O3_17_5  O 1.0  0.23854  0.17414  0.43286  0.05000
 O3_17_6  O 1.0  0.56714  0.73854  0.32586  0.05000
 O3_17_7  O 1.0  0.32586  0.56714  0.73854  0.05000
 O3_17_8  O 1.0  0.76146  0.67414  0.06714  0.05000
 O3_17_9  O 1.0  0.43286  0.23854  0.17414  0.05000
 O3_17_10  O 1.0  0.82586  0.56714  0.76146  0.05000
 O3_17_11  O 1.0  0.26146  0.67414  0.43286  0.05000
 O3_17_12  O 1.0  0.93286  0.23854  0.32586  0.05000
 O3_17_13  O 1.0  0.82586  0.93286  0.26146  0.05000
 O3_17_14  O 1.0  0.26146  0.82586  0.93286  0.05000
 O3_17_15  O 1.0  0.93286  0.26146  0.82586  0.05000
 O3_17_16  O 1.0  0.32586  0.93286  0.23854  0.05000
 O3_17_17  O 1.0  0.76146  0.82586  0.56714  0.05000
 O3_17_18  O 1.0  0.43286  0.26146  0.67414  0.05000
 O3_17_19  O 1.0  0.67414  0.43286  0.26146  0.05000
 O3_17_20  O 1.0  0.23854  0.32586  0.93286  0.05000
 O3_17_21  O 1.0  0.56714  0.76146  0.82586  0.05000
 O3_17_22  O 1.0  0.17414  0.43286  0.23854  0.05000
 O3_17_23  O 1.0  0.73854  0.32586  0.56714  0.05000
 O3_17_24  O 1.0  0.06714  0.76146  0.67414  0.05000
 O3_18  O 1.0  0.06714  0.26146  0.82586  0.05000
 O3_18_2  O 1.0  0.82586  0.06714  0.26146  0.05000
 O3_18_3  O 1.0  0.26146  0.82586  0.06714  0.05000
 O3_18_4  O 1.0  0.56714  0.26146  0.67414  0.05000
 O3_18_5  O 1.0  0.32586  0.06714  0.23854  0.05000
 O3_18_6  O 1.0  0.76146  0.82586  0.43286  0.05000
 O3_18_7  O 1.0  0.43286  0.76146  0.82586  0.05000
 O3_18_8  O 1.0  0.67414  0.56714  0.26146  0.05000
 O3_18_9  O 1.0  0.23854  0.32586  0.06714  0.05000
 O3_18_10  O 1.0  0.93286  0.76146  0.67414  0.05000
 O3_18_11  O 1.0  0.17414  0.56714  0.23854  0.05000
 O3_18_12  O 1.0  0.73854  0.32586  0.43286  0.05000
 O3_18_13  O 1.0  0.93286  0.73854  0.17414  0.05000
 O3_18_14  O 1.0  0.17414  0.93286  0.73854  0.05000
 O3_18_15  O 1.0  0.73854  0.17414  0.93286  0.05000
 O3_18_16  O 1.0  0.43286  0.73854  0.32586  0.05000
 O3_18_17  O 1.0  0.67414  0.93286  0.76146  0.05000
 O3_18_18  O 1.0  0.23854  0.17414  0.56714  0.05000
 O3_18_19  O 1.0  0.56714  0.23854  0.17414  0.05000
 O3_18_20  O 1.0  0.32586  0.43286  0.73854  0.05000
 O3_18_21  O 1.0  0.76146  0.67414  0.93286  0.05000
 O3_18_22  O 1.0  0.06714  0.23854  0.32586  0.05000
 O3_18_23  O 1.0  0.82586  0.43286  0.76146  0.05000
 O3_18_24  O 1.0  0.26146  0.67414  0.56714  0.05000
 O4_4  O 1.0  0.21179  0.16455  0.9636  0.05000
 O4_4_2  O 1.0  0.9636  0.21179  0.16455  0.05000
 O4_4_3  O 1.0  0.16455  0.9636  0.21179  0.05000
 O4_4_4  O 1.0  0.71179  0.16455  0.5364  0.05000
 O4_4_5  O 1.0  0.4636  0.21179  0.33545  0.05000
 O4_4_6  O 1.0  0.66455  0.9636  0.28821  0.05000
 O4_4_7  O 1.0  0.28821  0.66455  0.9636  0.05000
 O4_4_8  O 1.0  0.5364  0.71179  0.16455  0.05000
 O4_4_9  O 1.0  0.33545  0.4636  0.21179  0.05000
 O4_4_10  O 1.0  0.78821  0.66455  0.5364  0.05000
 O4_4_11  O 1.0  0.0364  0.71179  0.33545  0.05000
 O4_4_12  O 1.0  0.83545  0.4636  0.28821  0.05000
 O4_4_13  O 1.0  0.78821  0.83545  0.0364  0.05000
 O4_4_14  O 1.0  0.0364  0.78821  0.83545  0.05000
 O4_4_15  O 1.0  0.83545  0.0364  0.78821  0.05000
 O4_4_16  O 1.0  0.28821  0.83545  0.4636  0.05000
 O4_4_17  O 1.0  0.5364  0.78821  0.66455  0.05000
 O4_4_18  O 1.0  0.33545  0.0364  0.71179  0.05000
 O4_4_19  O 1.0  0.71179  0.33545  0.0364  0.05000
 O4_4_20  O 1.0  0.4636  0.28821  0.83545  0.05000
 O4_4_21  O 1.0  0.66455  0.5364  0.78821  0.05000
 O4_4_22  O 1.0  0.21179  0.33545  0.4636  0.05000
 O4_4_23  O 1.0  0.9636  0.28821  0.66455  0.05000
 O4_4_24  O 1.0  0.16455  0.5364  0.71179  0.05000
 O4_5  O 1.0  0.0364  0.21179  0.83545  0.05000
 O4_5_2  O 1.0  0.83545  0.0364  0.21179  0.05000
 O4_5_3  O 1.0  0.21179  0.83545  0.0364  0.05000
 O4_5_4  O 1.0  0.5364  0.21179  0.66455  0.05000
 O4_5_5  O 1.0  0.33545  0.0364  0.28821  0.05000
 O4_5_6  O 1.0  0.71179  0.83545  0.4636  0.05000
 O4_5_7  O 1.0  0.4636  0.71179  0.83545  0.05000
 O4_5_8  O 1.0  0.66455  0.5364  0.21179  0.05000
 O4_5_9  O 1.0  0.28821  0.33545  0.0364  0.05000
 O4_5_10  O 1.0  0.9636  0.71179  0.66455  0.05000
 O4_5_11  O 1.0  0.16455  0.5364  0.28821  0.05000
 O4_5_12  O 1.0  0.78821  0.33545  0.4636  0.05000
 O4_5_13  O 1.0  0.9636  0.78821  0.16455  0.05000
 O4_5_14  O 1.0  0.16455  0.9636  0.78821  0.05000
 O4_5_15  O 1.0  0.78821  0.16455  0.9636  0.05000
 O4_5_16  O 1.0  0.4636  0.78821  0.33545  0.05000
 O4_5_17  O 1.0  0.66455  0.9636  0.71179  0.05000
 O4_5_18  O 1.0  0.28821  0.16455  0.5364  0.05000
 O4_5_19  O 1.0  0.5364  0.28821  0.16455  0.05000
 O4_5_20  O 1.0  0.33545  0.4636  0.78821  0.05000
 O4_5_21  O 1.0  0.71179  0.66455  0.9636  0.05000
 O4_5_22  O 1.0  0.0364  0.28821  0.33545  0.05000
 O4_5_23  O 1.0  0.83545  0.4636  0.71179  0.05000
 O4_5_24  O 1.0  0.21179  0.66455  0.5364  0.05000
 O4_6  O 1.0  0.16455  0.0364  0.78821  0.05000
 O4_6_2  O 1.0  0.78821  0.16455  0.0364  0.05000
 O4_6_3  O 1.0  0.0364  0.78821  0.16455  0.05000
 O4_6_4  O 1.0  0.66455  0.0364  0.71179  0.05000
 O4_6_5  O 1.0  0.28821  0.16455  0.4636  0.05000
 O4_6_6  O 1.0  0.5364  0.78821  0.33545  0.05000
 O4_6_7  O 1.0  0.33545  0.5364  0.78821  0.05000
 O4_6_8  O 1.0  0.71179  0.66455  0.0364  0.05000
 O4_6_9  O 1.0  0.4636  0.28821  0.16455  0.05000
 O4_6_10  O 1.0  0.83545  0.5364  0.71179  0.05000
 O4_6_11  O 1.0  0.21179  0.66455  0.4636  0.05000
 O4_6_12  O 1.0  0.9636  0.28821  0.33545  0.05000
 O4_6_13  O 1.0  0.83545  0.9636  0.21179  0.05000
 O4_6_14  O 1.0  0.21179  0.83545  0.9636  0.05000
 O4_6_15  O 1.0  0.9636  0.21179  0.83545  0.05000
 O4_6_16  O 1.0  0.33545  0.9636  0.28821  0.05000
 O4_6_17  O 1.0  0.71179  0.83545  0.5364  0.05000
 O4_6_18  O 1.0  0.4636  0.21179  0.66455  0.05000
 O4_6_19  O 1.0  0.66455  0.4636  0.21179  0.05000
 O4_6_20  O 1.0  0.28821  0.33545  0.9636  0.05000
 O4_6_21  O 1.0  0.5364  0.71179  0.83545  0.05000
 O4_6_22  O 1.0  0.16455  0.4636  0.28821  0.05000
 O4_6_23  O 1.0  0.78821  0.33545  0.5364  0.05000
 O4_6_24  O 1.0  0.0364  0.71179  0.66455  0.05000
 O4_13  O 1.0  0.16455  0.21179  0.0364  0.05000
 O4_13_2  O 1.0  0.0364  0.16455  0.21179  0.05000
 O4_13_3  O 1.0  0.21179  0.0364  0.16455  0.05000
 O4_13_4  O 1.0  0.66455  0.21179  0.4636  0.05000
 O4_13_5  O 1.0  0.5364  0.16455  0.28821  0.05000
 O4_13_6  O 1.0  0.71179  0.0364  0.33545  0.05000
 O4_13_7  O 1.0  0.33545  0.71179  0.0364  0.05000
 O4_13_8  O 1.0  0.4636  0.66455  0.21179  0.05000
 O4_13_9  O 1.0  0.28821  0.5364  0.16455  0.05000
 O4_13_10  O 1.0  0.83545  0.71179  0.4636  0.05000
 O4_13_11  O 1.0  0.9636  0.66455  0.28821  0.05000
 O4_13_12  O 1.0  0.78821  0.5364  0.33545  0.05000
 O4_13_13  O 1.0  0.83545  0.78821  0.9636  0.05000
 O4_13_14  O 1.0  0.9636  0.83545  0.78821  0.05000
 O4_13_15  O 1.0  0.78821  0.9636  0.83545  0.05000
 O4_13_16  O 1.0  0.33545  0.78821  0.5364  0.05000
 O4_13_17  O 1.0  0.4636  0.83545  0.71179  0.05000
 O4_13_18  O 1.0  0.28821  0.9636  0.66455  0.05000
 O4_13_19  O 1.0  0.66455  0.28821  0.9636  0.05000
 O4_13_20  O 1.0  0.5364  0.33545  0.78821  0.05000
 O4_13_21  O 1.0  0.71179  0.4636  0.83545  0.05000
 O4_13_22  O 1.0  0.16455  0.28821  0.5364  0.05000
 O4_13_23  O 1.0  0.0364  0.33545  0.71179  0.05000
 O4_13_24  O 1.0  0.21179  0.4636  0.66455  0.05000
 O4_16  O 1.0  0.16455  0.21179  0.9636  0.05000
 O4_16_2  O 1.0  0.9636  0.16455  0.21179  0.05000
 O4_16_3  O 1.0  0.21179  0.9636  0.16455  0.05000
 O4_16_4  O 1.0  0.66455  0.21179  0.5364  0.05000
 O4_16_5  O 1.0  0.4636  0.16455  0.28821  0.05000
 O4_16_6  O 1.0  0.71179  0.9636  0.33545  0.05000
 O4_16_7  O 1.0  0.33545  0.71179  0.9636  0.05000
 O4_16_8  O 1.0  0.5364  0.66455  0.21179  0.05000
 O4_16_9  O 1.0  0.28821  0.4636  0.16455  0.05000
 O4_16_10  O 1.0  0.83545  0.71179  0.5364  0.05000
 O4_16_11  O 1.0  0.0364  0.66455  0.28821  0.05000
 O4_16_12  O 1.0  0.78821  0.4636  0.33545  0.05000
 O4_16_13  O 1.0  0.83545  0.78821  0.0364  0.05000
 O4_16_14  O 1.0  0.0364  0.83545  0.78821  0.05000
 O4_16_15  O 1.0  0.78821  0.0364  0.83545  0.05000
 O4_16_16  O 1.0  0.33545  0.78821  0.4636  0.05000
 O4_16_17  O 1.0  0.5364  0.83545  0.71179  0.05000
 O4_16_18  O 1.0  0.28821  0.0364  0.66455  0.05000
 O4_16_19  O 1.0  0.66455  0.28821  0.0364  0.05000
 O4_16_20  O 1.0  0.4636  0.33545  0.78821  0.05000
 O4_16_21  O 1.0  0.71179  0.5364  0.83545  0.05000
 O4_16_22  O 1.0  0.16455  0.28821  0.4636  0.05000
 O4_16_23  O 1.0  0.9636  0.33545  0.71179  0.05000
 O4_16_24  O 1.0  0.21179  0.5364  0.66455  0.05000
 O4_17  O 1.0  0.21179  0.0364  0.83545  0.05000
 O4_17_2  O 1.0  0.83545  0.21179  0.0364  0.05000
 O4_17_3  O 1.0  0.0364  0.83545  0.21179  0.05000
 O4_17_4  O 1.0  0.71179  0.0364  0.66455  0.05000
 O4_17_5  O 1.0  0.33545  0.21179  0.4636  0.05000
 O4_17_6  O 1.0  0.5364  0.83545  0.28821  0.05000
 O4_17_7  O 1.0  0.28821  0.5364  0.83545  0.05000
 O4_17_8  O 1.0  0.66455  0.71179  0.0364  0.05000
 O4_17_9  O 1.0  0.4636  0.33545  0.21179  0.05000
 O4_17_10  O 1.0  0.78821  0.5364  0.66455  0.05000
 O4_17_11  O 1.0  0.16455  0.71179  0.4636  0.05000
 O4_17_12  O 1.0  0.9636  0.33545  0.28821  0.05000
 O4_17_13  O 1.0  0.78821  0.9636  0.16455  0.05000
 O4_17_14  O 1.0  0.16455  0.78821  0.9636  0.05000
 O4_17_15  O 1.0  0.9636  0.16455  0.78821  0.05000
 O4_17_16  O 1.0  0.28821  0.9636  0.33545  0.05000
 O4_17_17  O 1.0  0.66455  0.78821  0.5364  0.05000
 O4_17_18  O 1.0  0.4636  0.16455  0.71179  0.05000
 O4_17_19  O 1.0  0.71179  0.4636  0.16455  0.05000
 O4_17_20  O 1.0  0.33545  0.28821  0.9636  0.05000
 O4_17_21  O 1.0  0.5364  0.66455  0.78821  0.05000
 O4_17_22  O 1.0  0.21179  0.4636  0.33545  0.05000
 O4_17_23  O 1.0  0.83545  0.28821  0.5364  0.05000
 O4_17_24  O 1.0  0.0364  0.66455  0.71179  0.05000
 O4_18  O 1.0  0.0364  0.16455  0.78821  0.05000
 O4_18_2  O 1.0  0.78821  0.0364  0.16455  0.05000
 O4_18_3  O 1.0  0.16455  0.78821  0.0364  0.05000
 O4_18_4  O 1.0  0.5364  0.16455  0.71179  0.05000
 O4_18_5  O 1.0  0.28821  0.0364  0.33545  0.05000
 O4_18_6  O 1.0  0.66455  0.78821  0.4636  0.05000
 O4_18_7  O 1.0  0.4636  0.66455  0.78821  0.05000
 O4_18_8  O 1.0  0.71179  0.5364  0.16455  0.05000
 O4_18_9  O 1.0  0.33545  0.28821  0.0364  0.05000
 O4_18_10  O 1.0  0.9636  0.66455  0.71179  0.05000
 O4_18_11  O 1.0  0.21179  0.5364  0.33545  0.05000
 O4_18_12  O 1.0  0.83545  0.28821  0.4636  0.05000
 O4_18_13  O 1.0  0.9636  0.83545  0.21179  0.05000
 O4_18_14  O 1.0  0.21179  0.9636  0.83545  0.05000
 O4_18_15  O 1.0  0.83545  0.21179  0.9636  0.05000
 O4_18_16  O 1.0  0.4636  0.83545  0.28821  0.05000
 O4_18_17  O 1.0  0.71179  0.9636  0.66455  0.05000
 O4_18_18  O 1.0  0.33545  0.21179  0.5364  0.05000
 O4_18_19  O 1.0  0.5364  0.33545  0.21179  0.05000
 O4_18_20  O 1.0  0.28821  0.4636  0.83545  0.05000
 O4_18_21  O 1.0  0.66455  0.71179  0.9636  0.05000
 O4_18_22  O 1.0  0.0364  0.33545  0.28821  0.05000
 O4_18_23  O 1.0  0.78821  0.4636  0.66455  0.05000
 O4_18_24  O 1.0  0.16455  0.71179  0.5364  0.05000
 O5_4  O 1.0  0.18204  0.31796  0.97047  0.05000
 O5_4_2  O 1.0  0.97047  0.18204  0.31796  0.05000
 O5_4_3  O 1.0  0.31796  0.97047  0.18204  0.05000
 O5_4_4  O 1.0  0.68204  0.31796  0.52953  0.05000
 O5_4_5  O 1.0  0.47047  0.18204  0.18204  0.05000
 O5_4_6  O 1.0  0.81796  0.97047  0.31796  0.05000
 O5_4_7  O 1.0  0.31796  0.81796  0.97047  0.05000
 O5_4_8  O 1.0  0.52953  0.68204  0.31796  0.05000
 O5_4_9  O 1.0  0.18204  0.47047  0.18204  0.05000
 O5_4_10  O 1.0  0.81796  0.81796  0.52953  0.05000
 O5_4_11  O 1.0  0.02953  0.68204  0.18204  0.05000
 O5_4_12  O 1.0  0.68204  0.47047  0.31796  0.05000
 O5_4_13  O 1.0  0.81796  0.68204  0.02953  0.05000
 O5_4_14  O 1.0  0.02953  0.81796  0.68204  0.05000
 O5_4_15  O 1.0  0.68204  0.02953  0.81796  0.05000
 O5_4_16  O 1.0  0.31796  0.68204  0.47047  0.05000
 O5_4_17  O 1.0  0.52953  0.81796  0.81796  0.05000
 O5_4_18  O 1.0  0.18204  0.02953  0.68204  0.05000
 O5_4_19  O 1.0  0.68204  0.18204  0.02953  0.05000
 O5_4_20  O 1.0  0.47047  0.31796  0.68204  0.05000
 O5_4_21  O 1.0  0.81796  0.52953  0.81796  0.05000
 O5_4_22  O 1.0  0.18204  0.18204  0.47047  0.05000
 O5_4_23  O 1.0  0.97047  0.31796  0.81796  0.05000
 O5_4_24  O 1.0  0.31796  0.52953  0.68204  0.05000
 O5_5  O 1.0  0.02953  0.18204  0.68204  0.05000
 O5_5_2  O 1.0  0.68204  0.02953  0.18204  0.05000
 O5_5_3  O 1.0  0.18204  0.68204  0.02953  0.05000
 O5_5_4  O 1.0  0.52953  0.18204  0.81796  0.05000
 O5_5_5  O 1.0  0.18204  0.02953  0.31796  0.05000
 O5_5_6  O 1.0  0.68204  0.68204  0.47047  0.05000
 O5_5_7  O 1.0  0.47047  0.68204  0.68204  0.05000
 O5_5_8  O 1.0  0.81796  0.52953  0.18204  0.05000
 O5_5_9  O 1.0  0.31796  0.18204  0.02953  0.05000
 O5_5_10  O 1.0  0.97047  0.68204  0.81796  0.05000
 O5_5_11  O 1.0  0.31796  0.52953  0.31796  0.05000
 O5_5_12  O 1.0  0.81796  0.18204  0.47047  0.05000
 O5_5_13  O 1.0  0.97047  0.81796  0.31796  0.05000
 O5_5_14  O 1.0  0.31796  0.97047  0.81796  0.05000
 O5_5_15  O 1.0  0.81796  0.31796  0.97047  0.05000
 O5_5_16  O 1.0  0.47047  0.81796  0.18204  0.05000
 O5_5_17  O 1.0  0.81796  0.97047  0.68204  0.05000
 O5_5_18  O 1.0  0.31796  0.31796  0.52953  0.05000
 O5_5_19  O 1.0  0.52953  0.31796  0.31796  0.05000
 O5_5_20  O 1.0  0.18204  0.47047  0.81796  0.05000
 O5_5_21  O 1.0  0.68204  0.81796  0.97047  0.05000
 O5_5_22  O 1.0  0.02953  0.31796  0.18204  0.05000
 O5_5_23  O 1.0  0.68204  0.47047  0.68204  0.05000
 O5_5_24  O 1.0  0.18204  0.81796  0.52953  0.05000
 O5_6  O 1.0  0.31796  0.02953  0.81796  0.05000
 O5_6_2  O 1.0  0.81796  0.31796  0.02953  0.05000
 O5_6_3  O 1.0  0.02953  0.81796  0.31796  0.05000
 O5_6_4  O 1.0  0.81796  0.02953  0.68204  0.05000
 O5_6_5  O 1.0  0.31796  0.31796  0.47047  0.05000
 O5_6_6  O 1.0  0.52953  0.81796  0.18204  0.05000
 O5_6_7  O 1.0  0.18204  0.52953  0.81796  0.05000
 O5_6_8  O 1.0  0.68204  0.81796  0.02953  0.05000
 O5_6_9  O 1.0  0.47047  0.31796  0.31796  0.05000
 O5_6_10  O 1.0  0.68204  0.52953  0.68204  0.05000
 O5_6_11  O 1.0  0.18204  0.81796  0.47047  0.05000
 O5_6_12  O 1.0  0.97047  0.31796  0.18204  0.05000
 O5_6_13  O 1.0  0.68204  0.97047  0.18204  0.05000
 O5_6_14  O 1.0  0.18204  0.68204  0.97047  0.05000
 O5_6_15  O 1.0  0.97047  0.18204  0.68204  0.05000
 O5_6_16  O 1.0  0.18204  0.97047  0.31796  0.05000
 O5_6_17  O 1.0  0.68204  0.68204  0.52953  0.05000
 O5_6_18  O 1.0  0.47047  0.18204  0.81796  0.05000
 O5_6_19  O 1.0  0.81796  0.47047  0.18204  0.05000
 O5_6_20  O 1.0  0.31796  0.18204  0.97047  0.05000
 O5_6_21  O 1.0  0.52953  0.68204  0.68204  0.05000
 O5_6_22  O 1.0  0.31796  0.47047  0.31796  0.05000
 O5_6_23  O 1.0  0.81796  0.18204  0.52953  0.05000
 O5_6_24  O 1.0  0.02953  0.68204  0.81796  0.05000
 O6_4  O 1.0  0.22909  0.27091  0.90038  0.05000
 O6_4_2  O 1.0  0.90038  0.22909  0.27091  0.05000
 O6_4_3  O 1.0  0.27091  0.90038  0.22909  0.05000
 O6_4_4  O 1.0  0.72909  0.27091  0.59962  0.05000
 O6_4_5  O 1.0  0.40038  0.22909  0.22909  0.05000
 O6_4_6  O 1.0  0.77091  0.90038  0.27091  0.05000
 O6_4_7  O 1.0  0.27091  0.77091  0.90038  0.05000
 O6_4_8  O 1.0  0.59962  0.72909  0.27091  0.05000
 O6_4_9  O 1.0  0.22909  0.40038  0.22909  0.05000
 O6_4_10  O 1.0  0.77091  0.77091  0.59962  0.05000
 O6_4_11  O 1.0  0.09962  0.72909  0.22909  0.05000
 O6_4_12  O 1.0  0.72909  0.40038  0.27091  0.05000
 O6_4_13  O 1.0  0.77091  0.72909  0.09962  0.05000
 O6_4_14  O 1.0  0.09962  0.77091  0.72909  0.05000
 O6_4_15  O 1.0  0.72909  0.09962  0.77091  0.05000
 O6_4_16  O 1.0  0.27091  0.72909  0.40038  0.05000
 O6_4_17  O 1.0  0.59962  0.77091  0.77091  0.05000
 O6_4_18  O 1.0  0.22909  0.09962  0.72909  0.05000
 O6_4_19  O 1.0  0.72909  0.22909  0.09962  0.05000
 O6_4_20  O 1.0  0.40038  0.27091  0.72909  0.05000
 O6_4_21  O 1.0  0.77091  0.59962  0.77091  0.05000
 O6_4_22  O 1.0  0.22909  0.22909  0.40038  0.05000
 O6_4_23  O 1.0  0.90038  0.27091  0.77091  0.05000
 O6_4_24  O 1.0  0.27091  0.59962  0.72909  0.05000
 O6_5  O 1.0  0.09962  0.22909  0.72909  0.05000
 O6_5_2  O 1.0  0.72909  0.09962  0.22909  0.05000
 O6_5_3  O 1.0  0.22909  0.72909  0.09962  0.05000
 O6_5_4  O 1.0  0.59962  0.22909  0.77091  0.05000
 O6_5_5  O 1.0  0.22909  0.09962  0.27091  0.05000
 O6_5_6  O 1.0  0.72909  0.72909  0.40038  0.05000
 O6_5_7  O 1.0  0.40038  0.72909  0.72909  0.05000
 O6_5_8  O 1.0  0.77091  0.59962  0.22909  0.05000
 O6_5_9  O 1.0  0.27091  0.22909  0.09962  0.05000
 O6_5_10  O 1.0  0.90038  0.72909  0.77091  0.05000
 O6_5_11  O 1.0  0.27091  0.59962  0.27091  0.05000
 O6_5_12  O 1.0  0.77091  0.22909  0.40038  0.05000
 O6_5_13  O 1.0  0.90038  0.77091  0.27091  0.05000
 O6_5_14  O 1.0  0.27091  0.90038  0.77091  0.05000
 O6_5_15  O 1.0  0.77091  0.27091  0.90038  0.05000
 O6_5_16  O 1.0  0.40038  0.77091  0.22909  0.05000
 O6_5_17  O 1.0  0.77091  0.90038  0.72909  0.05000
 O6_5_18  O 1.0  0.27091  0.27091  0.59962  0.05000
 O6_5_19  O 1.0  0.59962  0.27091  0.27091  0.05000
 O6_5_20  O 1.0  0.22909  0.40038  0.77091  0.05000
 O6_5_21  O 1.0  0.72909  0.77091  0.90038  0.05000
 O6_5_22  O 1.0  0.09962  0.27091  0.22909  0.05000
 O6_5_23  O 1.0  0.72909  0.40038  0.72909  0.05000
 O6_5_24  O 1.0  0.22909  0.77091  0.59962  0.05000
 O6_6  O 1.0  0.27091  0.09962  0.77091  0.05000
 O6_6_2  O 1.0  0.77091  0.27091  0.09962  0.05000
 O6_6_3  O 1.0  0.09962  0.77091  0.27091  0.05000
 O6_6_4  O 1.0  0.77091  0.09962  0.72909  0.05000
 O6_6_5  O 1.0  0.27091  0.27091  0.40038  0.05000
 O6_6_6  O 1.0  0.59962  0.77091  0.22909  0.05000
 O6_6_7  O 1.0  0.22909  0.59962  0.77091  0.05000
 O6_6_8  O 1.0  0.72909  0.77091  0.09962  0.05000
 O6_6_9  O 1.0  0.40038  0.27091  0.27091  0.05000
 O6_6_10  O 1.0  0.72909  0.59962  0.72909  0.05000
 O6_6_11  O 1.0  0.22909  0.77091  0.40038  0.05000
 O6_6_12  O 1.0  0.90038  0.27091  0.22909  0.05000
 O6_6_13  O 1.0  0.72909  0.90038  0.22909  0.05000
 O6_6_14  O 1.0  0.22909  0.72909  0.90038  0.05000
 O6_6_15  O 1.0  0.90038  0.22909  0.72909  0.05000
 O6_6_16  O 1.0  0.22909  0.90038  0.27091  0.05000
 O6_6_17  O 1.0  0.72909  0.72909  0.59962  0.05000
 O6_6_18  O 1.0  0.40038  0.22909  0.77091  0.05000
 O6_6_19  O 1.0  0.77091  0.40038  0.22909  0.05000
 O6_6_20  O 1.0  0.27091  0.22909  0.90038  0.05000
 O6_6_21  O 1.0  0.59962  0.72909  0.72909  0.05000
 O6_6_22  O 1.0  0.27091  0.40038  0.27091  0.05000
 O6_6_23  O 1.0  0.77091  0.22909  0.59962  0.05000
 O6_6_24  O 1.0  0.09962  0.72909  0.77091  0.05000
 S1  S 1.0  0.25291  0.11736  0.11736  0.05000
 S1_2  S 1.0  0.11736  0.25291  0.11736  0.05000
 S1_3  S 1.0  0.11736  0.11736  0.25291  0.05000
 S1_4  S 1.0  0.75291  0.11736  0.38264  0.05000
 S1_5  S 1.0  0.61736  0.25291  0.38264  0.05000
 S1_6  S 1.0  0.61736  0.11736  0.24709  0.05000
 S1_7  S 1.0  0.24709  0.61736  0.11736  0.05000
 S1_8  S 1.0  0.38264  0.75291  0.11736  0.05000
 S1_9  S 1.0  0.38264  0.61736  0.25291  0.05000
 S1_10  S 1.0  0.74709  0.61736  0.38264  0.05000
 S1_11  S 1.0  0.88264  0.75291  0.38264  0.05000
 S1_12  S 1.0  0.88264  0.61736  0.24709  0.05000
 S1_13  S 1.0  0.74709  0.88264  0.88264  0.05000
 S1_14  S 1.0  0.88264  0.74709  0.88264  0.05000
 S1_15  S 1.0  0.88264  0.88264  0.74709  0.05000
 S1_16  S 1.0  0.24709  0.88264  0.61736  0.05000
 S1_17  S 1.0  0.38264  0.74709  0.61736  0.05000
 S1_18  S 1.0  0.38264  0.88264  0.75291  0.05000
 S1_19  S 1.0  0.75291  0.38264  0.88264  0.05000
 S1_20  S 1.0  0.61736  0.24709  0.88264  0.05000
 S1_21  S 1.0  0.61736  0.38264  0.74709  0.05000
 S1_22  S 1.0  0.25291  0.38264  0.61736  0.05000
 S1_23  S 1.0  0.11736  0.24709  0.61736  0.05000
 S1_24  S 1.0  0.11736  0.38264  0.75291  0.05000
 S1_4  S 1.0  0.25291  0.11736  0.88264  0.05000
 S1_4_2  S 1.0  0.88264  0.25291  0.11736  0.05000
 S1_4_3  S 1.0  0.11736  0.88264  0.25291  0.05000
 S1_4_4  S 1.0  0.75291  0.11736  0.61736  0.05000
 S1_4_5  S 1.0  0.38264  0.25291  0.38264  0.05000
 S1_4_6  S 1.0  0.61736  0.88264  0.24709  0.05000
 S1_4_7  S 1.0  0.24709  0.61736  0.88264  0.05000
 S1_4_8  S 1.0  0.61736  0.75291  0.11736  0.05000
 S1_4_9  S 1.0  0.38264  0.38264  0.25291  0.05000
 S1_4_10  S 1.0  0.74709  0.61736  0.61736  0.05000
 S1_4_11  S 1.0  0.11736  0.75291  0.38264  0.05000
 S1_4_12  S 1.0  0.88264  0.38264  0.24709  0.05000
 S1_4_13  S 1.0  0.74709  0.88264  0.11736  0.05000
 S1_4_14  S 1.0  0.11736  0.74709  0.88264  0.05000
 S1_4_15  S 1.0  0.88264  0.11736  0.74709  0.05000
 S1_4_16  S 1.0  0.24709  0.88264  0.38264  0.05000
 S1_4_17  S 1.0  0.61736  0.74709  0.61736  0.05000
 S1_4_18  S 1.0  0.38264  0.11736  0.75291  0.05000
 S1_4_19  S 1.0  0.75291  0.38264  0.11736  0.05000
 S1_4_20  S 1.0  0.38264  0.24709  0.88264  0.05000
 S1_4_21  S 1.0  0.61736  0.61736  0.74709  0.05000
 S1_4_22  S 1.0  0.25291  0.38264  0.38264  0.05000
 S1_4_23  S 1.0  0.88264  0.24709  0.61736  0.05000
 S1_4_24  S 1.0  0.11736  0.61736  0.75291  0.05000
 S1_5  S 1.0  0.11736  0.25291  0.88264  0.05000
 S1_5_2  S 1.0  0.88264  0.11736  0.25291  0.05000
 S1_5_3  S 1.0  0.25291  0.88264  0.11736  0.05000
 S1_5_4  S 1.0  0.61736  0.25291  0.61736  0.05000
 S1_5_5  S 1.0  0.38264  0.11736  0.24709  0.05000
 S1_5_6  S 1.0  0.75291  0.88264  0.38264  0.05000
 S1_5_7  S 1.0  0.38264  0.75291  0.88264  0.05000
 S1_5_8  S 1.0  0.61736  0.61736  0.25291  0.05000
 S1_5_9  S 1.0  0.24709  0.38264  0.11736  0.05000
 S1_5_10  S 1.0  0.88264  0.75291  0.61736  0.05000
 S1_5_11  S 1.0  0.11736  0.61736  0.24709  0.05000
 S1_5_12  S 1.0  0.74709  0.38264  0.38264  0.05000
 S1_5_13  S 1.0  0.88264  0.74709  0.11736  0.05000
 S1_5_14  S 1.0  0.11736  0.88264  0.74709  0.05000
 S1_5_15  S 1.0  0.74709  0.11736  0.88264  0.05000
 S1_5_16  S 1.0  0.38264  0.74709  0.38264  0.05000
 S1_5_17  S 1.0  0.61736  0.88264  0.75291  0.05000
 S1_5_18  S 1.0  0.24709  0.11736  0.61736  0.05000
 S1_5_19  S 1.0  0.61736  0.24709  0.11736  0.05000
 S1_5_20  S 1.0  0.38264  0.38264  0.74709  0.05000
 S1_5_21  S 1.0  0.75291  0.61736  0.88264  0.05000
 S1_5_22  S 1.0  0.11736  0.24709  0.38264  0.05000
 S1_5_23  S 1.0  0.88264  0.38264  0.75291  0.05000
 S1_5_24  S 1.0  0.25291  0.61736  0.61736  0.05000
 S1_6  S 1.0  0.11736  0.11736  0.74709  0.05000
 S1_6_2  S 1.0  0.74709  0.11736  0.11736  0.05000
 S1_6_3  S 1.0  0.11736  0.74709  0.11736  0.05000
 S1_6_4  S 1.0  0.61736  0.11736  0.75291  0.05000
 S1_6_5  S 1.0  0.24709  0.11736  0.38264  0.05000
 S1_6_6  S 1.0  0.61736  0.74709  0.38264  0.05000
 S1_6_7  S 1.0  0.38264  0.61736  0.74709  0.05000
 S1_6_8  S 1.0  0.75291  0.61736  0.11736  0.05000
 S1_6_9  S 1.0  0.38264  0.24709  0.11736  0.05000
 S1_6_10  S 1.0  0.88264  0.61736  0.75291  0.05000
 S1_6_11  S 1.0  0.25291  0.61736  0.38264  0.05000
 S1_6_12  S 1.0  0.88264  0.24709  0.38264  0.05000
 S1_6_13  S 1.0  0.88264  0.88264  0.25291  0.05000
 S1_6_14  S 1.0  0.25291  0.88264  0.88264  0.05000
 S1_6_15  S 1.0  0.88264  0.25291  0.88264  0.05000
 S1_6_16  S 1.0  0.38264  0.88264  0.24709  0.05000
 S1_6_17  S 1.0  0.75291  0.88264  0.61736  0.05000
 S1_6_18  S 1.0  0.38264  0.25291  0.61736  0.05000
 S1_6_19  S 1.0  0.61736  0.38264  0.25291  0.05000
 S1_6_20  S 1.0  0.24709  0.38264  0.88264  0.05000
 S1_6_21  S 1.0  0.61736  0.75291  0.88264  0.05000
 S1_6_22  S 1.0  0.11736  0.38264  0.24709  0.05000
 S1_6_23  S 1.0  0.74709  0.38264  0.61736  0.05000
 S1_6_24  S 1.0  0.11736  0.75291  0.61736  0.05000
 Zr1  Zr 1.0  0.20673  0.20673  0.0  0.05000
 Zr1_2  Zr 1.0  0.0  0.20673  0.20673  0.05000
 Zr1_3  Zr 1.0  0.20673  0.0  0.20673  0.05000
 Zr1_4  Zr 1.0  0.70673  0.20673  0.5  0.05000
 Zr1_5  Zr 1.0  0.5  0.20673  0.29327  0.05000
 Zr1_6  Zr 1.0  0.70673  0.0  0.29327  0.05000
 Zr1_7  Zr 1.0  0.29327  0.70673  0.0  0.05000
 Zr1_8  Zr 1.0  0.5  0.70673  0.20673  0.05000
 Zr1_9  Zr 1.0  0.29327  0.5  0.20673  0.05000
 Zr1_10  Zr 1.0  0.79327  0.70673  0.5  0.05000
 Zr1_11  Zr 1.0  0.0  0.70673  0.29327  0.05000
 Zr1_12  Zr 1.0  0.79327  0.5  0.29327  0.05000
 Zr1_13  Zr 1.0  0.79327  0.79327  0.0  0.05000
 Zr1_14  Zr 1.0  0.0  0.79327  0.79327  0.05000
 Zr1_15  Zr 1.0  0.79327  0.0  0.79327  0.05000
 Zr1_16  Zr 1.0  0.29327  0.79327  0.5  0.05000
 Zr1_17  Zr 1.0  0.5  0.79327  0.70673  0.05000
 Zr1_18  Zr 1.0  0.29327  0.0  0.70673  0.05000
 Zr1_19  Zr 1.0  0.70673  0.29327  0.0  0.05000
 Zr1_20  Zr 1.0  0.5  0.29327  0.79327  0.05000
 Zr1_21  Zr 1.0  0.70673  0.5  0.79327  0.05000
 Zr1_22  Zr 1.0  0.20673  0.29327  0.5  0.05000
 Zr1_23  Zr 1.0  0.0  0.29327  0.70673  0.05000
 Zr1_24  Zr 1.0  0.20673  0.5  0.70673  0.05000
 Zr2  Zr 1.0  0.21931  0.28069  0.04459  0.05000
 Zr2_2  Zr 1.0  0.04459  0.21931  0.28069  0.05000
 Zr2_3  Zr 1.0  0.28069  0.04459  0.21931  0.05000
 Zr2_4  Zr 1.0  0.71931  0.28069  0.45541  0.05000
 Zr2_5  Zr 1.0  0.54459  0.21931  0.21931  0.05000
 Zr2_6  Zr 1.0  0.78069  0.04459  0.28069  0.05000
 Zr2_7  Zr 1.0  0.28069  0.78069  0.04459  0.05000
 Zr2_8  Zr 1.0  0.45541  0.71931  0.28069  0.05000
 Zr2_9  Zr 1.0  0.21931  0.54459  0.21931  0.05000
 Zr2_10  Zr 1.0  0.78069  0.78069  0.45541  0.05000
 Zr2_11  Zr 1.0  0.95541  0.71931  0.21931  0.05000
 Zr2_12  Zr 1.0  0.71931  0.54459  0.28069  0.05000
 Zr2_13  Zr 1.0  0.78069  0.71931  0.95541  0.05000
 Zr2_14  Zr 1.0  0.95541  0.78069  0.71931  0.05000
 Zr2_15  Zr 1.0  0.71931  0.95541  0.78069  0.05000
 Zr2_16  Zr 1.0  0.28069  0.71931  0.54459  0.05000
 Zr2_17  Zr 1.0  0.45541  0.78069  0.78069  0.05000
 Zr2_18  Zr 1.0  0.21931  0.95541  0.71931  0.05000
 Zr2_19  Zr 1.0  0.71931  0.21931  0.95541  0.05000
 Zr2_20  Zr 1.0  0.54459  0.28069  0.71931  0.05000
 Zr2_21  Zr 1.0  0.78069  0.45541  0.78069  0.05000
 Zr2_22  Zr 1.0  0.21931  0.21931  0.54459  0.05000
 Zr2_23  Zr 1.0  0.04459  0.28069  0.78069  0.05000
 Zr2_24  Zr 1.0  0.28069  0.45541  0.71931  0.05000
 Zr1_4  Zr 1.0  0.0  0.20673  0.79327  0.05000
 Zr1_4_2  Zr 1.0  0.79327  0.0  0.20673  0.05000
 Zr1_4_3  Zr 1.0  0.20673  0.79327  0.0  0.05000
 Zr1_4_4  Zr 1.0  0.5  0.20673  0.70673  0.05000
 Zr1_4_5  Zr 1.0  0.29327  0.0  0.29327  0.05000
 Zr1_4_6  Zr 1.0  0.70673  0.79327  0.5  0.05000
 Zr1_4_7  Zr 1.0  0.5  0.70673  0.79327  0.05000
 Zr1_4_8  Zr 1.0  0.70673  0.5  0.20673  0.05000
 Zr1_4_9  Zr 1.0  0.29327  0.29327  0.0  0.05000
 Zr1_4_10  Zr 1.0  0.0  0.70673  0.70673  0.05000
 Zr1_4_11  Zr 1.0  0.20673  0.5  0.29327  0.05000
 Zr1_4_12  Zr 1.0  0.79327  0.29327  0.5  0.05000
 Zr1_4_13  Zr 1.0  0.0  0.79327  0.20673  0.05000
 Zr1_4_14  Zr 1.0  0.20673  0.0  0.79327  0.05000
 Zr1_4_15  Zr 1.0  0.79327  0.20673  0.0  0.05000
 Zr1_4_16  Zr 1.0  0.5  0.79327  0.29327  0.05000
 Zr1_4_17  Zr 1.0  0.70673  0.0  0.70673  0.05000
 Zr1_4_18  Zr 1.0  0.29327  0.20673  0.5  0.05000
 Zr1_4_19  Zr 1.0  0.5  0.29327  0.20673  0.05000
 Zr1_4_20  Zr 1.0  0.29327  0.5  0.79327  0.05000
 Zr1_4_21  Zr 1.0  0.70673  0.70673  0.0  0.05000
 Zr1_4_22  Zr 1.0  0.0  0.29327  0.29327  0.05000
 Zr1_4_23  Zr 1.0  0.79327  0.5  0.70673  0.05000
 Zr1_4_24  Zr 1.0  0.20673  0.70673  0.5  0.05000
 Zr2_4  Zr 1.0  0.21931  0.28069  0.95541  0.05000
 Zr2_4_2  Zr 1.0  0.95541  0.21931  0.28069  0.05000
 Zr2_4_3  Zr 1.0  0.28069  0.95541  0.21931  0.05000
 Zr2_4_4  Zr 1.0  0.71931  0.28069  0.54459  0.05000
 Zr2_4_5  Zr 1.0  0.45541  0.21931  0.21931  0.05000
 Zr2_4_6  Zr 1.0  0.78069  0.95541  0.28069  0.05000
 Zr2_4_7  Zr 1.0  0.28069  0.78069  0.95541  0.05000
 Zr2_4_8  Zr 1.0  0.54459  0.71931  0.28069  0.05000
 Zr2_4_9  Zr 1.0  0.21931  0.45541  0.21931  0.05000
 Zr2_4_10  Zr 1.0  0.78069  0.78069  0.54459  0.05000
 Zr2_4_11  Zr 1.0  0.04459  0.71931  0.21931  0.05000
 Zr2_4_12  Zr 1.0  0.71931  0.45541  0.28069  0.05000
 Zr2_4_13  Zr 1.0  0.78069  0.71931  0.04459  0.05000
 Zr2_4_14  Zr 1.0  0.04459  0.78069  0.71931  0.05000
 Zr2_4_15  Zr 1.0  0.71931  0.04459  0.78069  0.05000
 Zr2_4_16  Zr 1.0  0.28069  0.71931  0.45541  0.05000
 Zr2_4_17  Zr 1.0  0.54459  0.78069  0.78069  0.05000
 Zr2_4_18  Zr 1.0  0.21931  0.04459  0.71931  0.05000
 Zr2_4_19  Zr 1.0  0.71931  0.21931  0.04459  0.05000
 Zr2_4_20  Zr 1.0  0.45541  0.28069  0.71931  0.05000
 Zr2_4_21  Zr 1.0  0.78069  0.54459  0.78069  0.05000
 Zr2_4_22  Zr 1.0  0.21931  0.21931  0.45541  0.05000
 Zr2_4_23  Zr 1.0  0.95541  0.28069  0.78069  0.05000
 Zr2_4_24  Zr 1.0  0.28069  0.54459  0.71931  0.05000
 Zr2_5  Zr 1.0  0.04459  0.21931  0.71931  0.05000
 Zr2_5_2  Zr 1.0  0.71931  0.04459  0.21931  0.05000
 Zr2_5_3  Zr 1.0  0.21931  0.71931  0.04459  0.05000
 Zr2_5_4  Zr 1.0  0.54459  0.21931  0.78069  0.05000
 Zr2_5_5  Zr 1.0  0.21931  0.04459  0.28069  0.05000
 Zr2_5_6  Zr 1.0  0.71931  0.71931  0.45541  0.05000
 Zr2_5_7  Zr 1.0  0.45541  0.71931  0.71931  0.05000
 Zr2_5_8  Zr 1.0  0.78069  0.54459  0.21931  0.05000
 Zr2_5_9  Zr 1.0  0.28069  0.21931  0.04459  0.05000
 Zr2_5_10  Zr 1.0  0.95541  0.71931  0.78069  0.05000
 Zr2_5_11  Zr 1.0  0.28069  0.54459  0.28069  0.05000
 Zr2_5_12  Zr 1.0  0.78069  0.21931  0.45541  0.05000
 Zr2_5_13  Zr 1.0  0.95541  0.78069  0.28069  0.05000
 Zr2_5_14  Zr 1.0  0.28069  0.95541  0.78069  0.05000
 Zr2_5_15  Zr 1.0  0.78069  0.28069  0.95541  0.05000
 Zr2_5_16  Zr 1.0  0.45541  0.78069  0.21931  0.05000
 Zr2_5_17  Zr 1.0  0.78069  0.95541  0.71931  0.05000
 Zr2_5_18  Zr 1.0  0.28069  0.28069  0.54459  0.05000
 Zr2_5_19  Zr 1.0  0.54459  0.28069  0.28069  0.05000
 Zr2_5_20  Zr 1.0  0.21931  0.45541  0.78069  0.05000
 Zr2_5_21  Zr 1.0  0.71931  0.78069  0.95541  0.05000
 Zr2_5_22  Zr 1.0  0.04459  0.28069  0.21931  0.05000
 Zr2_5_23  Zr 1.0  0.71931  0.45541  0.71931  0.05000
 Zr2_5_24  Zr 1.0  0.21931  0.78069  0.54459  0.05000
 Zr2_6  Zr 1.0  0.28069  0.04459  0.78069  0.05000
 Zr2_6_2  Zr 1.0  0.78069  0.28069  0.04459  0.05000
 Zr2_6_3  Zr 1.0  0.04459  0.78069  0.28069  0.05000
 Zr2_6_4  Zr 1.0  0.78069  0.04459  0.71931  0.05000
 Zr2_6_5  Zr 1.0  0.28069  0.28069  0.45541  0.05000
 Zr2_6_6  Zr 1.0  0.54459  0.78069  0.21931  0.05000
 Zr2_6_7  Zr 1.0  0.21931  0.54459  0.78069  0.05000
 Zr2_6_8  Zr 1.0  0.71931  0.78069  0.04459  0.05000
 Zr2_6_9  Zr 1.0  0.45541  0.28069  0.28069  0.05000
 Zr2_6_10  Zr 1.0  0.71931  0.54459  0.71931  0.05000
 Zr2_6_11  Zr 1.0  0.21931  0.78069  0.45541  0.05000
 Zr2_6_12  Zr 1.0  0.95541  0.28069  0.21931  0.05000
 Zr2_6_13  Zr 1.0  0.71931  0.95541  0.21931  0.05000
 Zr2_6_14  Zr 1.0  0.21931  0.71931  0.95541  0.05000
 Zr2_6_15  Zr 1.0  0.95541  0.21931  0.71931  0.05000
 Zr2_6_16  Zr 1.0  0.21931  0.95541  0.28069  0.05000
 Zr2_6_17  Zr 1.0  0.71931  0.71931  0.54459  0.05000
 Zr2_6_18  Zr 1.0  0.45541  0.21931  0.78069  0.05000
 Zr2_6_19  Zr 1.0  0.78069  0.45541  0.21931  0.05000
 Zr2_6_20  Zr 1.0  0.28069  0.21931  0.95541  0.05000
 Zr2_6_21  Zr 1.0  0.54459  0.71931  0.71931  0.05000
 Zr2_6_22  Zr 1.0  0.28069  0.45541  0.28069  0.05000
 Zr2_6_23  Zr 1.0  0.78069  0.21931  0.54459  0.05000
 Zr2_6_24  Zr 1.0  0.04459  0.71931  0.78069  0.05000

