data_DUT60opt/exactR-3c/spgr
_audit_creation_date                2012-10-18
_audit_creation_method              'Igor Baburin'
_chemical_formula_structural        'DUT60 opt/exact R-3c/sp gr'
_chemical_formula_sum               'C78 H48 O13 Zn4'
_citation_special_details
;
File: DUT60opt.cif.
;
_cell_length_a                      3.0584481022227106E+01
_cell_length_b                      3.0584481022227106E+01
_cell_length_c                      3.0584481022227106E+01
_cell_angle_alpha                   90
_cell_angle_beta                    90
_cell_angle_gamma                   90
_symmetry_space_group_name_H-M      'P1'
_symmetry_Int_Tables_number         1
loop_
_symmetry_equiv_pos_site_id
_symmetry_equiv_pos_as_xyz
1 x,y,z
loop_
_atom_site_label
_atom_site_type_symbol
_atom_site_fract_x
_atom_site_fract_y
_atom_site_fract_z
C   C     4.1767255023933714E-01    5.0994137060478939E-01    5.9059459563068637E-03
C   C     5.0994854677834289E-01    5.9005469894097768E-03    4.1769846407119593E-01
C   C     5.8945699936913312E-03    4.1767607264844431E-01    5.0994687321832977E-01
C   C     5.8230658464092233E-01    4.9005377029219721E-01    9.9411592871764631E-01
C   C     4.9005734842612303E-01    9.9411647398821390E-01    5.8233281213295629E-01
C   C     9.9408732467405758E-01    5.8230656912118139E-01    4.9005481531584322E-01
C   C     8.2303262536646840E-02    4.9410227705282123E-01    9.9005236107747208E-01
C   C     9.9005771612325788E-01    8.2306667699801023E-02    4.9408184435744829E-01
C   C     4.9411265264787901E-01    9.9005823707370932E-01    8.2333473702750654E-02
C   C     9.1767030012483886E-01    5.0590570927293244E-01    9.9390604062720295E-03
C   C     9.9397270529370044E-03    9.1767469708100557E-01    5.0590955691583983E-01
C   C     5.0590249057679326E-01    9.9432285688472403E-03    9.1769938234616599E-01
C   C     5.0596854923721213E-01    5.4210519756317964E-03    8.6888963724044621E-01
C   C     5.4198432181195699E-03    8.6886281968362522E-01    5.0598610049416060E-01
C   C     8.6885835836954328E-01    5.0597467212288327E-01    5.4202735822064781E-03
C   C     4.9404115764366358E-01    9.9457802971841047E-01    1.3114579779980176E-01
C   C     9.9457752997501192E-01    1.3111736988569886E-01    4.9402384495464147E-01
C   C     1.3111308920322634E-01    4.9403536371156526E-01    9.9457575734647519E-01
C   C     9.9402288273045059E-01    6.3111662771019694E-01    4.9457563444726943E-01
C   C     4.9457598373958966E-01    9.9404821722848491E-01    6.3114533941888562E-01
C   C     6.3111667077952338E-01    4.9457438188908287E-01    9.9406408089501619E-01
C   C     5.9711612459327325E-03    3.6886480571370767E-01    5.0542533549822888E-01
C   C     5.0542617699014203E-01    5.9623004870282314E-03    3.6888840532155120E-01
C   C     3.6886047075643696E-01    5.0542273541766725E-01    5.9702513475314196E-03
C   C     7.6695102710714846E-01    6.4090447992837773E-01    8.0877478094969912E-01
C   C     6.4090247867646477E-01    8.0876438790785732E-01    7.6695826654640309E-01
C   C     8.0876905214857076E-01    7.6695210688272775E-01    6.4090821097781470E-01
C   C     7.3305012292309768E-01    6.9123754614297650E-01    8.5910323016285139E-01
C   C     8.5909981243944733E-01    7.3305106886140126E-01    6.9124050251488622E-01
C   C     6.9123141740654925E-01    8.5909965903893792E-01    7.3305902437370540E-01
C   C     2.3304467058580353E-01    3.5909233585428729E-01    1.9123122522737065E-01
C   C     3.5909251554558352E-01    1.9122449733815761E-01    2.3304933584663715E-01
C   C     1.9122952294528953E-01    2.3304473910212350E-01    3.5909539513300043E-01
C   C     2.6694357219083892E-01    3.0876169038652507E-01    1.4089863717250892E-01
C   C     1.4089813496181985E-01    2.6694361408680234E-01    3.0876343086069197E-01
C   C     3.0876054388526075E-01    1.4089593313736823E-01    2.6695247442436709E-01
C   C     7.6757190504623873E-01    6.0889152440692318E-01    8.4110162783989395E-01
C   C     6.0888686041546081E-01    8.4108966963674259E-01    7.6758076488670168E-01
C   C     8.4109537972367965E-01    7.6756355294479295E-01    6.0889203707834849E-01
C   C     7.3242613477026075E-01    6.5891019064277112E-01    8.9111818788021691E-01
C   C     8.9111095053611478E-01    7.3241966819285875E-01    6.5891144378154598E-01
C   C     6.5890071269670236E-01    8.9111094492471099E-01    7.3243791769800171E-01
C   C     2.3241527893871872E-01    3.9110459243792761E-01    1.5890252270519328E-01
C   C     3.9110465449337223E-01    1.5889508478327696E-01    2.3242632855943643E-01
C   C     1.5889982862749447E-01    2.3241291263411931E-01    3.9110572688205753E-01
C   C     2.6755786944959864E-01    3.4108827505156164E-01    1.0888315910603870E-01
C   C     1.0888159519237056E-01    2.6755545555813443E-01    3.4108950656606485E-01
C   C     3.4108612797727877E-01    1.0888077366720220E-01    2.6757297135097580E-01
C   C     7.9388802062056479E-02    2.4252926385473461E-01    5.8689602462248125E-01
C   C     5.8689474406967357E-01    7.9387641924655195E-02    2.4253744672829050E-01
C   C     2.4253537476428050E-01    5.8688587997969166E-01    7.9392135660936877E-02
C   C     9.2061198837783875E-01    7.5746285382612011E-01    4.1311026949630986E-01
C   C     4.1310370656435519E-01    9.2061033869489317E-01    7.5747081686289897E-01
C   C     7.5747239519980769E-01    4.1309754837531532E-01    9.2061978710886072E-01
C   C     4.2061827333763185E-01    9.1310058283265272E-01    2.5747689785145067E-01
C   C     9.1310982906513638E-01    2.5746479641541481E-01    4.2061040623484408E-01
C   C     2.5746104469863501E-01    4.2061264091107997E-01    9.1310974090581809E-01
C   C     5.7938993088689617E-01    8.6886889115589117E-02    7.4254063726280550E-01
C   C     8.6889879663539435E-02    7.4253003103123894E-01    5.7938663757518438E-01
C   C     7.4252850325676223E-01    5.7938602562386798E-01    8.6899168733501231E-02
C   C     2.4308428180890435E-01    6.2145340204715183E-01    1.1387395543384264E-01
C   C     1.1386625712067622E-01    2.4307748934107146E-01    6.2146838505127144E-01
C   C     6.2146790009751463E-01    1.1386356899552376E-01    2.4308416744698705E-01
C   C     7.5691692042044834E-01    3.7852774859555322E-01    8.8613911515174526E-01
C   C     8.8613516355640798E-01    7.5692318322234453E-01    3.7853849303481796E-01
C   C     3.7853464236224127E-01    8.8612939581648120E-01    7.5691789647962304E-01
C   C     2.5692472183907777E-01    3.8613844087895766E-01    8.7853497796161439E-01
C   C     3.8614003341116021E-01    8.7852812959781701E-01    2.5692677583761919E-01
C   C     8.7853759089271477E-01    2.5692059047729587E-01    3.8613307633778038E-01
C   C     7.4308391027460907E-01    6.1386648546493783E-01    1.2146937886658168E-01
C   C     6.1387061618366878E-01    1.2145537560860403E-01    7.4309076208003599E-01
C   C     1.2146467537397507E-01    7.4306974830931616E-01    6.1386072356717714E-01
C   C     2.6126059874449509E-01    6.6269699355286715E-01    1.0521273480566649E-01
C   C     1.0520334473167081E-01    2.6124843438176537E-01    6.6271406678555145E-01
C   C     6.6271459466812699E-01    1.0520201339359052E-01    2.6125314216234663E-01
C   C     7.3875756705132523E-01    3.3727799896784810E-01    8.9480374905394866E-01
C   C     8.9480032099250295E-01    7.3876187641410851E-01    3.3728898459262024E-01
C   C     3.3729010153048367E-01    8.9478789209682785E-01    7.3874205613119537E-01
C   C     2.3875087404000536E-01    3.9479859375975446E-01    8.3728997052602705E-01
C   C     3.9480381168172735E-01    8.3727986967080692E-01    2.3876275541618966E-01
C   C     8.3729093416139444E-01    2.3875330445536566E-01    3.9479652358734940E-01
C   C     7.6125590548380984E-01    6.0520462956178034E-01    1.6271409521556260E-01
C   C     6.0520817287427653E-01    1.6270316345691058E-01    7.6125534260613681E-01
C   C     1.6270844861692291E-01    7.6124514535192900E-01    6.0519867840998620E-01
C   C     2.7351377224935064E-01    3.4429235519944856E-01    8.8722248706289997E-01
C   C     8.8722448298010614E-01    2.7351339421461329E-01    3.4428805988056521E-01
C   C     3.4429521456965090E-01    8.8721688350652006E-01    2.7351843015256588E-01
C   C     7.2649889658130018E-01    6.5571444196884943E-01    1.1278023238585180E-01
C   C     1.1277807329126201E-01    7.2648410197545543E-01    6.5570841782965383E-01
C   C     6.5571542839325936E-01    1.1276933332690474E-01    7.2649657046731142E-01
C   C     2.2650316352690428E-01    6.1276484332527803E-01    1.5572265664187243E-01
C   C     6.1277960134951770E-01    1.5570736248498857E-01    2.2648941275215567E-01
C   C     1.5571182036858111E-01    2.2648979487579360E-01    6.1277701445770760E-01
C   C     7.7351361577297439E-01    3.8721721739272025E-01    8.4429605467911173E-01
C   C     3.8722875958635422E-01    8.4428237355344726E-01    7.7350100176735592E-01
C   C     8.4429317990076602E-01    7.7352192390887620E-01    3.8722489669713633E-01
C   C     7.1149503969381378E-01    3.5892918172735644E-01    1.2807959105290892E-01
C   C     1.2808915948954133E-01    7.1149304621576626E-01    3.5894146189300691E-01
C   C     3.5895359937148269E-01    1.2808191880566130E-01    7.1153432338978106E-01
C   C     2.8846820553102936E-01    6.4105353128005538E-01    8.7192507126092356E-01
C   C     8.7192079021778612E-01    2.8848561860501459E-01    6.4106145679699911E-01
C   C     6.4106083827056448E-01    8.7192016174890585E-01    2.8849447185385158E-01
C   C     7.8848105095089216E-01    3.7191225254256310E-01    1.4105011627227970E-01
C   C     3.7191519944865126E-01    1.4107087801644780E-01    7.8852173057132846E-01
C   C     1.4105688495087498E-01    7.8848140507149500E-01    3.7191917466037988E-01
C   C     2.1148172112755839E-01    6.2809112014726065E-01    8.5893548751138349E-01
C   C     6.2809022636111345E-01    8.5894516631555640E-01    2.1150675176166203E-01
C   C     8.5894350188573643E-01    2.1149800132298882E-01    6.2809018684675288E-01
C   C     2.6259027619991604E-01    6.9459673907780672E-01    1.3762007697385217E-01
C   C     1.3761172516893300E-01    2.6256671963219846E-01    6.9461311161138894E-01
C   C     6.9461102356438109E-01    1.3761242625822320E-01    2.6258106687966748E-01
C   C     7.3742962832255299E-01    3.0538215974741134E-01    8.6239149409724003E-01
C   C     8.6238736884475065E-01    7.3742066237990311E-01    3.0539605784753249E-01
C   C     3.0539408338371415E-01    8.6237627788694948E-01    7.3741603730177119E-01
C   C     2.3741620907624372E-01    3.6238901252817779E-01    8.0539286942642063E-01
C   C     3.6239333006545671E-01    8.0538253456586251E-01    2.3743546618341932E-01
C   C     8.0539292661497563E-01    2.3742546592010760E-01    3.6238769939116061E-01
C   C     7.6257451896933781E-01    6.3761153796521364E-01    1.9461596279631477E-01
C   C     6.3761798812025294E-01    1.9460011992320278E-01    7.6258780929885417E-01
C   C     1.9460903084071274E-01    7.6257057058749622E-01    6.3760507605550154E-01
C   C     2.7133245425821495E-01    3.1175943467902600E-01    8.5555770144262477E-01
C   C     8.5555860138809514E-01    2.7133683537817016E-01    3.1175615220562675E-01
C   C     3.1176382738254604E-01    8.5555082290070561E-01    2.7134158383756957E-01
C   C     7.2866631075425248E-01    6.8824250383327612E-01    1.4444989168334230E-01
C   C     1.4444576157707720E-01    7.2865875609345576E-01    6.8823860014852289E-01
C   C     6.8824851594466141E-01    1.4443396421789390E-01    7.2867627531245116E-01
C   C     2.2868045690809077E-01    6.4443186899784533E-01    1.8825351146612360E-01
C   C     6.4444635650222759E-01    1.8823856015528251E-01    2.2866478395720768E-01
C   C     1.8824225550271712E-01    2.2865772720805971E-01    6.4444561479742613E-01
C   C     7.7133702971942009E-01    3.5555204023679254E-01    8.1176420489145162E-01
C   C     3.5556264990730196E-01    8.1175079209761924E-01    7.7132745368737066E-01
C   C     8.1175790569553241E-01    7.7133365500085660E-01    3.5556279758897058E-01
C   C     7.1143351696250456E-01    3.2729764419041363E-01    1.6069976112017739E-01
C   C     1.6070580905078011E-01    7.1143386640219364E-01    3.2730729378339324E-01
C   C     3.2731268974731498E-01    1.6068927954658274E-01    7.1146180472586440E-01
C   C     2.8854644016000897E-01    6.7268410473369611E-01    8.3930480199017021E-01
C   C     8.3930435001231884E-01    2.8855227576659492E-01    6.7269525649007134E-01
C   C     6.7268652405855378E-01    8.3929535319615667E-01    2.8856366390531418E-01
C   C     7.8854903835934687E-01    3.3929763189944001E-01    1.7268560085618206E-01
C   C     3.3928675610333026E-01    1.7269592840950379E-01    7.8857769810019329E-01
C   C     1.7268848353929875E-01    7.8854968829478800E-01    3.3929991040404345E-01
C   C     2.1143118964794771E-01    6.6070528104423309E-01    8.2729888680040253E-01
C   C     6.6070119818411210E-01    8.2730475562176053E-01    2.1144659152775214E-01
C   C     8.2731104598680039E-01    2.1143690932485257E-01    6.6070929658869459E-01
C   C     2.4658676283097414E-01    6.8606185415246113E-01    1.7992708266724641E-01
C   C     1.7992604511231597E-01    2.4658767698301845E-01    6.8606726338617341E-01
C   C     6.8607169103543697E-01    1.7992216117390847E-01    2.4658622383488144E-01
C   C     7.5341486288396442E-01    3.1392674100556744E-01    8.2008029711549768E-01
C   C     8.2008098992375966E-01    7.5342800135062804E-01    3.1393243719961000E-01
C   C     3.1393911611641995E-01    8.2006411301273041E-01    7.5339977121373991E-01
C   C     2.5342810818818368E-01    3.2008398047008718E-01    8.1392644115278445E-01
C   C     3.2008211713556106E-01    8.1392420623052042E-01    2.5342340086463405E-01
C   C     8.1392980455739083E-01    2.5342752412432662E-01    3.2008050682896994E-01
C   C     7.4658481695873169E-01    6.7992178151504867E-01    1.8607646404100292E-01
C   C     6.7992217831968815E-01    1.8606764382514132E-01    7.4657445845387327E-01
C   C     1.8607628554377595E-01    7.4656285075718787E-01    6.7991116474977931E-01
C   C     2.4859662792044707E-01    7.1923431490778356E-01    2.1517377940125712E-01
C   C     2.1517106583255141E-01    2.4859477450623915E-01    7.1924247711973788E-01
C   C     7.1924434868229292E-01    2.1516855770556456E-01    2.4859246444728966E-01
C   C     7.5141075227505494E-01    2.8075342481377347E-01    7.8483396468948208E-01
C   C     7.8483125847348900E-01    7.5141243216611209E-01    2.8076430860666957E-01
C   C     2.8076480667016801E-01    7.8481858946098459E-01    7.5140009370339178E-01
C   C     2.5141807767790270E-01    2.8483569627690508E-01    7.8075578399512913E-01
C   C     2.8483335591411812E-01    7.8075384974864814E-01    2.5141432037003641E-01
C   C     7.8075521988555441E-01    2.5141571023195508E-01    2.8483586376170833E-01
C   C     7.4859033922020524E-01    7.1516780382300205E-01    2.1925023144470204E-01
C   C     7.1517062673131171E-01    2.1923762701603933E-01    7.4859154248309967E-01
C   C     2.1924869492029786E-01    7.4857881368607793E-01    7.1515734435637401E-01
C   C     2.1599092311381637E-01    7.2030380278539019E-01    2.4744270624743150E-01
C   C     2.4743960298135115E-01    2.1598805462045009E-01    7.2031065846755249E-01
C   C     7.2030981278742923E-01    2.4743930000606881E-01    2.1598850607350187E-01
C   C     7.8401321873595453E-01    2.7968867335033060E-01    7.5256184098000356E-01
C   C     7.5255747782456572E-01    7.8401247808226371E-01    2.7969717841795233E-01
C   C     2.7969441475414625E-01    7.5254939949221622E-01    7.8400566635670810E-01
C   C     2.8401632618200789E-01    2.5255948503391562E-01    7.7968942507068650E-01
C   C     2.5256226655559166E-01    7.7968414035887879E-01    2.8401806246071210E-01
C   C     7.7968890177711170E-01    2.8401562781953310E-01    2.5256091758040017E-01
C   C     7.1598550833873176E-01    7.4743829632007452E-01    2.2031749252288058E-01
C   C     7.4744049294768222E-01    2.2030852139232796E-01    7.1598671762820876E-01
C   C     2.2031642878075658E-01    7.1597557023969904E-01    7.4742887236999900E-01
C   C     4.9755066681337501E-01    9.7427873716091318E-01    9.4438705156410574E-01
C   C     9.7427405304428616E-01    9.4436136755475653E-01    4.9755350870410853E-01
C   C     9.4435746939374277E-01    4.9755862935206913E-01    9.7427203905671467E-01
C   C     2.4222234636092879E-03    5.5562037007120935E-01    5.2572538995621954E-01
C   C     5.2572827504297326E-01    2.4428714574493107E-03    5.5564398591676389E-01
C   C     5.5561852160447045E-01    5.2572267515224258E-01    2.4523717263815158E-03
C   C     5.0244852325238731E-01    2.5725308965566143E-02    5.5643366367470588E-02
C   C     2.5724330929619850E-02    5.5619879058274660E-02    5.0243264835155421E-01
C   C     5.5615221549724696E-02    5.0243739558077316E-01    2.5721580426285612E-02
C   C     9.9755484321396914E-01    4.4436230656964953E-01    4.7427755558391343E-01
C   C     4.7427907974635902E-01    9.9756544382840506E-01    4.4438594527384562E-01
C   C     4.4436006920506549E-01    4.7427640684488198E-01    9.9754973600563135E-01
C   C     4.9618646920142723E-01    9.7885648398891056E-01    9.9047797923662284E-01
C   C     9.7885744487608084E-01    9.9045178834095848E-01    4.9616183096527949E-01
C   C     9.9044826631093474E-01    4.9617412740970135E-01    9.7885351716502611E-01
C   C     3.8143269936853621E-03    5.0953073931044579E-01    5.2114361913932172E-01
C   C     5.2114683449286592E-01    3.8276890135783797E-03    5.0955314606748980E-01
C   C     5.0952852657141978E-01    5.2114077626599387E-01    3.8297295362323706E-03
C   C     5.0381822436266011E-01    2.1146223731242388E-02    9.5525374814172791E-03
C   C     2.1140082290529615E-02    9.5301164040470995E-03    5.0382480178830491E-01
C   C     9.5255335637337204E-03    5.0382417723407680E-01    2.1138967493037782E-02
C   C     9.9616531062248104E-01    4.9045255897376205E-01    4.7885851025052883E-01
C   C     4.7886041061632029E-01    9.9618222954268931E-01    4.9047632667747987E-01
C   C     4.9045153610203640E-01    4.7885594358429362E-01    9.9617532991773416E-01
C   C     5.1261365102593670E-01    5.7062206140518532E-02    9.8136149776814940E-01
C   C     5.7058062531474808E-02    9.8133907064602188E-01    5.1261100010966931E-01
C   C     9.8133468986901606E-01    5.1261011900969033E-01    5.7056991955253621E-02
C   C     4.8738842485749362E-01    9.4294155330300156E-01    1.8668460772640980E-02
C   C     9.4294057313701607E-01    1.8643255767048530E-02    4.8737218354525907E-01
C   C     1.8639485561879724E-02    4.8738444386291108E-01    9.4293670199121971E-01
C   C     9.8737881903249880E-01    5.1864210429493374E-01    4.4293955833800724E-01
C   C     4.4294205826672983E-01    9.8739813840996549E-01    5.1866704227578408E-01
C   C     5.1864338454150627E-01    4.4293962999925618E-01    9.8738560451387691E-01
C   C     1.2598436691891072E-02    4.8134112160266473E-01    5.5706322778448425E-01
C   C     5.5706562082194433E-01    1.2609854719754931E-02    4.8136164942848331E-01
C   C     4.8133713299784708E-01    5.5705948403914063E-01    1.2611713615931774E-02
C   C     5.1351846840876447E-01    5.1734544584990445E-02    9.3670113575297687E-01
C   C     5.1728840171471571E-02    9.3667895405341117E-01    5.1353246746226033E-01
C   C     9.3667440165146376E-01    5.1352353872878731E-01    5.1729371793459683E-02
C   C     4.8648032106663069E-01    9.4827080481397541E-01    6.3328932726332082E-02
C   C     9.4826909314981567E-01    6.3303698009148063E-02    4.8645615430195882E-01
C   C     6.3300027987628474E-02    4.8647167506547490E-01    9.4826499781956930E-01
C   C     9.8645987821682313E-01    5.6330240097267958E-01    4.4826710749426585E-01
C   C     4.4827056754769434E-01    9.8648305073543829E-01    5.6332746036156534E-01
C   C     5.6330428202329574E-01    4.4826716222392660E-01    9.8647915898119654E-01
C   C     1.3521756611881418E-02    4.3668105582387939E-01    5.5173478068239501E-01
C   C     5.5173791670589356E-01    1.3522880456198514E-02    4.3670114350462574E-01
C   C     4.3667672597128582E-01    5.5173231309482729E-01    1.3521377605743108E-02
C   C     7.1780944436108007E-01    7.5000566210877861E-01    7.8219844209396860E-01
C   C     7.5000409558420145E-01    7.8219398146241137E-01    7.1781365214114190E-01
C   C     7.8219403568849255E-01    7.1781059345161746E-01    7.5000978096544080E-01
C   C     2.8218646449387857E-01    2.4999290345861128E-01    2.1780326366251010E-01
C   C     2.4999454340576122E-01    2.1780003791902827E-01    2.8218783603277076E-01
C   C     2.1780147868379621E-01    2.8218441304039088E-01    2.4999562114710308E-01
C   C     7.4999755511164445E-01    7.1725595899023664E-01    7.8275084926866112E-01
C   C     7.1725362795308489E-01    7.8274650943981761E-01    7.5000142515615142E-01
C   C     7.8274468915286710E-01    7.4999595146100406E-01    7.1725737837669190E-01
C   C     2.4999424402773904E-01    2.8273912280115765E-01    2.1725046553201638E-01
C   C     2.8274204487011051E-01    2.1724869780515954E-01    2.4999729247554431E-01
C   C     2.1724894128755071E-01    2.4999180443577015E-01    2.8274139455099734E-01
C   C     7.5000322036884881E-01    6.8293469465654288E-01    8.1707676332421864E-01
C   C     6.8293014633610372E-01    8.1707072566095418E-01    7.5000689276490218E-01
C   C     8.1706813973508619E-01    7.4999291288049319E-01    6.8293329414677251E-01
C   C     2.4998568616442315E-01    3.1706105865195711E-01    1.8292458516576446E-01
C   C     3.1706226344267036E-01    1.8292170391613349E-01    2.4999318719158062E-01
C   C     1.8292232780958700E-01    2.4998157571603763E-01    3.1706202508611192E-01
C   C     7.4999110406201364E-01    6.1739903332649992E-01    8.8260863038239667E-01
C   C     6.1739288755720023E-01    8.8260129902715290E-01    7.5001272111693629E-01
C   C     8.8260550437622043E-01    7.4999514177367776E-01    6.1740226644798923E-01
C   C     2.4998478510229769E-01    3.8259725452185800E-01    1.1739185832095690E-01
C   C     3.8259560001090914E-01    1.1738603601472483E-01    2.4999836001984119E-01
C   C     1.1739232439480390E-01    2.4999301988283090E-01    3.8260174809171354E-01
C   C     5.8279169434848499E-01    9.1719800421646835E-01    7.5000791134515510E-01
C   C     9.1720251772671690E-01    7.4999240950470147E-01    5.8280193818546322E-01
C   C     7.4999430855912164E-01    5.8280161642649164E-01    9.1720790232026339E-01
C   C     4.1719907630382363E-01    8.2792309249305474E-02    2.5000982696840890E-01
C   C     8.2792142962811011E-02    2.4998904634081401E-01    4.1719868789095371E-01
C   C     2.4999155209749457E-01    4.1720017919031821E-01    8.2796649082070364E-02
C   C     8.3772695835307789E-02    7.4997842391307690E-01    4.1622528186958080E-01
C   C     4.1622448763645453E-01    8.3771838526711995E-02    7.5005896828520702E-01
C   C     7.4996946556172561E-01    4.1622517019580579E-01    8.3773355159845492E-02
C   C     9.1622652328145748E-01    2.4998713421603436E-01    5.8377459721955727E-01
C   C     5.8377745101190803E-01    9.1623022713644720E-01    2.5000052889742885E-01
C   C     2.4995651318857659E-01    5.8377115775261634E-01    9.1622501536358436E-01
C   C     7.4998209400182259E-01    3.8180100136952327E-01    1.1820147371167319E-01
C   C     1.1819727746867718E-01    7.4998602166428596E-01    3.8179739604852425E-01
C   C     3.8179292508254509E-01    1.1819291265301374E-01    7.5004002588417551E-01
C   C     2.4996995988665860E-01    6.1819492666481601E-01    8.8179651051615826E-01
C   C     8.8180148020763527E-01    2.4999065019315511E-01    6.1820206640094777E-01
C   C     6.1819814163901698E-01    8.8179841753579624E-01    2.5000125683134389E-01
C   C     7.4999199519673232E-01    3.1654475207128868E-01    1.8345715835860174E-01
C   C     1.8345470106904305E-01    7.4999422464029586E-01    3.1654252359767976E-01
C   C     3.1654541532475167E-01    1.8345582314062031E-01    7.5001403416068235E-01
C   C     2.4999630639971590E-01    6.8344696107034020E-01    8.1653614523798301E-01
C   C     8.1654059953510472E-01    2.4999755734239551E-01    6.8345388089352888E-01
C   C     6.8345872972981636E-01    8.1654760977804230E-01    2.5000448264094643E-01
C   C     7.5000024239629437E-01    2.8234201919770602E-01    2.1765759992146438E-01
C   C     2.1765840828512409E-01    7.4999646866583758E-01    2.8234340435110639E-01
C   C     2.8234305938671583E-01    2.1765680091938125E-01    7.4999961828812600E-01
C   C     2.4999977478065347E-01    7.1765051655115453E-01    7.8233685202342429E-01
C   C     7.8234574191672368E-01    2.4999543967100216E-01    7.1766210837671873E-01
C   C     7.1765737271509922E-01    7.8234313381959220E-01    2.5000453386391053E-01
C   C     2.1735654875215493E-01    2.8263903422895670E-01    7.5000945368250804E-01
C   C     7.5000043051598753E-01    2.1736114334195847E-01    2.8264626634528928E-01
C   C     2.8264868950699779E-01    7.4999221636358715E-01    2.1736488466705181E-01
C   C     7.8264061112960803E-01    7.1735711827449544E-01    2.5000964731299863E-01
C   C     2.5001045063052330E-01    7.8262728119644598E-01    7.1734445776444888E-01
C   C     7.1735895832839836E-01    2.4999481126237785E-01    7.8264437766338846E-01
H   H     7.7921249017360927E-01    6.3290518999102563E-01    7.7627198821925381E-01
H   H     6.3290281724211794E-01    7.7625975086027188E-01    7.7921446026563335E-01
H   H     7.7626397450882922E-01    7.7920452875266666E-01    6.3290482095952949E-01
H   H     7.2079566710254128E-01    7.2374209233643838E-01    8.6710575143795021E-01
H   H     8.6709877445052130E-01    7.2078881595579980E-01    7.2374312488980941E-01
H   H     7.2373463454905163E-01    8.6710269055319222E-01    7.2080115990156390E-01
H   H     2.2078383708580768E-01    3.6709228107435238E-01    2.2373416936267143E-01
H   H     3.6709492748420186E-01    2.2372642057082917E-01    2.2078743757017918E-01
H   H     2.2373163077367131E-01    2.2078007013832454E-01    3.6709299668887735E-01
H   H     2.7919736723201438E-01    2.7625694517141730E-01    1.3289562827262039E-01
H   H     1.3289368740801236E-01    2.7919304331406902E-01    2.7625743090946264E-01
H   H     2.7625532285940446E-01    1.3289644336083181E-01    2.7920698710940262E-01
H   H     7.8108622477949419E-01    5.7664005435342702E-01    8.3433901005552613E-01
H   H     5.7663673144932526E-01    8.3432656245172820E-01    7.8109856842626990E-01
H   H     8.3433511600860055E-01    7.8108235263476233E-01    5.7664171998605540E-01
H   H     7.1890659484516550E-01    6.6567061660863536E-01    9.2336818604815596E-01
H   H     9.2336224087799645E-01    7.1890470324718603E-01    6.6567418103504972E-01
H   H     6.6566103035281388E-01    9.2336269992556474E-01    7.1892263225368069E-01
H   H     2.1890158044536098E-01    4.2335632092299302E-01    1.6566539652005427E-01
H   H     4.2335646391075388E-01    1.6565443619557160E-01    2.1891111777995859E-01
H   H     1.6566476640077862E-01    2.1890361163202865E-01    4.2335869237493989E-01
H   H     2.8107795628861876E-01    3.3432749776115878E-01    7.6633424081206061E-02
H   H     7.6633054830893499E-02    2.8107926951801404E-01    3.3433015158130996E-01
H   H     3.3432260589562407E-01    7.6631698368933229E-02    2.8109320512686448E-01
H   H     2.7399935102320977E-01    6.6942667994051519E-01    7.2647206986591717E-02
H   H     7.2637025264380872E-02    2.7398541642420526E-01    6.6944341686779529E-01
H   H     6.6944044602497543E-01    7.2636835600769029E-02    2.7399552054126491E-01
H   H     7.2601601540359495E-01    3.3055100289714917E-01    9.2736914288000150E-01
H   H     9.2736416032492952E-01    7.2601782458919317E-01    3.3055900874394994E-01
H   H     3.3056114991831215E-01    9.2735374823696171E-01    7.2600346334803745E-01
H   H     2.2600805551213815E-01    4.2736307533388235E-01    8.3056190423473997E-01
H   H     4.2737023357049364E-01    8.3055137934602252E-01    2.2602501291825819E-01
H   H     8.3056444365046977E-01    2.2601035401992040E-01    4.2736112011669175E-01
H   H     7.7399339986545113E-01    5.7263813658357576E-01    1.6944117510311299E-01
H   H     5.7264351820968284E-01    1.6942933286264525E-01    7.7399879816889139E-01
H   H     1.6943321094488656E-01    7.7398846010519462E-01    5.7263384928685601E-01
H   H     2.8734179012051503E-01    3.3751516306042584E-01    9.1933390162138973E-01
H   H     9.1933674485424444E-01    2.8733837529211248E-01    3.3750853243164292E-01
H   H     3.3751597916252613E-01    9.1932875899021016E-01    2.8734422681304755E-01
H   H     7.1266884688886190E-01    6.6249460378205327E-01    8.0670246683926028E-02
H   H     8.0665635144333128E-02    7.1265974891926598E-01    6.6248924842503731E-01
H   H     6.6249507452255108E-01    8.0657388004144237E-02    7.1267077044634197E-01
H   H     2.1267462699896578E-01    5.8065346700618947E-01    1.6249932992305974E-01
H   H     5.8066962306707304E-01    1.6248615372123495E-01    2.1265901177632301E-01
H   H     1.6248912600442295E-01    2.1266087145500362E-01    5.8066599577846645E-01
H   H     7.8733824949989750E-01    4.1932952319764938E-01    8.3751676994665414E-01
H   H     4.1933920493997723E-01    8.3750513129208870E-01    7.8733114139759619E-01
H   H     8.3751840480307538E-01    7.8734647706344496E-01    4.1933814565129157E-01
H   H     6.8163882983635049E-01    3.6684941047772895E-01    1.1035609451887764E-01
H   H     1.1036253920329307E-01    6.8163847909526964E-01    3.6686143525362247E-01
H   H     3.6687750347000098E-01    1.1034615920849862E-01    6.8168592368315883E-01
H   H     3.1831898673590953E-01    6.3312400095700594E-01    8.8965378405572293E-01
H   H     8.8964846797244446E-01    3.1833825055400172E-01    6.3313634521286499E-01
H   H     6.3313406428035757E-01    8.8964420736315430E-01    3.1834866330194322E-01
H   H     8.1833055032824320E-01    3.8964583678345355E-01    1.3312619509217630E-01
H   H     3.8963441084350980E-01    1.3314842656841744E-01    8.1837962682931942E-01
H   H     1.3312902549250308E-01    8.1833397261657004E-01    3.8964550034158096E-01
H   H     1.8162664972999765E-01    6.1036296612993712E-01    8.6684996014496818E-01
H   H     6.1036169434461052E-01    8.6686691569557206E-01    1.8165378167605645E-01
H   H     8.6686487197472251E-01    1.8164396897303992E-01    6.1036339209511259E-01
H   H     2.7566823678307328E-01    7.2684625455561369E-01    1.2985723259987544E-01
H   H     1.2985072779295542E-01    2.7565601485755337E-01    7.2685906816884427E-01
H   H     7.2685911586561802E-01    1.2984770210296331E-01    2.7566179215874181E-01
H   H     7.2435063385647136E-01    2.7313328012348403E-01    8.7015667263093899E-01
H   H     8.7014977474332456E-01    7.2434919652029095E-01    2.7314390043083098E-01
H   H     2.7314647044921242E-01    8.7013932700855556E-01    7.2433255909436756E-01
H   H     2.2434330851315676E-01    3.7015310390399675E-01    7.7314172756153199E-01
H   H     3.7015863068477389E-01    7.7313337920394420E-01    2.2435740479191232E-01
H   H     7.7314417154705029E-01    2.2434585703014631E-01    3.7015193035939103E-01
H   H     7.7565832837714077E-01    6.2984675236914689E-01    2.2686304656039127E-01
H   H     6.2985237729058585E-01    2.2685078938789699E-01    7.7566106801491419E-01
H   H     2.2685735179434793E-01    7.7565018579563472E-01    6.2983924001154146E-01
H   H     2.8284855066392994E-01    2.7897889763337930E-01    8.6350333019029513E-01
H   H     8.6350528009076810E-01    2.8284417219945751E-01    2.7897314553095603E-01
H   H     2.7898000938725542E-01    8.6349924661903954E-01    2.8284561181978668E-01
H   H     7.1716333198623683E-01    7.2102698383086128E-01    1.3650310559061388E-01
H   H     1.3650046936808422E-01    7.1715115773330163E-01    7.2102177620206809E-01
H   H     7.2102972946560073E-01    1.3648962560653441E-01    7.1716145074151716E-01
H   H     2.1717204190933256E-01    6.3648363171870848E-01    2.2103585539611112E-01
H   H     6.3650062457421175E-01    2.2102095047483239E-01    2.1715475222629635E-01
H   H     2.2102780596911262E-01    2.1716157372469000E-01    6.3649410939327666E-01
H   H     7.8284273945667238E-01    3.6350000511086616E-01    7.7898093322325479E-01
H   H     3.6351219258954831E-01    7.7896661408501056E-01    7.8282963658697924E-01
H   H     7.7897762506016832E-01    7.8284787177688098E-01    3.6351177239469512E-01
H   H     6.8083052998036453E-01    3.1112047124197412E-01    1.6917222243617894E-01
H   H     1.6917667017441473E-01    6.8082953270129687E-01    3.1113129564031133E-01
H   H     3.1114117949469805E-01    1.6915125560717395E-01    6.8085241921923234E-01
H   H     3.1915588277078294E-01    6.8885320161765773E-01    8.3083943862765053E-01
H   H     8.3083609513264867E-01    3.1915934799871715E-01    6.8886719617200221E-01
H   H     6.8886323640747038E-01    8.3082898095745883E-01    3.1916901165799733E-01
H   H     8.1915677256539376E-01    3.3083646810458583E-01    1.8886072846026272E-01
H   H     3.3081349995654979E-01    1.8887512863184402E-01    8.1917957487997362E-01
H   H     1.8886072377660176E-01    8.1915733449029604E-01    3.3083346726783580E-01
H   H     1.8082970305464383E-01    6.6917456241277151E-01    8.1111644770646518E-01
H   H     6.6917220947480749E-01    8.1113277237673342E-01    1.8084024429551682E-01
H   H     8.1113346420478916E-01    1.8083239103967369E-01    6.6917692998499589E-01
H   H     1.8802625349846766E-01    6.9844840686823484E-01    2.4448339201901492E-01
H   H     2.4448496441612169E-01    1.8802111871913008E-01    6.9845745861039821E-01
H   H     6.9845633756170244E-01    2.4447770789802720E-01    1.8802277516816457E-01
H   H     8.1197752026808967E-01    3.0154456568880605E-01    7.5551897149671710E-01
H   H     7.5551575278170469E-01    8.1197834439928085E-01    3.0155091671363110E-01
H   H     3.0154989370744500E-01    7.5550899078353784E-01    8.1197010418277815E-01
H   H     3.1198064451575369E-01    2.5552272856047686E-01    8.0154469566608522E-01
H   H     2.5551720504717601E-01    8.0154284364812023E-01    3.1198041570414303E-01
H   H     8.0154146706365792E-01    3.1198267732928492E-01    2.5551927155431342E-01
H   H     6.8802183627556313E-01    7.4447934691468198E-01    1.9846085318902568E-01
H   H     7.4448382102765542E-01    1.9845035986331824E-01    6.8802383489803698E-01
H   H     1.9845953632785529E-01    6.8801166949354087E-01    7.4447335452533692E-01
H   H     4.9175982961603454E-01    9.4236214215900094E-01    9.2959169308307188E-01
H   H     9.4235914250775954E-01    9.2956651676841096E-01    4.9175023955020081E-01
H   H     9.2956264165807656E-01    4.9175751282989638E-01    9.4235681780229374E-01
H   H     8.2234759416332116E-03    5.7041799708092444E-01    5.5763916906680788E-01
H   H     5.5764254081216380E-01    8.2470600496876885E-03    5.7043954736205182E-01
H   H     5.7041469574733616E-01    5.5763575515620611E-01    8.2613976559657489E-03
H   H     5.0824692130814475E-01    5.7640870893020849E-02    7.0437814998862508E-02
H   H     5.7638142396468223E-02    7.0415799800739559E-02    5.0823895808553643E-01
H   H     7.0411128626303693E-02    5.0824483254876063E-01    5.7635086065419255E-02
H   H     9.9175599693493854E-01    4.2956597304899208E-01    4.4236274816008431E-01
H   H     4.4236433233501127E-01    9.9176531549334779E-01    4.2958984257117638E-01
H   H     4.2956591752327578E-01    4.4236021407343895E-01    9.9175180878456570E-01
H   H     5.1858042844568997E-01    8.9161281284767205E-02    9.9576841769368252E-01
H   H     8.9155266789914672E-02    9.9574653091023013E-01    5.1858679677863417E-01
H   H     9.9574234350999591E-01    5.1857916764337408E-01    8.9155432570760265E-02
H   H     4.8142474988938561E-01    9.1084181361001182E-01    4.2614394942751439E-03
H   H     9.1084413946130982E-01    4.2356188875295646E-03    4.8139382398013414E-01
H   H     4.2322646573700867E-03    4.8141414410023686E-01    9.1083850482152240E-01
H   H     9.8140843875351069E-01    5.0423275749448015E-01    4.1084240862911603E-01
H   H     4.1084345924545412E-01    9.8143135614562771E-01    5.0425895731963044E-01
H   H     5.0423627032620622E-01    4.1084218470759010E-01    9.8141137437574599E-01
H   H     1.8566700762667029E-02    4.9574997814297983E-01    5.8916120765728808E-01
H   H     5.8916413650442057E-01    1.8578402760270708E-02    4.9576896676393845E-01
H   H     4.9574466929051453E-01    5.8915724083839416E-01    1.8584755593440333E-02
H   H     5.2001518421857795E-01    7.9256249717971003E-02    9.1509657035449787E-01
H   H     7.9250290688293451E-02    9.1507552768056599E-01    5.2003320192444935E-01
H   H     9.1507114454846439E-01    5.2002079118613687E-01    7.9251808619534680E-02
H   H     4.7998549055872758E-01    9.2074757748491176E-01    8.4932047331885155E-02
H   H     9.2074741645980218E-01    8.4907588235094450E-02    4.7995711767075006E-01
H   H     8.4904415973883915E-02    4.7997672845063277E-01    9.2074265183297277E-01
H   H     9.7996783934638310E-01    5.8490549428602867E-01    4.2074308614751627E-01
H   H     4.2074614962554918E-01    9.7999140405331819E-01    5.8493014887365224E-01
H   H     5.8490888832006016E-01    4.2074485456100547E-01    9.7998481099643331E-01
H   H     2.0017247275937948E-02    4.1507843483049101E-01    5.7925824986345376E-01
H   H     5.7926127020056573E-01    2.0013668986740122E-02    4.1509679218709905E-01
H   H     4.1507320783394114E-01    5.7925461715071336E-01    2.0017796174829273E-02
H   H     6.9262615718101184E-01    7.5000126506333464E-01    8.0738021674321325E-01
H   H     7.5000081116492923E-01    8.0737661404121741E-01    6.9263092414313610E-01
H   H     8.0737523419874824E-01    6.9262669843949620E-01    7.5000481102451710E-01
H   H     3.0736833469588354E-01    2.4999303371665982E-01    1.9261987173724374E-01
H   H     2.4999593416441668E-01    1.9261796866962089E-01    3.0737087341760239E-01
H   H     1.9261839505817180E-01    3.0736652781961721E-01    2.4999667219619684E-01
H   H     1.9215899905154601E-01    3.0784366266107066E-01    7.4999813130153403E-01
H   H     7.5000307036654768E-01    1.9215967894559616E-01    3.0784702969939715E-01
H   H     3.0785087076659196E-01    7.4999138134123744E-01    1.9216479910808523E-01
H   H     8.0784351908058316E-01    6.9215789310415810E-01    2.5000843827406083E-01
H   H     2.5000824864673438E-01    8.0782928995742054E-01    6.9214419999854926E-01
H   H     6.9215742439458205E-01    2.4999530396988082E-01    8.0784513858228391E-01
O   O     5.5036121744487387E-01    9.1136255743848160E-01    7.7575839346636688E-01
O   O     9.1136075820676821E-01    7.7573855852017315E-01    5.5036848461875298E-01
O   O     7.7573710637444138E-01    5.5036619051778990E-01    9.1136377976474925E-01
O   O     9.4963550843484290E-01    7.2424506555696677E-01    5.8863782222270911E-01
O   O     5.8863332413134972E-01    9.4963056660149980E-01    7.2426054091744485E-01
O   O     7.2424152751033788E-01    5.8863280059720458E-01    9.4963841031207408E-01
O   O     4.4962890800853489E-01    8.8631498469071562E-02    2.2425820063779145E-01
O   O     8.8637514031960310E-02    2.2424987001867003E-01    4.4963651133240851E-01
O   O     2.2424261275134405E-01    4.4963207649100445E-01    8.8632336387788654E-02
O   O     5.0366273685441526E-02    2.7574596081809238E-01    4.1136229320454776E-01
O   O     4.1136047777215934E-01    5.0357699528255549E-02    2.7575499308622997E-01
O   O     2.7574042800099269E-01    4.1136082400750013E-01    5.0364963548154520E-02
O   O     5.0102859459751492E-01    9.6717199795076170E-01    8.5266093739003568E-01
O   O     9.6717513714314884E-01    8.5262020629660951E-01    5.0106834875254780E-01
O   O     8.5261622891312028E-01    5.0105931413862470E-01    9.6717531602454432E-01
O   O     9.9893340447828571E-01    6.4734983294350568E-01    5.3282601219698633E-01
O   O     5.3281715427960075E-01    9.9898623661624009E-01    6.4738878658003141E-01
O   O     6.4735004280715347E-01    5.3281620607405544E-01    9.9904254398252745E-01
O   O     4.9899217206980612E-01    3.2818810359372563E-02    1.4738613505870501E-01
O   O     3.2826319980423888E-02    1.4735242203355725E-01    4.9894029866878031E-01
O   O     1.4734302556299206E-01    4.9897876419498560E-01    3.2823887481628330E-02
O   O     1.0453510603396050E-03    3.5262472710389015E-01    4.6718063612034411E-01
O   O     4.6717615405232438E-01    1.0388930621516945E-03    3.5265792446338862E-01
O   O     3.5261913147434321E-01    4.6717813494793398E-01    1.0486075310046879E-03
O   O     5.1083149906205649E-01    4.0822903596608472E-02    8.4727083292150307E-01
O   O     4.0831988485889939E-02    8.4725228643740913E-01    5.1081696426205914E-01
O   O     8.4724833457114812E-01    5.1081814429172012E-01    4.0831497227720073E-02
O   O     9.8916838158592102E-01    6.5273418635182578E-01    4.5917075438358684E-01
O   O     4.5916684546384845E-01    9.8917773195533609E-01    6.5275442018315721E-01
O   O     6.5273575398338646E-01    4.5917672946285581E-01    9.8916380621169120E-01
O   O     4.8916791117894515E-01    9.5916954862333603E-01    1.5275371800991702E-01
O   O     9.5917238444279362E-01    1.5273509050188400E-01    4.8917390651095433E-01
O   O     1.5273144708868219E-01    4.8916678441524974E-01    9.5917409619569616E-01
O   O     1.0825220423299215E-02    3.4725259289014132E-01    5.4083351844463357E-01
O   O     5.4082819237064550E-01    1.0825367083005123E-02    3.4726823164472703E-01
O   O     3.4725009887475305E-01    5.4083364650227972E-01    1.0813679772002547E-02
O   O     5.7544247045240027E-02    7.1740567642100839E-01    4.1686523246591256E-01
O   O     4.1687313793301245E-01    5.7537459068955778E-02    7.1749468250603110E-01
O   O     7.1739913001155808E-01    4.1686026901416717E-01    5.7541854753777259E-02
O   O     9.4246138285455139E-01    2.8255298115686384E-01    5.8313472356976626E-01
O   O     5.8313476238325002E-01    9.4245902779995872E-01    2.8257244306118412E-01
O   O     2.8251802953290561E-01    5.8313166210342715E-01    9.4246412718266093E-01
O   O     4.4245794743070416E-01    8.3141385562707740E-02    7.8262842786112063E-01
O   O     8.3133247149124553E-02    7.8254276999141104E-01    4.4246156592494784E-01
O   O     7.8253545586957585E-01    4.4245907758877062E-01    8.3129508276136230E-02
O   O     5.5754207320166427E-01    9.1686807216565513E-01    2.1743498161802627E-01
O   O     9.1686499344585537E-01    2.1741716022583132E-01    5.5754296439668849E-01
O   O     2.1738173525179283E-01    5.5754440837559782E-01    9.1686169772810588E-01
O   O     4.4821536460086749E-02    2.6476017012196695E-01    5.9470467419176043E-01
O   O     5.9470602595157840E-01    4.4819369957024395E-02    2.6476576271606944E-01
O   O     2.6476231546062340E-01    5.9470259352027977E-01    4.4824048610738944E-02
O   O     9.5518521081029228E-01    7.3524248490931421E-01    4.0529419826459051E-01
O   O     4.0529421678292671E-01    9.5517448743290334E-01    7.3523574424703853E-01
O   O     7.3523482660811046E-01    4.0529356681321199E-01    9.5518263667114511E-01
O   O     4.5518205262297301E-01    9.0529191871194581E-01    2.3524160029647284E-01
O   O     9.0529681586354371E-01    2.3523610635528142E-01    4.5517798401482340E-01
O   O     2.3523681183584219E-01    4.5518326520075086E-01    9.0529413752376586E-01
O   O     5.4482059099293001E-01    9.4702945915099659E-02    7.6476519527476150E-01
O   O     9.4702781512534182E-02    7.6476220524382366E-01    5.4482113997314863E-01
O   O     7.6476599393311451E-01    5.4482406238981673E-01    9.4706938768029977E-02
O   O     9.4765036920654777E-01    2.7965498304107284E-01    4.1284071672740152E-01
O   O     4.1284450358491631E-01    9.4764076694632671E-01    2.7966575484499517E-01
O   O     2.7965732295198559E-01    4.1284192242392687E-01    9.4764579244437486E-01
O   O     5.2349050188254635E-02    7.2034138711530837E-01    5.8716053100936971E-01
O   O     5.8716345399782044E-01    5.2347043084688884E-02    7.2035046912294709E-01
O   O     7.2034722975746213E-01    5.8716357276301667E-01    5.2354559152940308E-02
O   O     5.5235385255209535E-01    8.7160222241141769E-02    2.2034904426529817E-01
O   O     8.7157789845841938E-02    2.2034095827123676E-01    5.5235407918895740E-01
O   O     2.2034281345030804E-01    5.5234732225676264E-01    8.7162374880819279E-02
O   O     4.4764441597578319E-01    9.1284096148258886E-01    7.7966042317431794E-01
O   O     9.1284603155861499E-01    7.7966034276504115E-01    4.4764641140990458E-01
O   O     7.7965332614772076E-01    4.4764208602136979E-01    9.1284304796654292E-01
O   O     5.0001883917785439E-01   -2.5844080635824351E-05    7.5001781314923832E-01
O   O    -2.0805090376989185E-05    7.4998907352266120E-01    5.0002433255262557E-01
O   O     7.4998862092101359E-01    5.0002372248644711E-01   -1.9884580459052353E-05
O   O     4.9997369630614713E-01    1.0000180163779155E+00    2.5001420149393710E-01
O   O     1.0000237648213128E+00    2.4999205175186126E-01    4.9997909666223267E-01
O   O     2.4998644215197030E-01    4.9997855771052935E-01    1.0000247275700593E+00
Zn   Zn     5.0009590745152610E-01    9.4962752944572326E-01    7.9015805939113437E-01
Zn   Zn     9.4962748737901304E-01    7.9010749728252183E-01    5.0010289591046830E-01
Zn   Zn     7.9010334647802039E-01    5.0009961959978833E-01    9.4962728329344970E-01
Zn   Zn    -9.8863938491628654E-05    7.0985384685855535E-01    5.5037278896831732E-01
Zn   Zn     5.5037097510758404E-01   -9.9042152463011459E-05    7.0990319133564350E-01
Zn   Zn     7.0985382765854721E-01    5.5037219421670491E-01   -9.2168168563030642E-05
Zn   Zn     4.9990109388832499E-01    5.0371712699077587E-02    2.0990024423934833E-01
Zn   Zn     5.0372332151523515E-02    2.0985842749392467E-01    4.9990164954803384E-01
Zn   Zn     2.0984679271341378E-01    4.9990215559786583E-01    5.0371205708502551E-02
Zn   Zn     1.0001008163125289E+00    2.9011503298459745E-01    4.4962837814415013E-01
Zn   Zn     4.4962810664423003E-01    1.0000957661105125E+00    2.9015452059830060E-01
Zn   Zn     2.9010638588383686E-01    4.4962786566966867E-01    1.0000998993985466E+00
Zn   Zn     1.2786281973662482E-04    7.1485732977858452E-01    4.4625590872009507E-01
Zn   Zn     4.4625749449056834E-01    1.2308573759423294E-04    7.1487156837866783E-01
Zn   Zn     7.1485682075742374E-01    4.4625539042297413E-01    1.2782528208972596E-04
Zn   Zn     9.9987470961119695E-01    2.8513357667528183E-01    5.5374277115163284E-01
Zn   Zn     5.5374438530562298E-01    9.9987369187249953E-01    2.8514269080539545E-01
Zn   Zn     2.8513026435362526E-01    5.5374171211927259E-01    9.9987582041099698E-01
Zn   Zn     4.9987310376321792E-01    5.3744638020267535E-02    7.8514664668738232E-01
Zn   Zn     5.3741587440682866E-02    7.8513296109556774E-01    4.9987475689339433E-01
Zn   Zn     7.8513090682671383E-01    4.9987519701059069E-01    5.3743856851428871E-02
Zn   Zn     5.0012514488613136E-01    9.4625635590645807E-01    2.1486798801557030E-01
Zn   Zn     9.4625611036202062E-01    2.1485878685924450E-01    5.0012691695649836E-01
Zn   Zn     2.1485525668287619E-01    5.0012761457619459E-01    9.4625547334162918E-01
