data_DUT60opt/exactR-3c/spgr
_audit_creation_date                2012-10-18
_audit_creation_method              'Igor Baburin'
_chemical_formula_structural        'DUT60 opt/exact R-3c/sp gr'
_chemical_formula_sum               'C78 H48 O13 Zn4'
_citation_special_details
;
File: DUT60opt.cif. 
;
_cell_length_a                      43.6342
_cell_length_b                      43.6342
_cell_length_c                      43.6342
_cell_angle_alpha                   90
_cell_angle_beta                    90
_cell_angle_gamma                   90
_cell_volume                        83077.05
_symmetry_space_group_name_H-M      'P1'
_symmetry_Int_Tables_number         1
loop_
_symmetry_equiv_pos_site_id
_symmetry_equiv_pos_as_xyz
1 x,y,z
loop_
_atom_site_label
_atom_site_type_symbol
_atom_site_fract_x
_atom_site_fract_y
_atom_site_fract_z
C    C       2.7304990715133665E-01    2.4979212537585144E-01    2.2782030369790632E-01
C    C       2.5051437370440599E-01    2.9685800574906890E-01    2.0251570462649840E-01
C    C       2.3689211279683861E-01    3.2584206336344113E-01    2.0686246169436309E-01
C    C       2.6412949248419976E-01    3.1435173747205031E-01    1.5074376113832996E-01
C    C       2.5028788110991229E-01    3.4327115006859665E-01    1.5503242380912494E-01
C    C       2.5015835385124130E-01    3.6733969010022810E-01    1.3069550792609710E-01
C    C       2.5563605363418640E-01    3.6039392177223450E-01    9.9545768791512182E-02
C    C       2.4384319264550236E-01    4.2103607845912261E-01    1.1500619969547222E-01
C    C       2.4986617426176469E-01    4.1382018721042296E-01    8.4204344005185380E-02
C    C       2.5048012999613173E-01    2.7288009312710748E-01    2.2703402876919337E-01
C    C       5.6040938967167109E-01    5.9407269628213195E-02    2.5446441197724168E-01
C    C       5.0123811753621861E-01    2.8788457590466815E-03    1.7054704781707589E-01
C    C       4.3943326681067973E-01    6.1255531864864925E-02    7.5045966386949092E-01
C    C       5.6076348397543385E-01    9.3936032252745560E-01    7.5041440568256623E-01
C    C       7.4978723418503801E-01    7.2630277357820150E-01    2.2748720359394090E-01
C    C       2.5018730809679823E-01    7.2742532038171326E-01    7.7285650839025688E-01
C    C       7.5398153131592183E-01    5.8412821577460028E-01    8.5817916521738688E-02
C    C       2.5058157227296096E-01    5.8569740470977438E-01    9.1477712641826225E-01
C    C       7.4591593719658922E-01    6.1453281207733002E-01    7.8836529610223610E-02
C    C       7.3903371664678508E-01    3.8414578661087445E-01    9.2276054569257226E-01
C    C       2.6903373179163897E-01    6.1200087449972718E-01    9.1740265828036127E-01
C    C       7.6023041244985690E-01    5.9984406829023240E-01    1.3905139044144380E-01
C    C       7.5453893181897824E-01    3.9896529148129056E-01    8.6282145633547902E-01
C    C       2.3192110366343521E-01    6.0575164448398811E-01    8.6598262792948955E-01
C    C       7.5246935448121055E-01    6.3058478183391486E-01    1.3236850611946685E-01
C    C       2.5039366655556872E-01    6.3224528472206898E-01    8.6830038882147142E-01
C    C       7.5151381981226340E-01    6.5479206409062496E-01    1.5657938375849439E-01
C    C       2.5027649811406211E-01    6.5645660276492490E-01    8.4406807590144606E-01
C    C       7.6495271150323985E-01    6.5057185331084322E-01    1.8569410381449475E-01
C    C       7.6297795553867109E-01    3.4841694276423724E-01    8.1672915035919968E-01
C    C       2.4437610166311427E-01    6.4957829851952598E-01    8.1302208544106069E-01
C    C       7.3651409289640979E-01    7.0611670649486691E-01    1.7439013702840941E-01
C    C       7.3602716218717512E-01    2.9198902940177429E-01    8.2701942741760581E-01
C    C       2.5611860889321469E-01    7.1015056821860889E-01    8.2817201379279637E-01
C    C       7.4995164911920376E-01    7.0183254367554015E-01    2.0346747646891675E-01
C    C       2.5020744074560486E-01    7.0320193807888942E-01    7.9717851631093217E-01
C    C       7.2701783345921711E-01    7.4924614943907042E-01    2.2827077670542106E-01
C    C       7.2730124969062560E-01    2.5012117450890392E-01    7.7288016221433786E-01
C    C       5.7172071943403469E-01    5.1250124116215845E-01    1.0007009636507731E+00
C    C       5.9117904435263524E-01    5.3838069972313862E-01    1.0010547676469088E+00
C    C       5.8568858375490052E-01    4.8324110541229442E-01    5.7581615390572393E-04
C    C       6.2284718855160137E-01    5.3534322612976737E-01    1.2544908864043076E-03
C    C       6.1736794750765023E-01    4.8015364737161220E-01    7.8867799596919253E-04
C    C       6.3641709533561874E-01    5.0615760566793000E-01    1.1223778243531362E-03
C    C       5.3878546821482398E-01    5.1743486362912838E-01    1.0004907952883233E+00
C    C       5.1621745750494918E-01    4.9587709683108622E-01    1.8750502030804022E-04
C    C       2.2717455377049117E-01    2.5015785748216141E-01    2.7327955244396213E-01
C    C       2.7336129741100523E-01    2.2680870160776159E-01    2.5051482839075312E-01
C    C       7.4966729718114899E-01    7.2682968669218839E-01    7.7297118197239012E-01
C    C       7.7300679392608218E-01    7.4987780716330710E-01    7.2688955647649778E-01
C    C       7.2680111608934317E-01    7.7307936867381455E-01    7.4981375107716419E-01
C    C       2.5404915168080117E-01    5.6008692175572561E-01    5.9879036572661179E-02
C    C       5.9848548774150467E-02    2.5465137699897622E-01    5.6135829861924469E-01
C    C       4.4019029496575252E-01    9.3845811194065254E-01    2.4624880050696710E-01
C    C       9.3918030673317043E-01    2.4647306796264695E-01    4.4013959073200098E-01
C    C       2.4591594308766204E-01    4.4029138368443987E-01    9.3842795977223481E-01
C    C       4.3907617117659703E-01    9.4054989091409014E-01    7.4647151647292642E-01
C    C       7.4659470172526210E-01    4.3927397768466891E-01    9.4013816077961021E-01
C    C       9.4033596353991600E-01    7.4649855484671157E-01    4.3906603165540453E-01
C    C       5.5987466987411405E-01    6.1207623208118435E-02    7.5413778042400337E-01
C    C       6.1219764853026243E-02    7.5415666446784480E-01    5.5985014755563967E-01
C    C       7.5413377008006666E-01    5.5989437044081902E-01    6.1203627446390595E-02
C    C       1.7047260568877742E-01    5.0125070283680140E-01    3.0378244450873526E-03
C    C       3.8378409220349388E-03    1.7076530568393444E-01    5.0120445462274088E-01
C    C       4.9560997634667286E-01    9.9873166314612682E-01    3.3037244061313858E-01
C    C       9.9875245247836331E-01    3.2992330271381554E-01    4.9575850565045798E-01
C    C       3.2988948469356510E-01    4.9559939904187839E-01    9.9871077085215598E-01
C    C       4.9883858268877990E-01    9.9628467962669021E-01    8.2989178398458874E-01
C    C       8.2980905147723749E-01    4.9877534233612864E-01    9.9676416005494339E-01
C    C       9.9602940117401451E-01    8.2987880091983257E-01    4.9880808705435076E-01
C    C       5.0407858630641522E-01    1.1503135054209321E-03    6.7067740131164000E-01
C    C       1.2347002398123501E-03    6.7075856583057092E-01    5.0393805712619677E-01
C    C       6.7057904389522716E-01    5.0325658677230445E-01    1.2628290865247379E-03
C    C       7.5047399517127722E-01    4.3880660894283219E-01    6.0962223151108698E-02
C    C       6.1101148154486036E-02    7.5049769745349604E-01    4.3906119477928673E-01
C    C       5.6115114389708343E-01    9.3918893745020959E-01    2.5075316419339966E-01
C    C       2.5060574632459653E-01    5.6111041354412328E-01    9.3921091518012423E-01
C    C       9.3900008000563728E-01    2.5062135935273205E-01    5.6092272828837952E-01
C    C       7.4973299098632717E-01    5.6122299241093565E-01    9.3983261739157609E-01
C    C       9.3941218313855668E-01    7.5024721159411800E-01    5.6084532587253078E-01
C    C       4.3867034298734853E-01    5.9707746106894881E-02    2.5001026030237383E-01
C    C       2.4989106190539684E-01    4.3836598191634157E-01    5.9917751449709490E-02
C    C       6.1260716408778844E-02    2.4987787635944878E-01    4.3981381906605960E-01
C    C       2.2753141209313887E-01    7.4991465404001234E-01    7.2622390139824011E-01
C    C       7.2625778610518832E-01    2.2743922071520306E-01    7.4992916587694036E-01
C    C       7.7394511649842246E-01    7.5017946468103036E-01    2.7279791886698124E-01
C    C       7.5023690293276502E-01    2.7282315612503377E-01    7.7383298283705371E-01
C    C       2.7285176092749686E-01    7.7397083165249425E-01    7.5018951373646536E-01
C    C       2.5059156316368442E-01    2.7385727126335557E-01    7.7243444978842124E-01
C    C       7.7252036687816827E-01    2.4986512149755730E-01    2.7387418962434101E-01
C    C       2.7362455772684730E-01    7.7235833146000388E-01    2.4977887294184731E-01
C    C       2.2626103516099016E-01    2.4929472136197622E-01    7.2759444959715458E-01
C    C       2.4972011568211347E-01    7.2691074931691357E-01    2.2591032960233537E-01
C    C       7.2699444390555557E-01    2.2593441635391870E-01    2.5010804121635377E-01
C    C       7.7276007883042930E-01    2.5012544579016971E-01    7.2724081188687295E-01
C    C       7.2733681662806293E-01    7.7285372644344574E-01    2.5031229359406737E-01
C    C       7.4966758704039094E-01    2.7247641801085981E-01    2.2738240658136524E-01
C    C       2.2706975504476140E-01    7.4968900131466876E-01    2.7240606782175841E-01
C    C       2.7300713065737509E-01    2.2704595995744492E-01    7.5018297429304581E-01
C    C       8.5887592851511388E-02    7.5412602089315939E-01    5.8403445439045065E-01
C    C       5.8407108237329708E-01    8.5854357287161454E-02    7.5413840815461053E-01
C    C       9.1613852009778751E-01    7.4644242319121479E-01    4.1441612898485691E-01
C    C       7.4655626499280792E-01    4.1468642709004006E-01    9.1585832489914953E-01
C    C       4.1444201027214761E-01    9.1630281504418154E-01    7.4631599112177172E-01
C    C       2.4581548534005571E-01    4.1619410218643471E-01    9.1370282931697533E-01
C    C       9.1455523098960656E-01    2.4643037387181271E-01    4.1588858514471311E-01
C    C       4.1598754406976035E-01    9.1380591625991603E-01    2.4608779479425458E-01
C    C       8.4087943976155641E-02    2.5476029745496076E-01    5.8598473004077967E-01
C    C       2.5392470375627968E-01    5.8485005553493963E-01    8.4006779133487100E-02
C    C       5.8507751259858642E-01    8.3659899109540317E-02    2.5431421332004411E-01
C    C       9.1447052851174071E-01    2.5053504342215510E-01    5.8536869550261472E-01
C    C       5.8576836392969200E-01    9.1481125949344433E-01    2.5077332344249570E-01
C    C       7.5021347118392312E-01    4.1428934619326424E-01    8.5421480822874513E-02
C    C       8.5585498896542697E-02    7.5031358653319702E-01    4.1456921346662973E-01
C    C       4.1486938608020291E-01    8.5679973886304911E-02    7.5049972705927293E-01
C    C       7.8963809648854522E-02    7.4607532598725346E-01    6.1445900305694245E-01
C    C       6.1449822184925351E-01    7.8875056533642005E-02    7.4616622907340957E-01
C    C       8.8568099008794354E-01    7.5431940625060123E-01    4.2132669245821264E-01
C    C       7.5443449154844500E-01    4.2159544905096863E-01    8.8538931242333796E-01
C    C       4.2139710788764578E-01    8.8583098841215602E-01    7.5414750700807032E-01
C    C       2.5371075236859253E-01    3.8575036297857440E-01    9.2062994091281425E-01
C    C       9.2145287976085333E-01    2.5432861125475631E-01    3.8542230807640576E-01
C    C       3.8553295017809747E-01    9.2077394377831756E-01    2.5395670887955329E-01
C    C       1.1448473462246331E-01    2.4661839199360411E-01    5.7908010947715782E-01
C    C       2.4582042010006186E-01    5.7803819974526249E-01    1.1444043120631736E-01
C    C       5.7823617479541567E-01    1.1405169688178693E-01    2.4606487669396263E-01
C    C       2.2779508670163062E-01    2.7257285076531074E-01    2.5003770000192055E-01
C    C       2.5019890895787433E-01    2.2751622573552455E-01    2.7298855198158256E-01
C    C       7.2717598331364841E-01    7.4998703808495593E-01    7.7237621941559487E-01
C    C       7.7234639797447691E-01    7.2728488476813768E-01    7.4997004838853609E-01
C    C       7.4999179981903641E-01    7.7253403221668582E-01    7.2734917964550405E-01
C    C       9.2306321780568179E-01    7.3890678496007256E-01    3.8387847828746136E-01
C    C       3.8388379276802692E-01    9.2315666132660235E-01    7.3880148447870064E-01
C    C       1.1643443788824834E-01    7.6159393288065880E-01    5.7715401396400701E-01
C    C       7.6140447962714652E-01    5.7728958139769182E-01    1.1638862671957394E-01
C    C       5.7719792833419936E-01    1.1641406625313985E-01    7.6157091558085355E-01
C    C       2.6139082025546795E-01    6.1539361758627398E-01    7.7059108922131081E-02
C    C       7.7262081278722680E-02    2.6245418754012223E-01    6.1649994085950743E-01
C    C       6.1560692555055652E-01    7.6848177978872861E-02    2.6196928941846981E-01
C    C       8.8401495314648282E-01    2.3889852369734174E-01    4.2278908061605536E-01
C    C       2.3836265297639070E-01    4.2314923047714392E-01    8.8315523219472480E-01
C    C       4.2287110131177708E-01    8.8325466691583987E-01    2.3861449584254349E-01
C    C       9.1719874864454043E-01    2.6876389058055611E-01    6.1182143183074578E-01
C    C       6.1196556720274531E-01    9.1740888135479970E-01    2.6934186683241562E-01
C    C       8.8808377577158193E-01    2.3226036067780051E-01    5.8248779690457753E-01
C    C       2.3200583636359029E-01    5.8305388773158573E-01    8.8853575505795290E-01
C    C       5.8322400427929622E-01    8.8863625487891473E-01    2.3212854164853686E-01
C    C       7.3227654437874956E-01    3.8772535209848541E-01    8.2325536311189551E-02
C    C       8.2632633056596086E-02    7.3211329965947602E-01    3.8816899367303936E-01
C    C       3.8976275405367022E-01    8.4098642717638464E-02    7.3033857077617159E-01
C    C       1.1216000349062634E-01    7.6833064318634414E-01    4.1735403537571530E-01
C    C       7.6800520189984645E-01    4.1722724574170522E-01    1.1214412940329138E-01
C    C       4.1633547468403731E-01    1.1071825054604002E-01    7.7071675822701957E-01
C    C       1.3914942934207752E-01    7.6042755538124851E-01    5.9966294038415480E-01
C    C       5.9974322042851402E-01    1.3908960226937228E-01    7.6044434373825165E-01
C    C       9.0053909263996701E-01    7.3985943908462859E-01    3.6117581952102629E-01
C    C       7.3999048841086223E-01    3.6143010742227311E-01    9.0025326645830916E-01
C    C       3.6122430954114731E-01    9.0057937668506027E-01    7.3976564886386231E-01
C    C       2.3951327797584351E-01    4.0065907608155837E-01    8.6042178272821279E-01
C    C       8.6130859509425428E-01    2.3984858757665922E-01    4.0026418681147546E-01
C    C       4.0031875674936074E-01    8.6057630673445362E-01    2.3961898656578168E-01
C    C       9.9773261645689379E-02    2.6127093261269912E-01    6.3921342997189146E-01
C    C       2.6024379393589747E-01    6.3816726318709782E-01    9.9519464856571899E-02
C    C       6.3833165863370023E-01    9.9362323375625769E-02    2.6084831375634354E-01
C    C       8.6310763583260186E-01    7.5441516037180800E-01    3.9871849242965884E-01
C    C       3.9883072197381036E-01    8.6320903591217413E-01    7.5425995459519590E-01
C    C       1.0157265882197526E-01    7.4579204715449121E-01    6.3702840563161400E-01
C    C       7.4563369385484313E-01    6.3714961676040360E-01    1.0140311488567491E-01
C    C       6.3709731106200629E-01    1.0145361579297145E-01    7.4592980334920500E-01
C    C       2.4556106124947055E-01    6.0070837351496353E-01    1.3695903205159443E-01
C    C       1.3705942125515205E-01    2.4634209357984987E-01    6.0168595214899978E-01
C    C       6.0085985992134505E-01    1.3663703207111139E-01    2.4585262772211655E-01
C    C       8.9882848425139883E-01    2.5442820602929350E-01    3.6284555749675507E-01
C    C       2.5395229665959368E-01    3.6321057758607750E-01    8.9800937022935068E-01
C    C       3.6292767055237390E-01    8.9820074117210680E-01    2.5406250573119465E-01
C    C       8.6549427760964281E-01    2.3217439446902505E-01    6.0514776735589726E-01
C    C       6.0588286563789029E-01    8.6605132462748702E-01    2.3219773850748052E-01
C    C       8.9452926272252298E-01    2.6857513809621625E-01    6.3440829477720606E-01
C    C       2.6892448852435524E-01    6.3460497559767115E-01    8.9472720031819886E-01
C    C       6.3459788554496910E-01    8.9476262043288091E-01    2.6931177180745608E-01
C    C       7.6784179346184100E-01    3.9454720256616410E-01    1.3470943792981058E-01
C    C       1.3471833684915546E-01    7.6815782428492041E-01    3.9465637697696043E-01
C    C       3.9366038500696787E-01    1.3331132054799069E-01    7.7067892304717422E-01
C    C       1.0527561797401996E-01    7.3189629058236116E-01    3.6556301581520750E-01
C    C       7.3205795216194181E-01    3.6513999463899316E-01    1.0500078495858566E-01
C    C       3.6704896421666450E-01    1.0666104960852582E-01    7.3049478740175855E-01
C    C       1.3253020868974411E-01    7.5261335870788659E-01    6.3040097332101575E-01
C    C       6.3049618053394663E-01    1.3241790651282329E-01    7.5273662380199446E-01
C    C       8.6975835719992434E-01    7.4748779715073133E-01    3.6778451268551277E-01
C    C       7.4768670447619989E-01    3.6802268626901824E-01    8.6947701367297592E-01
C    C       3.6787136900695627E-01    8.6980345505488843E-01    7.4740576216052945E-01
C    C       2.4726031877326352E-01    3.6990965121768238E-01    8.6704324136330235E-01
C    C       8.6788481930579586E-01    2.4754007380960366E-01    3.6947892380164593E-01
C    C       3.6954397580677545E-01    8.6724303445604201E-01    2.4724206316353473E-01
C    C       1.3045677929103333E-01    2.5319695476578974E-01    6.3263848865984573E-01
C    C       2.5246650018782613E-01    6.3163831127787928E-01    1.3029224629903946E-01
C    C       6.3179299445169024E-01    1.3008940149211062E-01    2.5289482466386271E-01
C    C       8.6796009570691024E-01    2.5030427699341989E-01    6.3184881160470163E-01
C    C       6.3228077413167938E-01    8.6835654378074412E-01    2.5080180798688834E-01
C    C       7.4987550507669198E-01    3.6774809381418694E-01    1.3192661826477933E-01
C    C       1.3203812939404738E-01    7.4994831206567569E-01    3.6800586947339459E-01
C    C       3.6834569030348657E-01    1.3195149183091420E-01    7.5061925382478578E-01
C    C       1.5676128526777741E-01    7.5160969130138089E-01    6.5458649333228613E-01
C    C       6.5469537320540550E-01    1.5662878168522124E-01    7.5179113120179819E-01
C    C       8.4556347052762038E-01    7.4835586862937664E-01    3.4356480291538355E-01
C    C       7.4858854844929767E-01    3.4374715853152382E-01    8.4533089303136522E-01
C    C       3.4366690678369410E-01    8.4557833577570107E-01    7.4830600920368051E-01
C    C       2.4842751328387930E-01    3.4574874031040193E-01    8.4282446413784506E-01
C    C       8.4360332999937282E-01    2.4835299250680962E-01    3.4531181615839657E-01
C    C       3.4532447129778171E-01    8.4304985242778374E-01    2.4811996137762504E-01
C    C       1.5457971686584582E-01    2.5182986451570277E-01    6.5691696112461895E-01
C    C       2.5154312092056852E-01    6.5591676883297811E-01    1.5445409248811973E-01
C    C       6.5606008753541545E-01    1.5429549389372585E-01    2.5194804555369571E-01
C    C       8.4376148213637492E-01    2.5017326943587243E-01    6.5607572097482747E-01
C    C       6.5644270156803175E-01    8.4408922650432228E-01    2.5074243431460064E-01
C    C       7.4973128017942869E-01    3.4353261518646971E-01    1.5615535636147534E-01
C    C       1.5618432234244814E-01    7.4984436100783247E-01    3.4372580197375258E-01
C    C       3.4408808648966260E-01    1.5613303825008010E-01    7.5061914127494023E-01
C    C       1.8588881282306099E-01    7.6503072081004464E-01    6.5039928815983150E-01
C    C       6.5048991678025325E-01    1.8575556602360632E-01    7.6520699739549702E-01
C    C       8.4975857731144955E-01    7.3491108421953133E-01    3.1444577700296056E-01
C    C       7.3512520446559448E-01    3.1464167117733616E-01    8.4957357410837553E-01
C    C       3.1452773741768369E-01    8.4977817615642304E-01    7.3490280908231964E-01
C    C       2.3506666642503374E-01    3.4980793970368740E-01    8.1365393987933388E-01
C    C       8.1450727423400948E-01    2.3487989744927065E-01    3.4959727417777053E-01
C    C       3.4950422431372025E-01    8.1392106466559488E-01    2.3470133794148118E-01
C    C       1.5047303537056372E-01    2.6503880773598526E-01    6.8615617649139038E-01
C    C       2.6491882663866878E-01    6.8505956080582453E-01    1.5018688569217103E-01
C    C       6.8523098467658494E-01    1.5009087504911361E-01    2.6529700378586407E-01
C    C       2.0287617854551157E-01    2.5022172506407336E-01    2.9745743704119249E-01
C    C       2.9741239243649753E-01    2.0238827493591433E-01    2.5066678131852399E-01
C    C       7.4943034255638885E-01    7.0263429333609217E-01    7.9725341640326342E-01
C    C       7.9729232572113984E-01    7.4986815045800015E-01    7.0268538893739152E-01
C    C       7.0259610702043851E-01    7.9734347320067278E-01    7.4978815951394329E-01
C    C       8.1696187003238840E-01    7.6271978679195285E-01    3.4830442274423190E-01
C    C       3.4840937322697646E-01    8.1697422883429682E-01    7.6267418364230743E-01
C    C       1.5203426392497857E-01    7.3718301438102796E-01    6.8316437417994136E-01
C    C       7.3709052181857149E-01    6.8337721601343038E-01    1.5188767364831393E-01
C    C       6.8329112912972922E-01    1.5187923017220600E-01    7.3741331228133233E-01
C    C       2.3723374085735191E-01    6.5122169129526208E-01    1.8309810908574162E-01
C    C       1.8298752161068593E-01    2.3709182279376781E-01    6.5213650513584698E-01
C    C       6.5135600522508785E-01    1.8292350295460205E-01    2.3760350498713387E-01
C    C       8.4822157668143916E-01    2.6268479293998820E-01    3.1666773077639904E-01
C    C       2.6303692521037492E-01    3.1729198839091660E-01    8.4767611926522191E-01
C    C       3.1671294148313950E-01    8.4783015376161919E-01    2.6245732663132265E-01
C    C       8.1275337316423879E-01    2.4397280055401455E-01    6.4931912929741586E-01
C    C       6.4944640376475904E-01    8.1302789460404323E-01    2.4511863502688760E-01
C    C       8.5057741162502298E-01    2.5625875659589059E-01    6.8710082510658088E-01
C    C       2.5610488839396900E-01    6.8753331876543999E-01    8.5085361956055061E-01
C    C       6.8757453075521879E-01    8.5089470712204007E-01    2.5624732826351232E-01
C    C       7.5634066777139353E-01    3.5023837204310576E-01    1.8710333683413469E-01
C    C       1.8717081353656145E-01    7.5634717074065738E-01    3.5032031678288039E-01
C    C       3.5127527532458386E-01    1.8744731633033468E-01    7.5413316305644573E-01
C    C       1.4935454454124872E-01    7.4329773369858654E-01    3.1279613695207709E-01
C    C       7.4303360014744280E-01    3.1259154922082943E-01    1.4952551760246607E-01
C    C       3.1281437808774015E-01    1.4887438401846295E-01    7.4703562343999730E-01
C    C       1.7449001032464645E-01    7.3662699224374784E-01    7.0594364571439450E-01
C    C       7.0605028348934296E-01    1.7435054258338947E-01    7.3682701187683475E-01
C    C       7.9420105484577885E-01    7.6329305111132884E-01    3.2584186697041528E-01
C    C       7.6351290874716760E-01    3.2591091897521307E-01    7.9400122059554457E-01
C    C       3.2592977138038276E-01    7.9422029392492755E-01    7.6327893585786577E-01
C    C       2.6380569638303569E-01    2.9446342428356798E-01    8.2529660738608157E-01
C    C       8.2568298265384665E-01    2.6316129784037184E-01    2.9395783561560668E-01
C    C       2.9390274682150025E-01    8.2541019299629603E-01    2.6296857256243805E-01
C    C       2.0573993457051123E-01    2.3612333824329249E-01    6.7460721761535936E-01
C    C       2.3665485953445653E-01    6.7374086614913431E-01    2.0581538237988545E-01
C    C       6.7384402501358243E-01    2.0568391233437272E-01    2.3702070077278564E-01
C    C       8.2717112851790819E-01    7.3584818473354241E-01    2.9182436754173330E-01
C    C       2.9190191226807494E-01    8.2719661640367692E-01    7.3587154393297682E-01
C    C       2.0849485976636706E-01    7.6410580440403197E-01    6.7299590738422621E-01
C    C       7.6401069719691228E-01    6.7312831408001972E-01    2.0833489556171120E-01
C    C       6.7306963944168741E-01    2.0837507667359093E-01    7.6424866879401743E-01
C    C       2.6397352697484877E-01    7.0772736178078766E-01    1.7273003117417859E-01
C    C       1.7304523986220954E-01    2.6371666372224090E-01    7.0876447951553301E-01
C    C       7.0786546951763896E-01    1.7268074852860504E-01    2.6435808869244282E-01
C    C       7.9182742175058829E-01    2.3572518111390636E-01    3.2706035731592048E-01
C    C       2.3619343571553789E-01    3.2715021562509811E-01    7.9111842049466452E-01
C    C       3.2687335391101113E-01    7.9134677771607975E-01    2.3558213791236143E-01
C    C       8.2795053614781489E-01    2.5629093338298226E-01    7.0976001239843456E-01
C    C       7.1015552720169328E-01    8.2817919155422992E-01    2.5617343524898295E-01
C    C       7.9012540180014812E-01    2.4388683796816846E-01    6.7198315463600056E-01
C    C       2.4429100401790282E-01    6.7219063709038274E-01    7.9033798502336616E-01
C    C       6.7203406674261335E-01    7.9032013642942034E-01    2.4495543097306621E-01
C    C       7.4291847217961393E-01    2.8998401876930602E-01    1.7221185808024950E-01
C    C       1.7192474101312730E-01    7.4316815360463928E-01    2.9007424743074756E-01
C    C       2.9013620664607487E-01    1.7151395831474858E-01    7.4695724473180070E-01
C    C       2.0972519311275900E-01    7.5635318492455816E-01    3.2759278273003695E-01
C    C       7.5638183328249231E-01    3.2762303250848079E-01    2.0977690484430747E-01
C    C       3.2859250694755471E-01    2.1008667629515559E-01    7.5398237069643081E-01
C    C       2.0357280377493048E-01    7.5006030612901331E-01    7.0169798023378249E-01
C    C       7.0177121221798577E-01    2.0345105947667338E-01    7.5021228282747010E-01
C    C       7.9847490146904165E-01    7.4990538808128748E-01    2.9674448357906508E-01
C    C       7.5007462332931096E-01    2.9684025039790785E-01    7.9830417136314602E-01
C    C       2.9681781452779810E-01    7.9849287490401055E-01    7.4991931050615768E-01
C    C       2.5037362921220702E-01    2.9854181499106558E-01    7.9619762974445440E-01
C    C       7.9661578720316673E-01    2.4970408129001351E-01    2.9830128619307472E-01
C    C       2.9815079658875743E-01    7.9631268423331536E-01    2.4956890206646598E-01
C    C       2.0164425449970297E-01    2.4949184895783386E-01    7.0373578084717681E-01
C    C       2.4997675190219437E-01    7.0285985675025531E-01    2.0146656241067776E-01
C    C       7.0297226341458041E-01    2.0142194208781364E-01    2.5036808945773498E-01
C    C       7.9698878972148413E-01    2.5009876511331613E-01    7.0293732754935123E-01
C    C       7.0311571650002336E-01    7.9717185359359932E-01    2.5046911276819361E-01
C    C       7.4964332476759532E-01    2.9673578058440769E-01    2.0308629571458833E-01
C    C       2.0285428448765849E-01    7.4972996093918698E-01    2.9672626678654518E-01
C    C       2.9734456382031998E-01    2.0281211592457532E-01    7.5034233486431801E-01
C    C       2.2820710333482247E-01    7.2717033588932278E-01    7.4919204935171491E-01
C    C       7.4912959748075370E-01    2.2811315095444759E-01    7.2709360255533040E-01
C    C       7.5105767197884188E-01    7.7300432821409137E-01    2.7222182967813313E-01
C    C       7.7296430948347938E-01    2.7216644489961217E-01    7.5084774392670439E-01
C    C       2.7217626881378137E-01    7.5108346865270770E-01    7.7301878362818432E-01
C    C       2.7344865031017923E-01    2.5100036056991376E-01    7.7182557985243139E-01
C    C       7.7180320944632730E-01    2.7261384176624531E-01    2.5090943012194622E-01
C    C       2.5065851432821495E-01    7.7175220412461154E-01    2.7251962464785412E-01
C    C       2.4916452885893364E-01    2.2647544517621548E-01    7.2840017787838407E-01
C    C       2.2693343139349398E-01    7.2759845520846511E-01    2.4884000092324499E-01
C    C       7.2759753174330821E-01    2.4888297419466834E-01    2.2733022154135060E-01
C    C       7.7283371437389592E-01    7.2726907559450393E-01    2.5008161891048986E-01
C    C       2.5017722467911274E-01    7.7290564220825009E-01    7.2723294989419318E-01
C    C       2.7264518670375149E-01    7.4962372831026569E-01    2.2687609416053520E-01
C    C       2.2746337448504506E-01    2.7252716417883749E-01    7.4996918323465700E-01
C    C       7.4979035805124106E-01    2.2693291155472997E-01    2.7296964300717502E-01
C    C       1.0005949726212549E+00    5.7180960863915709E-01    5.1233603938594396E-01
C    C       5.1295649655229536E-01    1.0006167411867797E+00    5.7187419642549875E-01
C    C       9.8638018135728978E-01    9.2872300169159772E-01    4.9934059684750448E-01
C    C       9.2857598911384620E-01    4.9936867188701167E-01    9.8716449620067570E-01
C    C       4.9940770473206064E-01    9.8662507467035254E-01    9.2866500160229204E-01
C    C       4.2870735614873262E-01    4.8640002202021992E-01   -5.7840700738802505E-04
C    C      -6.4392569294191809E-04    4.2878305462064503E-01    4.8603777234481210E-01
C    C       4.8637350593162815E-01   -5.2771389706741262E-04    4.2910229074599621E-01
C    C       1.2263948396870131E-02    7.1836674376031584E-02    5.0036218009222433E-01
C    C       7.1701697842593309E-02    5.0063444991259309E-01    1.2395780701633396E-02
C    C       5.0055872181985817E-01    1.2090287540941274E-02    7.1756785661734018E-02
C    C       2.0760913476685480E-01    2.3675263754146791E-01    3.2645364280030154E-01
C    C       3.2643723788610263E-01    2.0682551494466622E-01    2.3717219732934419E-01
C    C       1.7383372063194741E-01    2.6359658311173700E-01    2.9271663913008045E-01
C    C       2.6404683756020453E-01    2.9192590666658025E-01    1.7356873232993691E-01
C    C       2.9246099078287580E-01    1.7343118110448569E-01    2.6416130454135811E-01
C    C       7.6272531853826453E-01    6.7353632014333031E-01    7.9266231630939543E-01
C    C       7.9256839627895814E-01    7.6329229060229009E-01    6.7365937554526645E-01
C    C       6.7357824274971512E-01    7.9261443667771436E-01    7.6321985542006099E-01
C    C       8.2632774270841103E-01    7.3649706818202088E-01    7.0746091014897416E-01
C    C       7.3589307675645343E-01    7.0751648231529540E-01    8.2619775691922992E-01
C    C       7.0736012265867754E-01    8.2636842617505768E-01    7.3639499276395215E-01
C    C       1.0009503119386625E+00    5.9105182886077645E-01    5.3838121074425704E-01
C    C       5.3891303720244210E-01    1.0010014533032623E+00    5.9121612813029534E-01
C    C       9.6059329516146763E-01    9.0914240778796052E-01    4.9898958493322421E-01
C    C       9.0903217172858153E-01    4.9899737818724776E-01    9.6135543730715467E-01
C    C       4.9902589596098701E-01    9.6082619336429576E-01    9.0910769381853018E-01
C    C       4.0928667336915747E-01    4.6048906835612974E-01   -9.6102867026746886E-04
C    C      -1.0315360433453291E-03    4.0919968141279178E-01    4.6025015488378024E-01
C    C       4.6047195379067624E-01   -9.1057687372489069E-04    4.0968313729352440E-01
C    C       3.8297544613065386E-02    9.1092000403781126E-02    5.0074995054688309E-01
C    C       9.1182304696703950E-02    5.0101244816722401E-01    3.8253147792601902E-02
C    C       5.0096002511196269E-01    3.7977397883949056E-02    9.1198083156651608E-02
C    C       4.4032114569443186E-04    5.8603735925270817E-01    4.8320107006888091E-01
C    C       4.8373826530184455E-01    4.3233836410384982E-04    5.8592399386581673E-01
C    C       1.5699940415669730E-02    9.1487277996264149E-01    4.9952562831463238E-01
C    C       9.1473233163095047E-01    4.9951837778776131E-01    1.6483988366039027E-02
C    C       4.9959720106675387E-01    1.5951800498437200E-02    9.1483758795134928E-01
C    C       4.1470944171391622E-01    5.1564495460997783E-01    9.9954593980763884E-01
C    C       9.9949641741490791E-01    4.1492243577469812E-01    5.1534994036664672E-01
C    C       5.1563701736912892E-01    9.9962170037708520E-01    4.1514730842549591E-01
C    C       9.8311551008940734E-01    8.6037318897017559E-02    5.0020774041827110E-01
C    C       8.5609527495100632E-02    5.0046063286933706E-01    9.8310704751191902E-01
C    C       5.0039424677961675E-01    9.8282245545742208E-01    8.5708233753210392E-02
C    C       1.1654954650726266E-03    6.2274691935234616E-01    5.3562642873759247E-01
C    C       5.3598625588651061E-01    1.2076488938572564E-03    6.2288564663428392E-01
C    C       9.6376317191830063E-01    8.7748568880967626E-01    4.9879183567693719E-01
C    C       8.7738165899365750E-01    4.9878726211002777E-01    9.6450046970222603E-01
C    C       4.9881721783066613E-01    9.6399542380071057E-01    8.7745704706462935E-01
C    C       3.7761076408563754E-01    4.6347659624297916E-01   -1.1960696067094699E-03
C    C      -1.2497445098194780E-03    3.7753503226259416E-01    4.6342409218129627E-01
C    C       4.6349866012589380E-01   -1.1494768200296121E-03    3.7802314366207845E-01
C    C       3.5519567927846642E-02    1.2278028607086588E-01    5.0101645402279793E-01
C    C       1.2283668071100923E-01    5.0123277360498963E-01    3.5180691724604501E-02
C    C       5.0120856526911817E-01    3.4945835714280546E-02    1.2285789815292535E-01
C    C       6.7304421160138022E-04    6.1774499855599863E-01    4.8039486238124551E-01
C    C       4.8076030007701581E-01    6.4957009160488929E-04    6.1760440458644816E-01
C    C       1.8921807765928726E-02    8.8320304412988038E-01    4.9931017180713477E-01
C    C       8.8306739959512059E-01    4.9928580277167639E-01    1.9680030616763492E-02
C    C       4.9937325644955988E-01    1.9165974093615777E-02    8.8317484543881963E-01
C    C       3.8303340089297816E-01    5.1867918941257340E-01    9.9929513492654887E-01
C    C       9.9925987877164568E-01    3.8325745450623566E-01    5.1857841731714993E-01
C    C       5.1871610120772171E-01    9.9937086966077360E-01    3.8348344358123071E-01
C    C       9.8028876260446984E-01    1.1774445934408853E-01    5.0048567289587076E-01
C    C       1.1728131427811443E-01    5.0070584868653034E-01    9.7998366729361164E-01
C    C       5.0066613007034466E-01    9.7974338350080115E-01    1.1738486269507198E-01
C    C       1.0338922306495025E-03    6.3657416310779202E-01    5.0656278681010836E-01
C    C       5.0684860128599718E-01    1.0259739415129760E-03    6.3653722476287034E-01
C    C       9.9299520160041543E-01    8.6403332200620386E-01    4.9894483150009811E-01
C    C       8.6393587664144844E-01    4.9892806619564090E-01    9.9372873298730580E-01
C    C       4.9897602767042737E-01    9.9323071041103861E-01    8.6402321398762827E-01
C    C       3.6402031895095793E-01    4.9264339773923405E-01    9.9891342179167208E-01
C    C       9.9889486291904328E-01    3.6408025281911993E-01    4.9266028522660016E-01
C    C       4.9269018029948336E-01    9.9896635278371815E-01    3.6447866476349594E-01
C    C       6.4471153336409792E-03    1.3658484472301094E-01    5.0090849503329848E-01
C    C       1.3634281942784168E-01    5.0108829176519942E-01    5.9792776475596819E-03
C    C       5.0106777949425596E-01    5.7613002861198826E-03    1.3641288908690963E-01
C    C       1.0004016849493196E+00    5.3883443679149701E-01    5.1701483781393043E-01
C    C       5.1775069394239726E-01    1.0004230965332146E+00    5.3894026374815007E-01
C    C       9.8127415870159651E-01    9.6163957891671104E-01    4.9951118280475243E-01
C    C       9.6147183787814861E-01    4.9958354288860302E-01    9.8206272730180622E-01
C    C       4.9959238796238292E-01    9.8152474858592598E-01    9.6156468911376081E-01
C    C       4.6164661263516277E-01    4.8152430557557968E-01   -3.3244477742616141E-04
C    C      -4.0697979128131805E-04    4.6171503489762444E-01    4.8100575835378306E-01
C    C       4.8149837228376247E-01   -3.1131885115987331E-04    4.6202243409829841E-01
C    C       1.6999472958922710E-02    3.8873213890503480E-02    5.0016413770488155E-01
C    C       3.8798843069655184E-02    5.0043496663502240E-01    1.7434946662412174E-02
C    C       5.0032730773876466E-01    1.7064420114119044E-02    3.8841213727670139E-02
C    C       1.0438115886132616E-04    5.1636420900784241E-01    4.9534603620507872E-01
C    C       4.9606251351477576E-01    1.2690085843132821E-04    5.1651041282747512E-01
C    C       2.7157297045705387E-03    9.8431861910835017E-01    4.9978284668792622E-01
C    C       9.8416555584923127E-01    4.9993602284267735E-01    3.4764405155456248E-03
C    C       4.9986572110543220E-01    2.9667936251433118E-03    9.8423563978309170E-01
C    C       4.8418679906461631E-01    5.0311355700154470E-01    9.9997991824347121E-01
C    C       9.9992588317106024E-01    4.8431409583369345E-01    5.0253687871385966E-01
C    C       5.0316488414337723E-01    9.9997179986620854E-01    4.8447265381652377E-01
C    C       9.9539697185768672E-01    1.6340811108658680E-02    4.9989595725210428E-01
C    C       1.6132583778489064E-02    5.0009353245394017E-01    9.9599208172773579E-01
C    C       5.0001580364136122E-01    9.9556604166893903E-01    1.6222642215494919E-02
C    C       1.5126824633802841E-01    2.6366612582279303E-01    3.1539233755417539E-01
C    C       3.1491563102478032E-01    1.5064928745054881E-01    2.6427200242961396E-01
C    C       1.8489870664092606E-01    2.3642886717341166E-01    3.4894977269300620E-01
C    C       2.3658697685155633E-01    3.4811086692429472E-01    1.8392513535983623E-01
C    C       3.4872790131434223E-01    1.8391429111064800E-01    2.3689556340057280E-01
C    C       7.3551009688576285E-01    6.8490659053350733E-01    8.4881288147114853E-01
C    C       8.4887726036652378E-01    7.3632413872697833E-01    6.8477881274247121E-01
C    C       6.8468643093717330E-01    8.4892094020494180E-01    7.3623066012999150E-01
C    C       8.1527238312809003E-01    7.6349130238405094E-01    6.5113822468285687E-01
C    C       7.6272445579160719E-01    6.5108848728449487E-01    8.1543719574252616E-01
C    C       6.5105918299793397E-01    8.1531131803047019E-01    7.6343856992054293E-01
C    C       1.5591276928163098E-01    2.5000082985896338E-01    3.4433981090838273E-01
C    C       3.4385825861719960E-01    1.5498400238571966E-01    2.5050136362126307E-01
C    C       7.4907827252357073E-01    6.5588474588825518E-01    8.4436394306472440E-01
C    C       8.4425654415159701E-01    7.4992587431321633E-01    6.5580132705607386E-01
C    C       6.5572947164158535E-01    8.4428673391691544E-01    7.4986422434549294E-01
C    C       1.3179796833182997E-01    2.4993993273339044E-01    3.6860653873257931E-01
C    C       3.6788513455627064E-01    1.3063034734882756E-01    2.5032552542059688E-01
C    C       7.4906599354059822E-01    6.3179456461667893E-01    8.6866695596311150E-01
C    C       8.6846925644508244E-01    7.4993423280446736E-01    6.3162838387139297E-01
C    C       6.3156703355953903E-01    8.6849297869372866E-01    7.4995187204095082E-01
C    C       1.0057944030926874E-01    2.5509774338481117E-01    3.6174836642325631E-01
C    C       3.6086965510879038E-01    9.9512478306344729E-02    2.5590082253148488E-01
C    C       1.3898135968836092E-01    2.4472650380778405E-01    3.9975174770821875E-01
C    C       2.4446187301650765E-01    3.9845899816503200E-01    1.3762076653575714E-01
C    C       3.9898867271081012E-01    1.3749576541801733E-01    2.4450346451693195E-01
C    C       7.4342513365815077E-01    6.3884466705106913E-01    8.9977435351971280E-01
C    C       8.9966856712287113E-01    7.4491605034815789E-01    6.3869501566847353E-01
C    C       6.3863201554018711E-01    8.9970836999702986E-01    7.4500836411446481E-01
C    C       8.6145290934269692E-01    7.5501619992803648E-01    6.0042104645325589E-01
C    C       7.5480514731038884E-01    6.0066916182869523E-01    8.6183160860388508E-01
C    C       6.0037370701984960E-01    8.6144661799395994E-01    7.5501165781442436E-01
C    C       1.1648147942832390E-01    2.4420712861566082E-01    4.2246515902764287E-01
C    C       4.2150197723638166E-01    1.1482769260476948E-01    2.4385805597163032E-01
C    C       7.8127228775274379E-02    2.5550710930303622E-01    3.8449861403403585E-01
C    C       2.5596071412062987E-01    3.8302880515081944E-01    7.6945866989202583E-02
C    C       3.8344838748179949E-01    7.6870206886000172E-02    2.5617800786442985E-01
C    C       7.5542623597949010E-01    5.7819249496959535E-01    8.8455224181170489E-01
C    C       8.8410188909307574E-01    7.5553185456305394E-01    5.7786438738826917E-01
C    C       5.7781355255667688E-01    8.8408438232911124E-01    7.5561877203233851E-01
C    C       9.2228423366855772E-01    7.4455477773253653E-01    6.1610079065309975E-01
C    C       7.4316738390381110E-01    6.1630438678632471E-01    9.2244769252191650E-01
C    C       6.1603496742625385E-01    9.2231650358665185E-01    7.4470976060676797E-01
C    C       8.5592766026367353E-02    2.4981741085754047E-01    4.1532236169003178E-01
C    C       4.1422372282818576E-01    8.4059633460318639E-02    2.4999174606481989E-01
C    C       7.4943617125080508E-01    5.8552446543310843E-01    9.1532981602195795E-01
C    C       9.1498515186014973E-01    7.5005856203479271E-01    5.8522972636799542E-01
C    C       5.8517077713365551E-01    9.1497517596503586E-01    7.5025046832003495E-01
H    H       2.9079981036721231E-01    2.4964851775457719E-01    2.1026495847097640E-01
H    H       2.2644721121071132E-01    3.3146603601983676E-01    2.2885836611503901E-01
H    H       2.7550358037126349E-01    3.0905499051468471E-01    1.2913421900525299E-01
H    H       2.5945248284174671E-01    3.3670512638794681E-01    9.2578781082589059E-02
H    H       2.3908633103793700E-01    4.4475603799408286E-01    1.2116635508155120E-01
H    H       7.4011022488151501E-01    6.2035486284365660E-01    5.5259106113145627E-02
H    H       7.3281794473960871E-01    3.7821256218908855E-01    9.4621377233719994E-01
H    H       2.8372928353767418E-01    6.1446690653686031E-01    9.3740911706513197E-01
H    H       7.6519567530816068E-01    5.9310983389789718E-01    1.6257866662201009E-01
H    H       7.5990659636862656E-01    4.0576278606163058E-01    8.3939388716020669E-01
H    H       2.1668764701073126E-01    6.0305599091871753E-01    8.4633032893403470E-01
H    H       7.7673329922753953E-01    6.2919650540076544E-01    1.9101042120209230E-01
H    H       7.7425703377264143E-01    3.7016313018054198E-01    8.1185759323728612E-01
H    H       2.4054600606816895E-01    6.2583645471198945E-01    8.0619460896938044E-01
H    H       7.2564128445411757E-01    7.2793534916896840E-01    1.6885928031966127E-01
H    H       7.2571194671577821E-01    2.6982160409041889E-01    8.3219502719675109E-01
H    H       2.5999250428900761E-01    7.3393400063132030E-01    8.3486862321543998E-01
H    H       7.0867635167013288E-01    7.4895356961287585E-01    2.1129898584687917E-01
H    H       7.0970018164945992E-01    2.5012073663328999E-01    7.9057966878257691E-01
H    H       5.8093959203958101E-01    5.6121090392784734E-01    1.0011627266426604E+00
H    H       5.7151201610269031E-01    4.6266586999805315E-01    2.9371427387618924E-04
H    H       6.2791306581744988E-01    4.5752288306339173E-01    6.7020391578249819E-04
H    H       5.3167592044395218E-01    5.4150973763885168E-01    1.0005734503445083E+00
H    H       5.2220922874339304E-01    4.7152201053289466E-01    9.5972621965489767E-05
H    H       6.3757384256201965E-01    5.5548306224303334E-01    1.0014975687695504E+00
H    H       8.3969177899479153E-01    7.5977856689458567E-01    4.0552567421100394E-01
H    H       4.0568600406147831E-01    8.3980176221868119E-01    7.5960799356652553E-01
H    H       9.4756091164050080E-02    7.4031587421039058E-01    6.6042035809705424E-01
H    H       7.4017549938508642E-01    6.6053514478721742E-01    9.4535923500703195E-02
H    H       6.6049026919061893E-01    9.4619806625632172E-02    7.4049349612085469E-01
H    H       2.4002387134914277E-01    5.9394557206055354E-01    1.6034808054564118E-01
H    H       1.6043675518516401E-01    2.4078492736239857E-01    5.9487595067073062E-01
H    H       5.9404118340158585E-01    1.6000229438321620E-01    2.4025735014395821E-01
H    H       9.0563422218138556E-01    2.5982592031253099E-01    3.3942992809988487E-01
H    H       2.5930607953413265E-01    3.3978538389700635E-01    9.0480051527579575E-01
H    H       3.3950829171760094E-01    9.0503679831161365E-01    2.5939938007595803E-01
H    H       8.4570306200519463E-01    2.1708797683671943E-01    6.0226527612188396E-01
H    H       6.0328690607060731E-01    8.4641711649540274E-01    2.1687140876889105E-01
H    H       8.9733603025383968E-01    2.8351757680702944E-01    6.5427597531134296E-01
H    H       2.8401993077229620E-01    6.5434005183245114E-01    8.9741672100340841E-01
H    H       6.5423369368561912E-01    8.9738270136406073E-01    2.8454510997226379E-01
H    H       7.8247164313231454E-01    3.9753796797609287E-01    1.5474304639786957E-01
H    H       1.5467804193696849E-01    7.8296776686904956E-01    3.9750594516041832E-01
H    H       3.9529292816993084E-01    1.5210316564319717E-01    7.8707123064611462E-01
H    H       1.0229977393223030E-01    7.1691689438546280E-01    3.4578568659619047E-01
H    H       7.1730072236840525E-01    3.4519573247596674E-01    1.0185545282628250E-01
H    H       3.4819390158831398E-01    1.0500357549496900E-01    7.1409047886639732E-01
H    H       1.9123719964603883E-01    7.7679418208324535E-01    6.2902251273746823E-01
H    H       6.2910792578257813E-01    1.9109029455771076E-01    7.7696559202475357E-01
H    H       8.7114449339970290E-01    7.2315860756632588E-01    3.0910315264159477E-01
H    H       7.2337896175427452E-01    3.0934757134680407E-01    8.7097572687784508E-01
H    H       3.0916082149265817E-01    8.7116256627486499E-01    7.2315925761362942E-01
H    H       2.2320639969666167E-01    3.7111750988593878E-01    8.0824029938429498E-01
H    H       8.0922901368617739E-01    2.2316886867900632E-01    3.7102128330960749E-01
H    H       3.7090571926032823E-01    8.0854944071866808E-01    2.2299165015942818E-01
H    H       1.2918746080668872E-01    2.7692978356790526E-01    6.9159731322416496E-01
H    H       2.7664290550238335E-01    6.9038513993110495E-01    1.2878167491810880E-01
H    H       6.9062276146919688E-01    1.2868442476725722E-01    2.7698872400748109E-01
H    H       8.1212654843448095E-01    7.7394411514288852E-01    3.7008636836015496E-01
H    H       3.7020207746807121E-01    8.1213574290634150E-01    7.7387862967749821E-01
H    H       1.3026219208375772E-01    7.2592983001092737E-01    6.8798495957780204E-01
H    H       7.2584835505293444E-01    6.8822294845332599E-01    1.3011476844419240E-01
H    H       6.8813565652852471E-01    1.3008863948350854E-01    7.2620488905370295E-01
H    H       2.2607455841910684E-01    6.2942575595824612E-01    1.8802287622399882E-01
H    H       1.8769039673100385E-01    2.2590514767695907E-01    6.3030718278453723E-01
H    H       6.2956665186729044E-01    1.8781234196068652E-01    2.2641263583898943E-01
H    H       8.6996101315654439E-01    2.7396171119178375E-01    3.1174809167025336E-01
H    H       2.7428467115722627E-01    3.1261848031498035E-01    8.6948049602544852E-01
H    H       3.1189771190370169E-01    8.6961441208173063E-01    2.7368817551067681E-01
H    H       8.0588141161873150E-01    2.3990060818164763E-01    6.2563204323879418E-01
H    H       6.2565338712170526E-01    8.0621130412534980E-01    2.4159304868487289E-01
H    H       8.7427228132704571E-01    2.6033251163336213E-01    6.9395123266178427E-01
H    H       2.5995328548480379E-01    6.9446131640461761E-01    8.7456494152373765E-01
H    H       6.9452551340424229E-01    8.7462882257906183E-01    2.5990044601036910E-01
H    H       7.6086752916592915E-01    3.7385876251288463E-01    1.9391383797351527E-01
H    H       1.9409434304958684E-01    7.6076898624745748E-01    3.7393144937088579E-01
H    H       3.7521066405640202E-01    1.9440361761639419E-01    7.5614917091568490E-01
H    H       1.2568773460706981E-01    7.3892725315975694E-01    3.0605039119153432E-01
H    H       7.3853894861907921E-01    3.0572294578528947E-01    1.2591529719523140E-01
H    H       3.0596266739297850E-01    1.2490611470525702E-01    7.4516078360376370E-01
H    H       1.6892426089280368E-01    7.2577279850894905E-01    7.2776242376935474E-01
H    H       7.2788444888110693E-01    1.6878481018769520E-01    7.2600710180907591E-01
H    H       7.7237441733794365E-01    7.7412550576662886E-01    3.3140891079234291E-01
H    H       7.7436733568284410E-01    3.3141382917389017E-01    7.7216690861816284E-01
H    H       3.3150355704490375E-01    7.7239600053923574E-01    7.7411676163023413E-01
H    H       2.7479063444761404E-01    2.7272684274009729E-01    8.3091691194022721E-01
H    H       8.3118216698698977E-01    2.7398530340429611E-01    2.7210790174234273E-01
H    H       2.7207240259151899E-01    8.3100849736167925E-01    2.7378122342810518E-01
H    H       2.2743312224777310E-01    2.2502975277879061E-01    6.6901993170788487E-01
H    H       2.2588566642877109E-01    6.6819352683726152E-01    2.2768027074645372E-01
H    H       6.6826030840304185E-01    2.2750821582896760E-01    2.2618847595245126E-01
H    H       8.3228658862494975E-01    7.2555373692330993E-01    2.6963116449579660E-01
H    H       2.6969576007039125E-01    8.3231579403321898E-01    7.2560807816696371E-01
H    H       2.3068391505910341E-01    7.7440658680848851E-01    6.6788488144432689E-01
H    H       7.7431310241965401E-01    6.6798664818827203E-01    2.3051534034238752E-01
H    H       6.6794809957676970E-01    2.3057162351320351E-01    7.7453124540447249E-01
H    H       2.7423047755219637E-01    7.2992250117554835E-01    1.6754895968399200E-01
H    H       1.6800530557098517E-01    2.7386599077810714E-01    7.3103992986086030E-01
H    H       7.3007093417763291E-01    1.6750889394082771E-01    2.7459959857340049E-01
H    H       7.6967197696740464E-01    2.2540465840914056E-01    3.3228093314083434E-01
H    H       2.2592862827865853E-01    3.3213243005947352E-01    7.6888137693223391E-01
H    H       3.3198094867694811E-01    7.6914544598297829E-01    2.2530624359021434E-01
H    H       8.3468522724909799E-01    2.6041003596805573E-01    7.3349017453004528E-01
H    H       7.3397738731885664E-01    8.3487240721824463E-01    2.5978494525030965E-01
H    H       7.6639827939016114E-01    2.3971363724033934E-01    6.6527382772473931E-01
H    H       2.4037623904559571E-01    6.6538941056761414E-01    7.6659297132710968E-01
H    H       6.6519101545159132E-01    7.6654653576333709E-01    2.4127980475468472E-01
H    H       7.3831652810606763E-01    2.6632156319973416E-01    1.6555289854561700E-01
H    H       1.6514112546323581E-01    7.3867738622027268E-01    2.6642568964009805E-01
H    H       2.6617971921944494E-01    1.6459064047499639E-01    7.4507682490753380E-01
H    H       2.3343126371807824E-01    7.6080631679198596E-01    3.3419535701358188E-01
H    H       7.6097979565307317E-01    3.3434461437642132E-01    2.3342180017782033E-01
H    H       3.3542046210201687E-01    2.3406940784609237E-01    7.5586554116025373E-01
H    H       2.1118048417889893E-01    7.0888131784473074E-01    7.4888854503008795E-01
H    H       7.4875541482122721E-01    2.1103205793793464E-01    7.0885822467640358E-01
H    H       7.5146407939165571E-01    7.9125597409152781E-01    2.8928564721498429E-01
H    H       7.9121475647427886E-01    2.8923415918649886E-01    7.5109943837274362E-01
H    H       2.8922656705894600E-01    7.5146591321482814E-01    7.9128415035129041E-01
H    H       2.9193110638890407E-01    2.5159944600963818E-01    7.8863842676550455E-01
H    H       7.8892133355122873E-01    2.9081804198486128E-01    2.5113220918367779E-01
H    H       2.5096327460456025E-01    7.8888321846806952E-01    2.9070903578647567E-01
H    H       2.4870043908565836E-01    2.0791570737068199E-01    7.1166535117300467E-01
H    H       2.0872207726659539E-01    7.1048838783135693E-01    2.4858906586801724E-01
H    H       7.1043335601868407E-01    2.4859831929081044E-01    2.0917100051662349E-01
H    H       7.9046822277277495E-01    7.0960310397685478E-01    2.4999695005068723E-01
H    H       2.5016356018875024E-01    7.9052351712634916E-01    7.0955017769586926E-01
H    H       2.9030611498145042E-01    7.4957938813760272E-01    2.0923697073237335E-01
H    H       2.0980412733280146E-01    2.9016605826213304E-01    7.4988312784130440E-01
H    H       7.4984395556770644E-01    2.0929507959856355E-01    2.9063432039085235E-01
H    H       2.1014751087645150E-01    2.9023231589693083E-01    2.4981760118435722E-01
H    H       2.5004074437151685E-01    2.0994089634658863E-01    2.9071478412367574E-01
H    H       7.0945077416328772E-01    7.4999938732240135E-01    7.8995244888954264E-01
H    H       7.8994932635796833E-01    7.0957790332651627E-01    7.5000693506063576E-01
H    H       7.5011093783700311E-01    7.9021210797953101E-01    7.0972201256901180E-01
H    H       1.0010613350372488E+00    5.8061867213462026E-01    5.6112296097423064E-01
H    H       5.6170042208430304E-01    1.0011381632837262E+00    5.8088679281238176E-01
H    H       9.3771740590173780E-01    9.1927426718163197E-01    4.9885864768681054E-01
H    H       9.1920087638464032E-01    4.9887575411911167E-01    9.3849708576559132E-01
H    H       4.9889256210888855E-01    9.3795816302538693E-01    9.1925603416030022E-01
H    H       4.1956462056607052E-01    4.3767768321863343E-01   -1.0606337667630743E-03
H    H      -1.1449960845529299E-03    4.1932392637187554E-01    4.3736870139729644E-01
H    H       4.3765148558705130E-01   -1.0219917521802381E-03    4.1994124143738304E-01
H    H       6.1045256985882923E-02    8.0672587178728258E-02    5.0085028783867946E-01
H    H       8.0963061278483628E-02    5.0114379646446605E-01    6.1089012555255277E-02
H    H       5.0108108707431753E-01    6.0801192498388425E-02    8.0949233674860524E-02
H    H       1.3357387976992835E-04    5.7203871501514281E-01    4.6250373014919377E-01
H    H       4.6312405229667769E-01    1.0675002439856400E-04    5.7180507422300941E-01
H    H       3.6215994066137160E-02    9.2913866972017278E-01    4.9983376978843430E-01
H    H       9.2899064221645433E-01    4.9981675625075561E-01    3.7005295522071317E-02
H    H       4.9993179830697554E-01    3.6462972175937962E-02    9.2910914836575287E-01
H    H       4.2885549672660489E-01    5.3624126673857830E-01    9.9986000840319122E-01
H    H       9.9981568657379005E-01    4.2919008126793301E-01    5.3586221190944971E-01
H    H       5.3620701452534936E-01    9.9994399340690743E-01    4.2932670109829740E-01
H    H       9.6242979614846669E-01    7.2021568945876427E-02    4.9986315271353288E-01
H    H       7.1397890902405878E-02    5.0014218067315830E-01    9.6255467639428594E-01
H    H       5.0004927244012831E-01    9.6225115404266826E-01    7.1525936371793830E-02
H    H       5.5365879172511044E-04    6.2848207054623162E-01    4.5785460559015884E-01
H    H       4.5816676293984737E-01    5.0023995419905905E-04    6.2822921513350127E-01
H    H       4.1610292297021977E-02    8.7278095071199524E-01    4.9945563214211236E-01
H    H       8.7260568971099184E-01    4.9941610119048685E-01    4.2350120591139413E-02
H    H       4.9952949392515389E-01    4.1844567437539004E-02    8.7273273172186305E-01
H    H       3.7245237960794059E-01    5.4129155226160086E-01    9.9940626291288326E-01
H    H       9.9939110385836860E-01    3.7284142863344955E-01    5.4126794672170786E-01
H    H       5.4133275616720700E-01    9.9949871500686460E-01    3.7291166075509236E-01
H    H       9.5774233764156647E-01    1.2846916860607702E-01    5.0036601371317124E-01
H    H       1.2780909481507066E-01    5.0057521723214848E-01    9.5734440410490051E-01
H    H       5.0053614744022101E-01    9.5711724582007407E-01    1.2794033469082125E-01
H    H       1.0005250479149219E+00    5.3157274027900525E-01    5.4104464159517718E-01
H    H       5.4178479806783031E-01    1.0005549426530478E+00    5.3170046772627266E-01
H    H       9.5716200111297534E-01    9.6861795755312408E-01    4.9938353601896218E-01
H    H       9.6844713915191605E-01    4.9944323791266082E-01    9.5795126664125951E-01
H    H       4.9949290429330634E-01    9.5741929132252424E-01    9.6856075778054040E-01
H    H       4.6880176431413140E-01    4.5746475016859700E-01   -4.1677978874890147E-04
H    H      -5.1434851582071001E-04    4.6877504174496326E-01    4.5691642039029728E-01
H    H       4.5745305359786970E-01   -4.1289310828492709E-04    4.6922255730161849E-01
H    H       4.1042837022568772E-02    3.1660997920632129E-02    5.0026351217332887E-01
H    H       3.1786146912776196E-02    5.0060421650006415E-01    4.1535343875635240E-02
H    H       5.0044890685887533E-01    4.1147215781086377E-02    3.1767575457687894E-02
H    H      -9.6773941061924919E-06    5.2244576020073574E-01    4.7101215905869082E-01
H    H       4.7173968165773805E-01    4.0613003226626090E-06    5.2262279703814007E-01
H    H       2.7096864321044141E-02    9.7843329304512106E-01    4.9989856197625870E-01
H    H       9.7835443586153692E-01    5.0009205393926837E-01    2.7874949202152603E-02
H    H       4.9995354377751017E-01    2.7354660606029424E-02    9.7837992035249211E-01
H    H       4.7817941433818878E-01    5.2746580104133334E-01    1.0000749047177688E+00
H    H       1.0000403220724665E+00    4.7832831843461637E-01    5.2689370424693871E-01
H    H       5.2749061665160135E-01    1.0000763329476816E+00    4.7836951788993365E-01
H    H       9.7104071435160288E-01    2.2334043750561677E-02    4.9980047865236149E-01
H    H       2.1968719729766151E-02    4.9992792743831732E-01    9.7159909992943472E-01
H    H       4.9990653587534539E-01    9.7118792926530761E-01    2.2120089016542142E-02
H    H       1.0014278163950037E+00    6.3729658177715331E-01    5.5589453767894914E-01
H    H       5.5615774245534721E-01    1.0014910026910295E+00    6.3756445161099395E-01
H    H       9.4369431261133108E-01    8.6266394516176736E-01    4.9853209545271188E-01
H    H       8.6256168214424112E-01    4.9853122420409346E-01    9.4443148938614596E-01
H    H       4.9853750475797209E-01    9.4393467446188839E-01    8.6262566000689889E-01
H    H       3.6290237661924313E-01    4.4332117857774905E-01   -1.4674659101826379E-03
H    H      -1.5149792586272000E-03    3.6271745471391637E-01    4.4334999257853014E-01
H    H       4.4336951111762790E-01   -1.4333022064825854E-03    3.6328342619517584E-01
H    H       5.5773060896793000E-02    1.3734883817060503E-01    5.0131048013867485E-01
H    H       1.3761323080597676E-01    5.0151326417961850E-01    5.5281982537952495E-02
H    H       5.0150337904517994E-01    5.5073900224375132E-02    1.3759815461452909E-01
H    H       2.2972308378993980E-01    2.2644713969455196E-01    3.3187547151869085E-01
H    H       3.3205768280166137E-01    2.2886765537690598E-01    2.2682186363820739E-01
H    H       1.6841225498296852E-01    2.7396512217129365E-01    2.7063042511259844E-01
H    H       2.7452921937957775E-01    2.6982667516177899E-01    1.6842342147901379E-01
H    H       2.7035238883014973E-01    1.6824311940630787E-01    2.7459995074206989E-01
H    H       7.7308846246385554E-01    6.6797758527166784E-01    7.7060785338952487E-01
H    H       7.7046014791811523E-01    7.7359947704181886E-01    6.6821756729991166E-01
H    H       6.6814581787739902E-01    7.7050987150987649E-01    7.7353836874302906E-01
H    H       8.3174069368070103E-01    7.2616889758495695E-01    7.2956919299379352E-01
H    H       7.2560682707480650E-01    7.2967109668329067E-01    8.3149155990516443E-01
H    H       7.2946336857456950E-01    8.3177506751664676E-01    7.2605671996444643E-01
H    H       1.2954053128634394E-01    2.7490065853484935E-01    3.1029085764534226E-01
H    H       3.0962606234323070E-01    1.2901345234017358E-01    2.7559528821006163E-01
H    H       1.8998133100423098E-01    2.2503980702147758E-01    3.7059215285569386E-01
H    H       2.2508287319802037E-01    3.6975391561505072E-01    1.8874364754528777E-01
H    H       3.7040843285276187E-01    1.8879525317728310E-01    2.2549268931182828E-01
H    H       7.2413777770323440E-01    6.9015283179971720E-01    8.7043092999909533E-01
H    H       8.7058732784124104E-01    7.2507041234746539E-01    6.8989497445075443E-01
H    H       6.8978861396671987E-01    8.7062474920977950E-01    7.2495486124433317E-01
H    H       8.1018608141466952E-01    7.7479389882854932E-01    6.2944537976572112E-01
H    H       7.7393526858097073E-01    6.2933323615959269E-01    8.1043918879282595E-01
H    H       6.2937813445328961E-01    8.1024131798915988E-01    7.7476715715907385E-01
H    H       9.3482509561562968E-02    2.5860671330686047E-01    3.3805993082275854E-01
H    H       3.3717836320373923E-01    9.2624351110762643E-02    2.5982371319578129E-01
H    H       1.6277652081800750E-01    2.4139787604881460E-01    4.0660306372341060E-01
H    H       2.4076747965047157E-01    4.0540934465250722E-01    1.6132586776931376E-01
H    H       4.0598449355059563E-01    1.6116920164431711E-01    2.4071446875192035E-01
H    H       7.3949419866758270E-01    6.6253846552486895E-01    9.0663485947513678E-01
H    H       9.0663024126500724E-01    7.4157390197266182E-01    6.6244993132663776E-01
H    H       6.6238104957780930E-01    9.0666792653003991E-01    7.4164384737230171E-01
H    H       8.3770309931223685E-01    7.5830610850333136E-01    5.9341529056102560E-01
H    H       7.5858051719792396E-01    5.9364355145189762E-01    8.3816433633403098E-01
H    H       5.9336947430473896E-01    8.3767691119058729E-01    7.5819277497179294E-01
H    H       1.2282930755356854E-01    2.3985750397147762E-01    4.4622457678905303E-01
H    H       4.4523153225050222E-01    1.2089268728821710E-01    2.3902230589175757E-01
H    H       5.4296106850607519E-02    2.5986333187838201E-01    3.7845855670994571E-01
H    H       2.6055685418288765E-01    3.7690297088337166E-01    5.3174528550563989E-02
H    H       3.7728104323462214E-01    5.3125336012941053E-02    2.6084768951248422E-01
H    H       7.6023341844950143E-01    5.5444539176722718E-01    8.7848943284551317E-01
H    H       8.7792198083610484E-01    7.5977667841851804E-01    5.5404949712319596E-01
H    H       5.5399823425912864E-01    8.7789759101288689E-01    7.5987150028920714E-01
H    H       9.4610467421455702E-01    7.4034388363116643E-01    6.2231571460440560E-01
H    H       7.3848953729575162E-01    6.2250399964368086E-01    9.4618171281779162E-01
H    H       6.2223671502690736E-01    9.4614891604357598E-01    7.4057568406498386E-01
H    H       5.5393156289982919E-02    7.4031003591538380E-01    6.2033493076597301E-01
H    H       6.2035449200724158E-01    5.5304596080052768E-02    7.4039042279772116E-01
H    H       8.7978955153412897E-01    7.6015511616379405E-01    4.4487791761287004E-01
H    H       7.6020615053220031E-01    4.4514944186513422E-01    8.7945835232621894E-01
H    H       4.4496147840805600E-01    8.7995429302918526E-01    7.5996173525597410E-01
H    H       2.5944308853532105E-01    3.7984607573367168E-01    9.4419867693858928E-01
H    H       9.4500256132814020E-01    2.6014025483891873E-01    3.7950695574692261E-01
H    H       3.7965368882003242E-01    9.4433280228109506E-01    2.5975391182272967E-01
H    H       1.2033511460874023E-01    2.4068952736504418E-01    5.5554276818259607E-01
H    H       2.3997447659851526E-01    5.5450371825147549E-01    1.2037521851882595E-01
H    H       5.5471181087122534E-01    1.1992847879816425E-01    2.4010405504272672E-01
H    H       9.4652351867822160E-01    7.3275095885034780E-01    3.7792960211806936E-01
H    H       3.7787283094540475E-01    9.4660314477130481E-01    7.3266583775731919E-01
H    H       1.2239492858133395E-01    7.6791176685725260E-01    5.5373425181550917E-01
H    H       7.6764377065401157E-01    5.5386684732635971E-01    1.2240389513480456E-01
H    H       5.5375958205536335E-01    1.2240200113465231E-01    7.6779425388526990E-01
H    H       2.6768944936767736E-01    6.2131939588440421E-01    5.3624993372966834E-02
H    H       5.3867593305620610E-02    2.6886451388384486E-01    6.2244873239685106E-01
H    H       6.2156560675951278E-01    5.3458759658176244E-02    2.6840678660953571E-01
H    H       8.7807301913068203E-01    2.3269937166110796E-01    4.4624381405384417E-01
H    H       2.3214956514640903E-01    4.4660323470843771E-01    8.7722104008314161E-01
H    H       4.4633279214887778E-01    8.7726965038012061E-01    2.3247270865641365E-01
H    H       9.3733105718886101E-01    2.8327105097507604E-01    6.1441672185217477E-01
H    H       6.1435839517451252E-01    9.3741442958436916E-01    2.8417615922264783E-01
H    H       8.8553646474689096E-01    2.1783824492824136E-01    5.6226283983168979E-01
H    H       2.1737844317668362E-01    5.6299171748828714E-01    8.8611213666596012E-01
H    H       5.6321759516698411E-01    8.8625675224643274E-01    2.1740810586132764E-01
H    H       7.1814522216799836E-01    3.8501839152721734E-01    6.1900334404613337E-02
H    H       6.2331341432952506E-02    7.1778270472849681E-01    3.8562218228682016E-01
H    H       3.8834452343440223E-01    6.5029836406040070E-02    7.1425100333801528E-01
H    H       1.1490102023936800E-01    7.8279902038054783E-01    4.3755103789905331E-01
H    H       7.8223882986781135E-01    4.3755245931819298E-01    1.1497335709103365E-01
H    H       4.3542869920640404E-01    1.1214885502684549E-01    7.8666677610364222E-01
H    H       1.6266403952686520E-01    7.6541418633180536E-01    5.9288425022281654E-01
H    H       5.9297108444813740E-01    1.6262369779969352E-01    7.6535889053826511E-01
H    H       9.0732489264729765E-01    7.3481241262517683E-01    3.3767116870861591E-01
H    H       7.3495669352691717E-01    3.3793647125961374E-01    9.0705575181932796E-01
H    H       3.3770507528539290E-01    9.0733339717835215E-01    7.3474200391637601E-01
H    H       2.3459145733747910E-01    4.0746283170015896E-01    8.3689808323463855E-01
H    H       8.3781638414074600E-01    2.3480695797252085E-01    4.0707688226657690E-01
H    H       4.0709441445517003E-01    8.3705620990677976E-01    2.3465851955005310E-01
H    H       9.3026970803980882E-02    2.6641617170758980E-01    6.6270133362887151E-01
H    H       2.6520381583566827E-01    6.6167304423965856E-01    9.2671843661920481E-02
H    H       6.6180839755239651E-01    9.2587485683703105E-02    2.6602945048522958E-01
O    O       5.0008891574418324E-01    9.9881769228905082E-01    2.5060025202181063E-01
O    O       5.0128747920736827E-01    2.8102523392761369E-02    1.8547836810011870E-01
O    O       5.6565865892839828E-01    3.4531899297263809E-02    2.6911543286708572E-01
O    O       4.3214265639494792E-01    3.4052690508572271E-02    2.6263441169617940E-01
O    O       5.6503935062086086E-01    9.6240320010627090E-01    2.6828960640946542E-01
O    O       5.6658873373867680E-01    3.6351600312279561E-02    7.4004498574172306E-01
O    O       5.0130208193617831E-01    9.7578598909074277E-01    1.8182458343659966E-01
O    O       2.5010724060459805E-01    5.0014609482548622E-01    9.9919093382808433E-01
O    O       9.9969866103048832E-01    2.5041244890271985E-01    5.0082895171542696E-01
O    O       4.9984137868027334E-01    7.9277788723425020E-04    7.5052002247652216E-01
O    O       7.5029507734865708E-01    4.9957240527035068E-01    9.3170283067073366E-04
O    O       7.8214851453155233E-04    7.5041954296207825E-01    4.9965636655338352E-01
O    O       1.8546996133668830E-01    5.0128411616910740E-01    2.8215581289104959E-02
O    O       2.9209441413782226E-02    1.8546017716167559E-01    5.0136745315828346E-01
O    O       4.7036913976103084E-01    9.9860285123419990E-01    3.1545975394383047E-01
O    O       9.9869101380241365E-01    3.1478574912045382E-01    4.7066027477330385E-01
O    O       3.1478364836476680E-01    4.7049629516962949E-01    9.9861601944092038E-01
O    O       4.9871288973526734E-01    9.7116890982271431E-01    8.1477978750657576E-01
O    O       8.1468630237641837E-01    4.9871501272717744E-01    9.7166885509326828E-01
O    O       9.7090143842637577E-01    8.1478059779163869E-01    4.9872657080604199E-01
O    O       5.2937173135346027E-01    1.3247264921885736E-03    6.8551331200538768E-01
O    O       1.2980709984217321E-03    6.8548000434153200E-01    5.2930249127572326E-01
O    O       6.8548682019621776E-01    5.2849001350422153E-01    1.3705436889204106E-03
O    O       2.6799496027604613E-01    5.6544619661064033E-01    3.4643106460313829E-02
O    O       3.4691247692884043E-02    2.6882823214536661E-01    5.6660316773249420E-01
O    O       4.6544180676744468E-01    9.3315201450915308E-01    2.3227764356934194E-01
O    O       9.3342408226919704E-01    2.3312369445779038E-01    4.6563646824125360E-01
O    O       2.3210472241001551E-01    4.6562522383569305E-01    9.3315712781469184E-01
O    O       4.3345381254457577E-01    9.6614946864892548E-01    7.3322882925390831E-01
O    O       7.3317898770176837E-01    4.3346767637211331E-01    9.6558036960691485E-01
O    O       9.6584461806716559E-01    7.3313760291894237E-01    4.3337983366074084E-01
O    O       5.3456750680045584E-01    6.6646647300644055E-02    7.6795623300805849E-01
O    O       6.6635773920996635E-02    7.6802792828695976E-01    5.3456751533446722E-01
O    O       7.6809156666421952E-01    5.3466596432329694E-01    6.6645759140220279E-02
O    O       2.6247300692405479E-01    4.3196760642839299E-01    3.4211201387351932E-02
O    O       3.5589477088595348E-02    2.6244474533982126E-01    4.3314261977091462E-01
O    O       4.6434976260016569E-01    6.6390473934059224E-02    2.3745800152291069E-01
O    O       6.7858871505539833E-02    2.3747030701188118E-01    4.6555216158081725E-01
O    O       2.3735529596232699E-01    4.6402924196196538E-01    6.6677675181182117E-02
O    O       5.6746849512405007E-01    9.6534366452654863E-01    7.3857768510521371E-01
O    O       7.3729755926933138E-01    5.6777572328042780E-01    9.6556177641974350E-01
O    O       9.6543642037674493E-01    7.3854370602679720E-01    5.6763376460228099E-01
O    O       5.3490298730904773E-01    9.3235569981203925E-01    7.6242415243794981E-01
O    O       9.3240595372277191E-01    7.6211746876434816E-01    5.3492450221201082E-01
O    O       7.6259717168353114E-01    5.3567296623915595E-01    9.3325077002191570E-01
O    O       2.6811264873246116E-01    5.6507148065730450E-01    9.6243970129118728E-01
O    O       9.6224793124767838E-01    2.6804568135583140E-01    5.6518473899645894E-01
O    O       5.3810103456316871E-01    9.3492276184636258E-01    2.3307612661253041E-01
O    O       9.3483614403329940E-01    2.3321044897279603E-01    5.3765605027482966E-01
O    O       2.3302954059964742E-01    5.3798762976180592E-01    9.3492023134321345E-01
O    O       4.3609800669933940E-01    3.8710923942907087E-02    7.3197637454171960E-01
O    O       7.3301913726079226E-01    4.3476613858829877E-01    3.7713028839299376E-02
O    O       3.7895186537628293E-02    7.3299493562392648E-01    4.3494497939599203E-01
O    O       4.6189329637416443E-01    6.4862735846477879E-02    7.6902571118186214E-01
O    O       6.5232725599753502E-02    7.6809583220138677E-01    4.6219428926974360E-01
O    O       7.6811315893877730E-01    4.6189322279377998E-01    6.5171900917216419E-02
O    O       7.3995957472999907E-01    5.6651133582102797E-01    3.6362709957546660E-02
O    O       3.6375106416492373E-02    7.4003680501238089E-01    5.6655355867612489E-01
O    O       4.6413878586222534E-01    9.3360997524508593E-01    7.6005763859721964E-01
O    O       9.3350826674154064E-01    7.6012197879196308E-01    4.6413180497489920E-01
O    O       7.6019643141996796E-01    4.6440595967182940E-01    9.3344796140161790E-01
O    O       4.3349645183955055E-01    9.6320217916798223E-01    2.6052661564809931E-01
O    O       2.6013060495576323E-01    4.3348816034178117E-01    9.6318602957237498E-01
O    O       9.6428446893796160E-01    2.6008295485300909E-01    4.3340685439887439E-01
O    O       5.3576506907357158E-01    6.5562227443699300E-02    2.3979362730592554E-01
O    O       6.6393857250575089E-02    2.4008447596241633E-01    5.3673277470647573E-01
O    O       2.3990312421135523E-01    5.3523804512315998E-01    6.6556795612502717E-02
O    O       1.8162445880193140E-01    5.0133174513086221E-01    9.7588900906260667E-01
O    O       9.7682550105074206E-01    1.8224830545497661E-01    5.0121679919558737E-01
O    O       5.2269399465288724E-01    9.9864409799110465E-01    3.1909633512974461E-01
O    O       9.9870648935288520E-01    3.1887652391034293E-01    5.2295599079468935E-01
O    O       3.1878486999759037E-01    5.2278050968035161E-01    9.9866731302123035E-01
O    O       4.9885018946769177E-01    2.3501823229544652E-02    8.1887815903849792E-01
O    O       8.1878295008067470E-01    4.9873477900946483E-01    2.3972422849451013E-02
O    O       2.3231456918728771E-02    8.1881938395258180E-01    4.9878563161486655E-01
O    O       4.7702453002421724E-01    1.1027755780062985E-03    6.8202485940450941E-01
O    O       1.2501112968120935E-03    6.8222877568456519E-01    4.7692687236881803E-01
O    O       6.8184872783995076E-01    4.7614385248520785E-01    1.2404066923222587E-03
Zn    Zn        5.0012942560019480E-01    3.8918392535427053E-02    2.2930949199679446E-01
Zn    Zn        5.0130890580381660E-01    9.6126830504548211E-01    2.2508525973678947E-01
Zn    Zn        2.2922786776282950E-01    5.0007438285361339E-01    3.9662491476863369E-02
Zn    Zn        3.9977117021579023E-02    2.2933625608879352E-01    5.0121911227530502E-01
Zn    Zn        4.5986933752849707E-01    9.9864969601854670E-01    2.7170351897916323E-01
Zn    Zn        9.9973964305532836E-01    2.7080392054299124E-01    4.6017659953194806E-01
Zn    Zn        2.7081946847987126E-01    4.5984388769711060E-01    9.9873362546559108E-01
Zn    Zn        4.9968184184062653E-01    9.6014872401717444E-01    7.7088889942406513E-01
Zn    Zn        7.7084256232244353E-01    4.9977443361059798E-01    9.6033658598277671E-01
Zn    Zn        9.6014031767662067E-01    7.7081731601123826E-01    4.9966976467605384E-01
Zn    Zn        5.4000917646073887E-01    1.0790768651049926E-03    7.2938540875391522E-01
Zn    Zn        1.0809788660216554E-03    7.2938099703696846E-01    5.3995239441766552E-01
Zn    Zn        7.2925469484009686E-01    5.3986216614463023E-01    1.1629153158235542E-03
Zn    Zn        2.2485219452891947E-01    5.0136023833475851E-01    9.6138601785106359E-01
Zn    Zn        9.6165925027682941E-01    2.2528381812404541E-01    5.0129377069162817E-01
Zn    Zn        5.3766568313065066E-01    9.9859554627932823E-01    2.7609408905739630E-01
Zn    Zn        9.9875709975493920E-01    2.7602343182158889E-01    5.3846446244662094E-01
Zn    Zn        2.7586593027696904E-01    5.3754969966682775E-01    9.9863101153245826E-01
Zn    Zn        4.9878467706508411E-01    3.8535217077090726E-02    7.7598455565745106E-01
Zn    Zn        7.7582722942691873E-01    4.9868184056531079E-01    3.8635371968526858E-02
Zn    Zn        3.8503672010022007E-02    7.7593460159452132E-01    4.9874460613125932E-01
Zn    Zn        4.6219763551070364E-01    1.4220981935787328E-03    7.2515613608563367E-01
Zn    Zn        1.3716559051160019E-03    7.2525997145674626E-01    4.6167738022543275E-01
Zn    Zn        7.2516319195099277E-01    4.6157481011680068E-01    1.3152850713456911E-03


